MODEL 1
REMARK VINA RESULT:      -7.1      0.000      0.000
REMARK  Name = 
REMARK  6 active torsions:
REMARK  status: ('A' for Active; 'I' for Inactive)
REMARK    1  A    between atoms: C_1  and  C_2
REMARK    2  A    between atoms: C_5  and  C_6
REMARK    3  A    between atoms: C_9  and  C_11
REMARK    4  A    between atoms: C_15  and  N_16
REMARK    5  A    between atoms: C_19  and  C_20
REMARK    6  A    between atoms: C_23  and  C_24
REMARK                            x       y       z     vdW  Elec       q    Type
REMARK                         _______ _______ _______ _____ _____    ______ ____
ROOT
ATOM      1  C   UNL     1      -1.363  12.157  20.961  0.00  0.00    +0.000 C 
ATOM      2  C   UNL     1      -0.727  13.366  20.286  0.00  0.00    +0.000 C 
ATOM      3  N   UNL     1       0.284  12.770  19.420  0.00  0.00    +0.000 N 
ATOM      4  C   UNL     1       1.388  13.394  18.809  0.00  0.00    +0.000 C 
ATOM      5  O   UNL     1       2.020  12.953  17.870  0.00  0.00    +0.000 OA
ATOM      6  C   UNL     1      -0.006  11.342  19.295  0.00  0.00    +0.000 C 
ATOM      7  C   UNL     1      -1.512  11.133  19.736  0.00  0.00    +0.000 C 
ENDROOT
BRANCH   1  12
ATOM      8  C   UNL     1      -6.163  13.405  24.043  0.00  0.00    +0.000 C 
ATOM      9  C   UNL     1      -4.941  12.980  23.283  0.00  0.00    +0.000 A 
ATOM     10  C   UNL     1      -3.798  12.508  23.936  0.00  0.00    +0.000 A 
ATOM     11  C   UNL     1      -2.635  12.205  23.213  0.00  0.00    +0.000 A 
ATOM     12  C   UNL     1      -2.596  12.383  21.823  0.00  0.00    +0.000 A 
ATOM     13  C   UNL     1      -3.768  12.798  21.172  0.00  0.00    +0.000 A 
ATOM     14  C   UNL     1      -4.923  13.097  21.892  0.00  0.00    +0.000 A 
ENDBRANCH   1  12
BRANCH   4  15
ATOM     15  C   UNL     1       1.900  14.580  19.697  0.00  0.00    +0.000 C 
ATOM     16  C   UNL     1       2.281  15.985  19.243  0.00  0.00    +0.000 C 
ATOM     17  C   UNL     1       3.572  16.584  19.801  0.00  0.00    +0.000 C 
ATOM     18  C   UNL     1       3.953  16.051  21.181  0.00  0.00    +0.000 C 
ATOM     19  C   UNL     1       4.048  14.533  21.141  0.00  0.00    +0.000 C 
ATOM     20  C   UNL     1       2.694  13.921  20.834  0.00  0.00    +0.000 C 
BRANCH  19  21
ATOM     21  N   UNL     1       4.475  13.976  22.425  0.00  0.00    +0.000 NA
ATOM     22  H   UNL     1       5.484  14.069  22.529  0.00  0.00    +0.000 HD
ATOM     23  H   UNL     1       4.266  12.981  22.472  0.00  0.00    +0.000 HD
ENDBRANCH  19  21
ENDBRANCH   4  15
BRANCH   7  24
ATOM     24  C   UNL     1      -2.094  10.882  18.325  0.00  0.00    +0.000 A 
ATOM     25  C   UNL     1      -1.475   9.936  17.499  0.00  0.00    +0.000 A 
ATOM     26  C   UNL     1      -1.984   9.693  16.226  0.00  0.00    +0.000 A 
ATOM     27  C   UNL     1      -3.110  10.387  15.765  0.00  0.00    +0.000 A 
ATOM     28  C   UNL     1      -3.751  11.302  16.586  0.00  0.00    +0.000 A 
ATOM     29  C   UNL     1      -3.256  11.544  17.869  0.00  0.00    +0.000 A 
BRANCH  27  30
ATOM     30  C   UNL     1      -3.604  10.157  14.448  0.00  0.00    +0.000 C 
ATOM     31  N   UNL     1      -4.003   9.973  13.384  0.00  0.00    +0.000 NA
ENDBRANCH  27  30
ENDBRANCH   7  24
TORSDOF 5
ENDMDL
MODEL 2
REMARK VINA RESULT:      -7.0      2.855      5.948
REMARK  Name = 
REMARK  6 active torsions:
REMARK  status: ('A' for Active; 'I' for Inactive)
REMARK    1  A    between atoms: C_1  and  C_2
REMARK    2  A    between atoms: C_5  and  C_6
REMARK    3  A    between atoms: C_9  and  C_11
REMARK    4  A    between atoms: C_15  and  N_16
REMARK    5  A    between atoms: C_19  and  C_20
REMARK    6  A    between atoms: C_23  and  C_24
REMARK                            x       y       z     vdW  Elec       q    Type
REMARK                         _______ _______ _______ _____ _____    ______ ____
ROOT
ATOM      1  C   UNL     1       0.687  11.700  18.836  0.00  0.00    +0.000 C 
ATOM      2  C   UNL     1       1.512  12.789  19.511  0.00  0.00    +0.000 C 
ATOM      3  N   UNL     1       0.646  13.960  19.432  0.00  0.00    +0.000 N 
ATOM      4  C   UNL     1       0.993  15.315  19.591  0.00  0.00    +0.000 C 
ATOM      5  O   UNL     1       0.219  16.221  19.821  0.00  0.00    +0.000 OA
ATOM      6  C   UNL     1      -0.707  13.506  19.113  0.00  0.00    +0.000 C 
ATOM      7  C   UNL     1      -0.772  11.961  19.451  0.00  0.00    +0.000 C 
ENDROOT
BRANCH   1  12
ATOM      8  C   UNL     1       2.849   6.308  19.427  0.00  0.00    +0.000 C 
ATOM      9  C   UNL     1       2.227   7.655  19.197  0.00  0.00    +0.000 A 
ATOM     10  C   UNL     1       2.384   8.338  17.988  0.00  0.00    +0.000 A 
ATOM     11  C   UNL     1       1.874   9.635  17.828  0.00  0.00    +0.000 A 
ATOM     12  C   UNL     1       1.207  10.271  18.884  0.00  0.00    +0.000 A 
ATOM     13  C   UNL     1       1.002   9.552  20.071  0.00  0.00    +0.000 A 
ATOM     14  C   UNL     1       1.508   8.263  20.228  0.00  0.00    +0.000 A 
ENDBRANCH   1  12
BRANCH   4  15
ATOM     15  C   UNL     1       2.468  15.555  19.117  0.00  0.00    +0.000 C 
ATOM     16  C   UNL     1       3.143  15.007  17.863  0.00  0.00    +0.000 C 
ATOM     17  C   UNL     1       4.551  14.430  18.012  0.00  0.00    +0.000 C 
ATOM     18  C   UNL     1       5.353  15.048  19.156  0.00  0.00    +0.000 C 
ATOM     19  C   UNL     1       4.583  14.908  20.462  0.00  0.00    +0.000 C 
ATOM     20  C   UNL     1       3.289  15.698  20.406  0.00  0.00    +0.000 C 
BRANCH  19  21
ATOM     21  N   UNL     1       5.338  15.427  21.603  0.00  0.00    +0.000 NA
ATOM     22  H   UNL     1       4.894  16.271  21.961  0.00  0.00    +0.000 HD
ATOM     23  H   UNL     1       6.280  15.689  21.321  0.00  0.00    +0.000 HD
ENDBRANCH  19  21
ENDBRANCH   4  15
BRANCH   7  24
ATOM     24  C   UNL     1      -1.633  12.079  20.730  0.00  0.00    +0.000 A 
ATOM     25  C   UNL     1      -1.104  11.623  21.943  0.00  0.00    +0.000 A 
ATOM     26  C   UNL     1      -1.863  11.722  23.107  0.00  0.00    +0.000 A 
ATOM     27  C   UNL     1      -3.149  12.274  23.074  0.00  0.00    +0.000 A 
ATOM     28  C   UNL     1      -3.670  12.759  21.884  0.00  0.00    +0.000 A 
ATOM     29  C   UNL     1      -2.914  12.676  20.714  0.00  0.00    +0.000 A 
BRANCH  27  30
ATOM     30  C   UNL     1      -3.932  12.340  24.263  0.00  0.00    +0.000 C 
ATOM     31  N   UNL     1      -4.565  12.397  25.224  0.00  0.00    +0.000 NA
ENDBRANCH  27  30
ENDBRANCH   7  24
TORSDOF 5
ENDMDL
MODEL 3
REMARK VINA RESULT:      -7.0      3.155      8.057
REMARK  Name = 
REMARK  6 active torsions:
REMARK  status: ('A' for Active; 'I' for Inactive)
REMARK    1  A    between atoms: C_1  and  C_2
REMARK    2  A    between atoms: C_5  and  C_6
REMARK    3  A    between atoms: C_9  and  C_11
REMARK    4  A    between atoms: C_15  and  N_16
REMARK    5  A    between atoms: C_19  and  C_20
REMARK    6  A    between atoms: C_23  and  C_24
REMARK                            x       y       z     vdW  Elec       q    Type
REMARK                         _______ _______ _______ _____ _____    ______ ____
ROOT
ATOM      1  C   UNL     1       0.290  10.388  20.244  0.00  0.00    +0.000 C 
ATOM      2  C   UNL     1      -0.761  10.981  19.314  0.00  0.00    +0.000 C 
ATOM      3  N   UNL     1      -1.219  12.161  20.039  0.00  0.00    +0.000 N 
ATOM      4  C   UNL     1      -2.394  12.910  19.834  0.00  0.00    +0.000 C 
ATOM      5  O   UNL     1      -2.592  14.038  20.236  0.00  0.00    +0.000 OA
ATOM      6  C   UNL     1      -0.249  12.456  21.092  0.00  0.00    +0.000 C 
ATOM      7  C   UNL     1       1.089  11.697  20.717  0.00  0.00    +0.000 C 
ENDROOT
BRANCH   1  12
ATOM      8  C   UNL     1       3.228   5.909  17.922  0.00  0.00    +0.000 C 
ATOM      9  C   UNL     1       2.559   7.077  18.585  0.00  0.00    +0.000 A 
ATOM     10  C   UNL     1       2.194   7.045  19.934  0.00  0.00    +0.000 A 
ATOM     11  C   UNL     1       1.486   8.110  20.509  0.00  0.00    +0.000 A 
ATOM     12  C   UNL     1       1.122   9.221  19.735  0.00  0.00    +0.000 A 
ATOM     13  C   UNL     1       1.547   9.269  18.399  0.00  0.00    +0.000 A 
ATOM     14  C   UNL     1       2.252   8.210  17.830  0.00  0.00    +0.000 A 
ENDBRANCH   1  12
BRANCH   4  15
ATOM     15  C   UNL     1      -3.538  11.986  19.293  0.00  0.00    +0.000 C 
ATOM     16  C   UNL     1      -3.752  11.512  17.859  0.00  0.00    +0.000 C 
ATOM     17  C   UNL     1      -5.172  11.580  17.295  0.00  0.00    +0.000 C 
ATOM     18  C   UNL     1      -6.263  11.458  18.356  0.00  0.00    +0.000 C 
ATOM     19  C   UNL     1      -6.067  12.524  19.425  0.00  0.00    +0.000 C 
ATOM     20  C   UNL     1      -4.761  12.304  20.165  0.00  0.00    +0.000 C 
BRANCH  19  21
ATOM     21  N   UNL     1      -7.127  12.491  20.434  0.00  0.00    +0.000 NA
ATOM     22  H   UNL     1      -7.631  13.377  20.440  0.00  0.00    +0.000 HD
ATOM     23  H   UNL     1      -6.734  12.371  21.364  0.00  0.00    +0.000 HD
ENDBRANCH  19  21
ENDBRANCH   4  15
BRANCH   7  24
ATOM     24  C   UNL     1       1.903  12.940  20.288  0.00  0.00    +0.000 A 
ATOM     25  C   UNL     1       2.334  13.037  18.960  0.00  0.00    +0.000 A 
ATOM     26  C   UNL     1       3.067  14.149  18.552  0.00  0.00    +0.000 A 
ATOM     27  C   UNL     1       3.375  15.171  19.459  0.00  0.00    +0.000 A 
ATOM     28  C   UNL     1       2.924  15.101  20.769  0.00  0.00    +0.000 A 
ATOM     29  C   UNL     1       2.179  13.996  21.185  0.00  0.00    +0.000 A 
BRANCH  27  30
ATOM     30  C   UNL     1       4.153  16.289  19.042  0.00  0.00    +0.000 C 
ATOM     31  N   UNL     1       4.781  17.193  18.702  0.00  0.00    +0.000 NA
ENDBRANCH  27  30
ENDBRANCH   7  24
TORSDOF 5
ENDMDL
MODEL 4
REMARK VINA RESULT:      -6.9      2.900      4.549
REMARK  Name = 
REMARK  6 active torsions:
REMARK  status: ('A' for Active; 'I' for Inactive)
REMARK    1  A    between atoms: C_1  and  C_2
REMARK    2  A    between atoms: C_5  and  C_6
REMARK    3  A    between atoms: C_9  and  C_11
REMARK    4  A    between atoms: C_15  and  N_16
REMARK    5  A    between atoms: C_19  and  C_20
REMARK    6  A    between atoms: C_23  and  C_24
REMARK                            x       y       z     vdW  Elec       q    Type
REMARK                         _______ _______ _______ _____ _____    ______ ____
ROOT
ATOM      1  C   UNL     1      -1.162  12.257  20.247  0.00  0.00    +0.000 C 
ATOM      2  C   UNL     1      -0.122  13.215  19.679  0.00  0.00    +0.000 C 
ATOM      3  N   UNL     1       1.047  12.974  20.517  0.00  0.00    +0.000 N 
ATOM      4  C   UNL     1       2.187  13.784  20.679  0.00  0.00    +0.000 C 
ATOM      5  O   UNL     1       3.253  13.421  21.132  0.00  0.00    +0.000 OA
ATOM      6  C   UNL     1       0.841  11.717  21.237  0.00  0.00    +0.000 C 
ATOM      7  C   UNL     1      -0.297  10.925  20.474  0.00  0.00    +0.000 C 
ENDROOT
BRANCH   1  12
ATOM      8  C   UNL     1      -6.403  11.536  17.777  0.00  0.00    +0.000 C 
ATOM      9  C   UNL     1      -5.029  11.785  18.327  0.00  0.00    +0.000 A 
ATOM     10  C   UNL     1      -3.882  11.328  17.671  0.00  0.00    +0.000 A 
ATOM     11  C   UNL     1      -2.615  11.490  18.250  0.00  0.00    +0.000 A 
ATOM     12  C   UNL     1      -2.479  12.104  19.503  0.00  0.00    +0.000 A 
ATOM     13  C   UNL     1      -3.631  12.613  20.122  0.00  0.00    +0.000 A 
ATOM     14  C   UNL     1      -4.889  12.453  19.545  0.00  0.00    +0.000 A 
ENDBRANCH   1  12
BRANCH   4  15
ATOM     15  C   UNL     1       1.810  15.294  20.495  0.00  0.00    +0.000 C 
ATOM     16  C   UNL     1       0.467  15.959  20.779  0.00  0.00    +0.000 C 
ATOM     17  C   UNL     1      -0.077  16.931  19.732  0.00  0.00    +0.000 C 
ATOM     18  C   UNL     1       1.009  17.624  18.911  0.00  0.00    +0.000 C 
ATOM     19  C   UNL     1       1.903  16.584  18.252  0.00  0.00    +0.000 C 
ATOM     20  C   UNL     1       2.646  15.776  19.300  0.00  0.00    +0.000 C 
BRANCH  19  21
ATOM     21  N   UNL     1       2.923  17.196  17.400  0.00  0.00    +0.000 NA
ATOM     22  H   UNL     1       3.847  16.854  17.658  0.00  0.00    +0.000 HD
ATOM     23  H   UNL     1       2.939  18.206  17.527  0.00  0.00    +0.000 HD
ENDBRANCH  19  21
ENDBRANCH   4  15
BRANCH   7  24
ATOM     24  C   UNL     1       0.612   9.850  19.833  0.00  0.00    +0.000 A 
ATOM     25  C   UNL     1       1.059   8.786  20.625  0.00  0.00    +0.000 A 
ATOM     26  C   UNL     1       1.876   7.806  20.067  0.00  0.00    +0.000 A 
ATOM     27  C   UNL     1       2.254   7.876  18.721  0.00  0.00    +0.000 A 
ATOM     28  C   UNL     1       1.790   8.907  17.918  0.00  0.00    +0.000 A 
ATOM     29  C   UNL     1       0.961   9.889  18.464  0.00  0.00    +0.000 A 
BRANCH  27  30
ATOM     30  C   UNL     1       3.118   6.887  18.166  0.00  0.00    +0.000 C 
ATOM     31  N   UNL     1       3.815   6.089  17.716  0.00  0.00    +0.000 NA
ENDBRANCH  27  30
ENDBRANCH   7  24
TORSDOF 5
ENDMDL
MODEL 5
REMARK VINA RESULT:      -6.9      0.763      1.481
REMARK  Name = 
REMARK  6 active torsions:
REMARK  status: ('A' for Active; 'I' for Inactive)
REMARK    1  A    between atoms: C_1  and  C_2
REMARK    2  A    between atoms: C_5  and  C_6
REMARK    3  A    between atoms: C_9  and  C_11
REMARK    4  A    between atoms: C_15  and  N_16
REMARK    5  A    between atoms: C_19  and  C_20
REMARK    6  A    between atoms: C_23  and  C_24
REMARK                            x       y       z     vdW  Elec       q    Type
REMARK                         _______ _______ _______ _____ _____    ______ ____
ROOT
ATOM      1  C   UNL     1      -1.959  12.527  21.234  0.00  0.00    +0.000 C 
ATOM      2  C   UNL     1      -1.305  13.731  20.567  0.00  0.00    +0.000 C 
ATOM      3  N   UNL     1      -0.178  13.144  19.851  0.00  0.00    +0.000 N 
ATOM      4  C   UNL     1       0.959  13.792  19.331  0.00  0.00    +0.000 C 
ATOM      5  O   UNL     1       1.710  13.338  18.493  0.00  0.00    +0.000 OA
ATOM      6  C   UNL     1      -0.390  11.699  19.773  0.00  0.00    +0.000 C 
ATOM      7  C   UNL     1      -1.924  11.438  20.057  0.00  0.00    +0.000 C 
ENDROOT
BRANCH   1  12
ATOM      8  C   UNL     1      -6.981  12.943  24.182  0.00  0.00    +0.000 C 
ATOM      9  C   UNL     1      -5.700  12.943  23.401  0.00  0.00    +0.000 A 
ATOM     10  C   UNL     1      -5.681  13.179  22.023  0.00  0.00    +0.000 A 
ATOM     11  C   UNL     1      -4.484  13.082  21.298  0.00  0.00    +0.000 A 
ATOM     12  C   UNL     1      -3.289  12.733  21.942  0.00  0.00    +0.000 A 
ATOM     13  C   UNL     1      -3.310  12.560  23.334  0.00  0.00    +0.000 A 
ATOM     14  C   UNL     1      -4.499  12.659  24.054  0.00  0.00    +0.000 A 
ENDBRANCH   1  12
BRANCH   4  15
ATOM     15  C   UNL     1       1.316  15.044  20.204  0.00  0.00    +0.000 C 
ATOM     16  C   UNL     1       1.533  16.477  19.730  0.00  0.00    +0.000 C 
ATOM     17  C   UNL     1       2.737  17.234  20.291  0.00  0.00    +0.000 C 
ATOM     18  C   UNL     1       3.161  16.772  21.684  0.00  0.00    +0.000 C 
ATOM     19  C   UNL     1       3.436  15.275  21.672  0.00  0.00    +0.000 C 
ATOM     20  C   UNL     1       2.168  14.502  21.360  0.00  0.00    +0.000 C 
BRANCH  19  21
ATOM     21  N   UNL     1       3.909  14.793  22.970  0.00  0.00    +0.000 NA
ATOM     22  H   UNL     1       4.152  13.805  22.909  0.00  0.00    +0.000 HD
ATOM     23  H   UNL     1       3.175  14.870  23.671  0.00  0.00    +0.000 HD
ENDBRANCH  19  21
ENDBRANCH   4  15
BRANCH   7  24
ATOM     24  C   UNL     1      -2.333  11.089  18.607  0.00  0.00    +0.000 A 
ATOM     25  C   UNL     1      -3.474  11.692  18.064  0.00  0.00    +0.000 A 
ATOM     26  C   UNL     1      -3.858  11.393  16.759  0.00  0.00    +0.000 A 
ATOM     27  C   UNL     1      -3.113  10.496  15.985  0.00  0.00    +0.000 A 
ATOM     28  C   UNL     1      -1.962   9.918  16.500  0.00  0.00    +0.000 A 
ATOM     29  C   UNL     1      -1.561  10.220  17.803  0.00  0.00    +0.000 A 
BRANCH  27  30
ATOM     30  C   UNL     1      -3.531  10.170  14.663  0.00  0.00    +0.000 C 
ATOM     31  N   UNL     1      -3.872   9.907  13.594  0.00  0.00    +0.000 NA
ENDBRANCH  27  30
ENDBRANCH   7  24
TORSDOF 5
ENDMDL
MODEL 6
REMARK VINA RESULT:      -6.9      3.346      5.561
REMARK  Name = 
REMARK  6 active torsions:
REMARK  status: ('A' for Active; 'I' for Inactive)
REMARK    1  A    between atoms: C_1  and  C_2
REMARK    2  A    between atoms: C_5  and  C_6
REMARK    3  A    between atoms: C_9  and  C_11
REMARK    4  A    between atoms: C_15  and  N_16
REMARK    5  A    between atoms: C_19  and  C_20
REMARK    6  A    between atoms: C_23  and  C_24
REMARK                            x       y       z     vdW  Elec       q    Type
REMARK                         _______ _______ _______ _____ _____    ______ ____
ROOT
ATOM      1  C   UNL     1      -1.153  11.368  18.912  0.00  0.00    +0.000 C 
ATOM      2  C   UNL     1       0.035  12.285  18.650  0.00  0.00    +0.000 C 
ATOM      3  N   UNL     1       0.764  12.255  19.913  0.00  0.00    +0.000 N 
ATOM      4  C   UNL     1       1.748  13.150  20.374  0.00  0.00    +0.000 C 
ATOM      5  O   UNL     1       2.538  12.933  21.270  0.00  0.00    +0.000 OA
ATOM      6  C   UNL     1       0.277  11.120  20.695  0.00  0.00    +0.000 C 
ATOM      7  C   UNL     1      -0.462  10.146  19.689  0.00  0.00    +0.000 C 
ENDROOT
BRANCH   1  12
ATOM      8  C   UNL     1      -4.264  10.000  14.164  0.00  0.00    +0.000 C 
ATOM      9  C   UNL     1      -3.549  10.317  15.445  0.00  0.00    +0.000 A 
ATOM     10  C   UNL     1      -4.005  11.315  16.312  0.00  0.00    +0.000 A 
ATOM     11  C   UNL     1      -3.270  11.660  17.456  0.00  0.00    +0.000 A 
ATOM     12  C   UNL     1      -2.058  11.015  17.742  0.00  0.00    +0.000 A 
ATOM     13  C   UNL     1      -1.643   9.974  16.899  0.00  0.00    +0.000 A 
ATOM     14  C   UNL     1      -2.375   9.632  15.764  0.00  0.00    +0.000 A 
ENDBRANCH   1  12
BRANCH   4  15
ATOM     15  C   UNL     1       1.489  14.585  19.799  0.00  0.00    +0.000 C 
ATOM     16  C   UNL     1       2.213  15.269  18.644  0.00  0.00    +0.000 C 
ATOM     17  C   UNL     1       2.638  16.725  18.838  0.00  0.00    +0.000 C 
ATOM     18  C   UNL     1       1.750  17.503  19.808  0.00  0.00    +0.000 C 
ATOM     19  C   UNL     1       1.695  16.785  21.149  0.00  0.00    +0.000 C 
ATOM     20  C   UNL     1       1.035  15.427  21.001  0.00  0.00    +0.000 C 
BRANCH  19  21
ATOM     21  N   UNL     1       0.908  17.524  22.136  0.00  0.00    +0.000 NA
ATOM     22  H   UNL     1       0.869  18.511  21.885  0.00  0.00    +0.000 HD
ATOM     23  H   UNL     1       1.343  17.473  23.054  0.00  0.00    +0.000 HD
ENDBRANCH  19  21
ENDBRANCH   4  15
BRANCH   7  24
ATOM     24  C   UNL     1       0.620   9.042  19.659  0.00  0.00    +0.000 A 
ATOM     25  C   UNL     1       1.393   8.887  18.502  0.00  0.00    +0.000 A 
ATOM     26  C   UNL     1       2.374   7.899  18.455  0.00  0.00    +0.000 A 
ATOM     27  C   UNL     1       2.595   7.061  19.555  0.00  0.00    +0.000 A 
ATOM     28  C   UNL     1       1.858   7.227  20.718  0.00  0.00    +0.000 A 
ATOM     29  C   UNL     1       0.880   8.222  20.780  0.00  0.00    +0.000 A 
BRANCH  27  30
ATOM     30  C   UNL     1       3.578   6.032  19.486  0.00  0.00    +0.000 C 
ATOM     31  N   UNL     1       4.371   5.199  19.429  0.00  0.00    +0.000 NA
ENDBRANCH  27  30
ENDBRANCH   7  24
TORSDOF 5
ENDMDL
MODEL 7
REMARK VINA RESULT:      -6.8      3.342      6.548
REMARK  Name = 
REMARK  6 active torsions:
REMARK  status: ('A' for Active; 'I' for Inactive)
REMARK    1  A    between atoms: C_1  and  C_2
REMARK    2  A    between atoms: C_5  and  C_6
REMARK    3  A    between atoms: C_9  and  C_11
REMARK    4  A    between atoms: C_15  and  N_16
REMARK    5  A    between atoms: C_19  and  C_20
REMARK    6  A    between atoms: C_23  and  C_24
REMARK                            x       y       z     vdW  Elec       q    Type
REMARK                         _______ _______ _______ _____ _____    ______ ____
ROOT
ATOM      1  C   UNL     1       0.516  13.126  20.644  0.00  0.00    +0.000 C 
ATOM      2  C   UNL     1       0.452  11.822  19.859  0.00  0.00    +0.000 C 
ATOM      3  N   UNL     1       0.017  10.852  20.857  0.00  0.00    +0.000 N 
ATOM      4  C   UNL     1       0.096   9.448  20.802  0.00  0.00    +0.000 C 
ATOM      5  O   UNL     1      -0.538   8.676  21.493  0.00  0.00    +0.000 OA
ATOM      6  C   UNL     1      -0.513  11.586  22.006  0.00  0.00    +0.000 C 
ATOM      7  C   UNL     1      -0.831  13.056  21.512  0.00  0.00    +0.000 C 
ENDROOT
BRANCH   1  12
ATOM      8  C   UNL     1       1.128  17.993  17.477  0.00  0.00    +0.000 C 
ATOM      9  C   UNL     1       1.040  16.785  18.364  0.00  0.00    +0.000 A 
ATOM     10  C   UNL     1       2.145  15.957  18.586  0.00  0.00    +0.000 A 
ATOM     11  C   UNL     1       2.016  14.782  19.342  0.00  0.00    +0.000 A 
ATOM     12  C   UNL     1       0.774  14.414  19.878  0.00  0.00    +0.000 A 
ATOM     13  C   UNL     1      -0.311  15.285  19.700  0.00  0.00    +0.000 A 
ATOM     14  C   UNL     1      -0.182  16.452  18.950  0.00  0.00    +0.000 A 
ENDBRANCH   1  12
BRANCH   4  15
ATOM     15  C   UNL     1       1.340   9.008  19.957  0.00  0.00    +0.000 C 
ATOM     16  C   UNL     1       1.570   9.213  18.463  0.00  0.00    +0.000 C 
ATOM     17  C   UNL     1       2.105   8.027  17.660  0.00  0.00    +0.000 C 
ATOM     18  C   UNL     1       2.953   7.058  18.482  0.00  0.00    +0.000 C 
ATOM     19  C   UNL     1       2.161   6.567  19.684  0.00  0.00    +0.000 C 
ATOM     20  C   UNL     1       1.844   7.718  20.621  0.00  0.00    +0.000 C 
BRANCH  19  21
ATOM     21  N   UNL     1       2.907   5.585  20.471  0.00  0.00    +0.000 NA
ATOM     22  H   UNL     1       3.092   4.755  19.909  0.00  0.00    +0.000 HD
ATOM     23  H   UNL     1       2.363   5.279  21.274  0.00  0.00    +0.000 HD
ENDBRANCH  19  21
ENDBRANCH   4  15
BRANCH   7  24
ATOM     24  C   UNL     1      -2.372  12.925  21.498  0.00  0.00    +0.000 A 
ATOM     25  C   UNL     1      -3.059  12.911  22.718  0.00  0.00    +0.000 A 
ATOM     26  C   UNL     1      -4.447  12.796  22.727  0.00  0.00    +0.000 A 
ATOM     27  C   UNL     1      -5.161  12.696  21.527  0.00  0.00    +0.000 A 
ATOM     28  C   UNL     1      -4.495  12.742  20.312  0.00  0.00    +0.000 A 
ATOM     29  C   UNL     1      -3.104  12.869  20.291  0.00  0.00    +0.000 A 
BRANCH  27  30
ATOM     30  C   UNL     1      -6.578  12.545  21.546  0.00  0.00    +0.000 C 
ATOM     31  N   UNL     1      -7.724  12.425  21.560  0.00  0.00    +0.000 NA
ENDBRANCH  27  30
ENDBRANCH   7  24
TORSDOF 5
ENDMDL
MODEL 8
REMARK VINA RESULT:      -6.8      1.201      1.580
REMARK  Name = 
REMARK  6 active torsions:
REMARK  status: ('A' for Active; 'I' for Inactive)
REMARK    1  A    between atoms: C_1  and  C_2
REMARK    2  A    between atoms: C_5  and  C_6
REMARK    3  A    between atoms: C_9  and  C_11
REMARK    4  A    between atoms: C_15  and  N_16
REMARK    5  A    between atoms: C_19  and  C_20
REMARK    6  A    between atoms: C_23  and  C_24
REMARK                            x       y       z     vdW  Elec       q    Type
REMARK                         _______ _______ _______ _____ _____    ______ ____
ROOT
ATOM      1  C   UNL     1      -1.077  12.063  20.878  0.00  0.00    +0.000 C 
ATOM      2  C   UNL     1      -0.208  13.080  20.149  0.00  0.00    +0.000 C 
ATOM      3  N   UNL     1       0.677  12.247  19.344  0.00  0.00    +0.000 N 
ATOM      4  C   UNL     1       1.890  12.605  18.726  0.00  0.00    +0.000 C 
ATOM      5  O   UNL     1       2.435  11.994  17.830  0.00  0.00    +0.000 OA
ATOM      6  C   UNL     1       0.115  10.898  19.296  0.00  0.00    +0.000 C 
ATOM      7  C   UNL     1      -1.408  11.013  19.711  0.00  0.00    +0.000 C 
ENDROOT
BRANCH   1  12
ATOM      8  C   UNL     1      -5.518  14.438  23.832  0.00  0.00    +0.000 C 
ATOM      9  C   UNL     1      -4.422  13.730  23.091  0.00  0.00    +0.000 A 
ATOM     10  C   UNL     1      -3.542  12.859  23.740  0.00  0.00    +0.000 A 
ATOM     11  C   UNL     1      -2.468  12.280  23.048  0.00  0.00    +0.000 A 
ATOM     12  C   UNL     1      -2.253  12.576  21.695  0.00  0.00    +0.000 A 
ATOM     13  C   UNL     1      -3.178  13.402  21.039  0.00  0.00    +0.000 A 
ATOM     14  C   UNL     1      -4.246  13.975  21.728  0.00  0.00    +0.000 A 
ENDBRANCH   1  12
BRANCH   4  15
ATOM     15  C   UNL     1       2.612  13.722  19.556  0.00  0.00    +0.000 C 
ATOM     16  C   UNL     1       2.694  13.846  21.074  0.00  0.00    +0.000 C 
ATOM     17  C   UNL     1       2.445  15.226  21.685  0.00  0.00    +0.000 C 
ATOM     18  C   UNL     1       2.808  16.385  20.759  0.00  0.00    +0.000 C 
ATOM     19  C   UNL     1       2.060  16.248  19.440  0.00  0.00    +0.000 C 
ATOM     20  C   UNL     1       2.498  14.995  18.706  0.00  0.00    +0.000 C 
BRANCH  19  21
ATOM     21  N   UNL     1       2.323  17.372  18.540  0.00  0.00    +0.000 NA
ATOM     22  H   UNL     1       1.614  18.092  18.663  0.00  0.00    +0.000 HD
ATOM     23  H   UNL     1       2.272  17.073  17.569  0.00  0.00    +0.000 HD
ENDBRANCH  19  21
ENDBRANCH   4  15
BRANCH   7  24
ATOM     24  C   UNL     1      -2.009  10.793  18.303  0.00  0.00    +0.000 A 
ATOM     25  C   UNL     1      -1.424   9.839  17.461  0.00  0.00    +0.000 A 
ATOM     26  C   UNL     1      -1.952   9.625  16.191  0.00  0.00    +0.000 A 
ATOM     27  C   UNL     1      -3.062  10.353  15.748  0.00  0.00    +0.000 A 
ATOM     28  C   UNL     1      -3.671  11.276  16.585  0.00  0.00    +0.000 A 
ATOM     29  C   UNL     1      -3.157  11.491  17.865  0.00  0.00    +0.000 A 
BRANCH  27  30
ATOM     30  C   UNL     1      -3.575  10.151  14.434  0.00  0.00    +0.000 C 
ATOM     31  N   UNL     1      -3.991   9.985  13.373  0.00  0.00    +0.000 NA
ENDBRANCH  27  30
ENDBRANCH   7  24
TORSDOF 5
ENDMDL
MODEL 9
REMARK VINA RESULT:      -6.7      3.464      6.641
REMARK  Name = 
REMARK  6 active torsions:
REMARK  status: ('A' for Active; 'I' for Inactive)
REMARK    1  A    between atoms: C_1  and  C_2
REMARK    2  A    between atoms: C_5  and  C_6
REMARK    3  A    between atoms: C_9  and  C_11
REMARK    4  A    between atoms: C_15  and  N_16
REMARK    5  A    between atoms: C_19  and  C_20
REMARK    6  A    between atoms: C_23  and  C_24
REMARK                            x       y       z     vdW  Elec       q    Type
REMARK                         _______ _______ _______ _____ _____    ______ ____
ROOT
ATOM      1  C   UNL     1      -2.073  13.066  20.152  0.00  0.00    +0.000 C 
ATOM      2  C   UNL     1      -3.234  12.129  19.845  0.00  0.00    +0.000 C 
ATOM      3  N   UNL     1      -2.947  11.675  18.489  0.00  0.00    +0.000 N 
ATOM      4  C   UNL     1      -3.820  11.064  17.569  0.00  0.00    +0.000 C 
ATOM      5  O   UNL     1      -3.486  10.434  16.587  0.00  0.00    +0.000 OA
ATOM      6  C   UNL     1      -1.552  11.993  18.187  0.00  0.00    +0.000 C 
ATOM      7  C   UNL     1      -0.823  12.246  19.569  0.00  0.00    +0.000 C 
ENDROOT
BRANCH   1  12
ATOM      8  C   UNL     1      -1.995  15.269  25.559  0.00  0.00    +0.000 C 
ATOM      9  C   UNL     1      -1.927  14.644  24.196  0.00  0.00    +0.000 A 
ATOM     10  C   UNL     1      -0.854  14.883  23.332  0.00  0.00    +0.000 A 
ATOM     11  C   UNL     1      -0.856  14.364  22.029  0.00  0.00    +0.000 A 
ATOM     12  C   UNL     1      -1.941  13.606  21.568  0.00  0.00    +0.000 A 
ATOM     13  C   UNL     1      -2.982  13.321  22.464  0.00  0.00    +0.000 A 
ATOM     14  C   UNL     1      -2.979  13.836  23.758  0.00  0.00    +0.000 A 
ENDBRANCH   1  12
BRANCH   4  15
ATOM     15  C   UNL     1      -5.287  11.571  17.796  0.00  0.00    +0.000 C 
ATOM     16  C   UNL     1      -5.754  13.009  17.992  0.00  0.00    +0.000 C 
ATOM     17  C   UNL     1      -6.761  13.280  19.111  0.00  0.00    +0.000 C 
ATOM     18  C   UNL     1      -7.660  12.088  19.433  0.00  0.00    +0.000 C 
ATOM     19  C   UNL     1      -6.808  10.873  19.771  0.00  0.00    +0.000 C 
ATOM     20  C   UNL     1      -5.988  10.444  18.569  0.00  0.00    +0.000 C 
BRANCH  19  21
ATOM     21  N   UNL     1      -7.623   9.719  20.151  0.00  0.00    +0.000 NA
ATOM     22  H   UNL     1      -7.194   8.860  19.811  0.00  0.00    +0.000 HD
ATOM     23  H   UNL     1      -8.546   9.775  19.726  0.00  0.00    +0.000 HD
ENDBRANCH  19  21
ENDBRANCH   4  15
BRANCH   7  24
ATOM     24  C   UNL     1      -0.011  10.930  19.603  0.00  0.00    +0.000 A 
ATOM     25  C   UNL     1       0.681  10.535  18.452  0.00  0.00    +0.000 A 
ATOM     26  C   UNL     1       1.420   9.354  18.463  0.00  0.00    +0.000 A 
ATOM     27  C   UNL     1       1.477   8.560  19.615  0.00  0.00    +0.000 A 
ATOM     28  C   UNL     1       0.822   8.959  20.771  0.00  0.00    +0.000 A 
ATOM     29  C   UNL     1       0.089  10.146  20.775  0.00  0.00    +0.000 A 
BRANCH  27  30
ATOM     30  C   UNL     1       2.207   7.337  19.607  0.00  0.00    +0.000 C 
ATOM     31  N   UNL     1       2.800   6.349  19.603  0.00  0.00    +0.000 NA
ENDBRANCH  27  30
ENDBRANCH   7  24
TORSDOF 5
ENDMDL
