MODEL 1
REMARK VINA RESULT:      -7.3      0.000      0.000
REMARK  Name = 
REMARK  7 active torsions:
REMARK  status: ('A' for Active; 'I' for Inactive)
REMARK    1  A    between atoms: C_1  and  S_2
REMARK    2  A    between atoms: S_2  and  C_5
REMARK    3  A    between atoms: C_8  and  N_9
REMARK    4  A    between atoms: C_11  and  C_12
REMARK    5  A    between atoms: N_19  and  O_20
REMARK    6  A    between atoms: C_21  and  O_22
REMARK    7  A    between atoms: C_21  and  C_23
REMARK                            x       y       z     vdW  Elec       q    Type
REMARK                         _______ _______ _______ _____ _____    ______ ____
ROOT
ATOM      1  N   UNL     1       0.830   9.786  18.744  0.00  0.00    +0.000 N 
ATOM      2  N   UNL     1      -0.347   9.726  18.024  0.00  0.00    +0.000 NA
ATOM      3  C   UNL     1      -0.972  10.866  18.140  0.00  0.00    +0.000 C 
ATOM      4  C   UNL     1      -0.132  11.837  18.897  0.00  0.00    +0.000 C 
ATOM      5  N   UNL     1      -0.141  13.138  18.911  0.00  0.00    +0.000 NA
ATOM      6  C   UNL     1       0.953  11.013  19.561  0.00  0.00    +0.000 C 
ENDROOT
BRANCH   1  10
ATOM      7  C   UNL     1       3.371   6.404  18.798  0.00  0.00    +0.000 A 
ATOM      8  C   UNL     1       2.511   6.652  19.863  0.00  0.00    +0.000 A 
ATOM      9  C   UNL     1       1.687   7.781  19.828  0.00  0.00    +0.000 A 
ATOM     10  C   UNL     1       1.696   8.692  18.751  0.00  0.00    +0.000 A 
ATOM     11  C   UNL     1       2.593   8.419  17.705  0.00  0.00    +0.000 A 
ATOM     12  C   UNL     1       3.428   7.289  17.723  0.00  0.00    +0.000 A 
BRANCH   7  14
ATOM     13  C   UNL     1       3.525   3.782  19.750  0.00  0.00    +0.000 C 
ATOM     14  S   UNL     1       4.451   4.994  18.845  0.00  0.00    +0.000 S 
ATOM     15  O   UNL     1       5.608   5.357  19.645  0.00  0.00    +0.000 OA
ATOM     16  O   UNL     1       4.608   4.515  17.486  0.00  0.00    +0.000 OA
ENDBRANCH   7  14
ENDBRANCH   1  10
BRANCH   3  17
ATOM     17  C   UNL     1      -2.332  11.072  17.620  0.00  0.00    +0.000 A 
ATOM     18  C   UNL     1      -2.631  10.912  16.262  0.00  0.00    +0.000 A 
ATOM     19  C   UNL     1      -3.942  11.071  15.811  0.00  0.00    +0.000 A 
ATOM     20  C   UNL     1      -4.948  11.439  16.703  0.00  0.00    +0.000 A 
ATOM     21  C   UNL     1      -4.644  11.664  18.044  0.00  0.00    +0.000 A 
ATOM     22  C   UNL     1      -3.338  11.486  18.504  0.00  0.00    +0.000 A 
ENDBRANCH   3  17
BRANCH   6  23
ATOM     23  C   UNL     1       0.561  10.852  21.050  0.00  0.00    +0.000 C 
ATOM     24  F   UNL     1       0.291  12.033  21.658  0.00  0.00    +0.000 F 
ATOM     25  F   UNL     1      -0.550  10.083  21.197  0.00  0.00    +0.000 F 
ATOM     26  F   UNL     1       1.534  10.262  21.793  0.00  0.00    +0.000 F 
ENDBRANCH   6  23
BRANCH   5  27
ATOM     27  O   UNL     1      -1.073  13.692  18.040  0.00  0.00    +0.000 OA
ATOM     28  H   UNL     1      -1.477  12.905  17.623  0.00  0.00    +0.000 HD
ENDBRANCH   5  27
BRANCH   6  29
ATOM     29  O   UNL     1       2.219  11.631  19.315  0.00  0.00    +0.000 OA
ATOM     30  H   UNL     1       2.841  11.112  19.854  0.00  0.00    +0.000 HD
ENDBRANCH   6  29
TORSDOF 6
ENDMDL
MODEL 2
REMARK VINA RESULT:      -7.3      0.707      1.110
REMARK  Name = 
REMARK  7 active torsions:
REMARK  status: ('A' for Active; 'I' for Inactive)
REMARK    1  A    between atoms: C_1  and  S_2
REMARK    2  A    between atoms: S_2  and  C_5
REMARK    3  A    between atoms: C_8  and  N_9
REMARK    4  A    between atoms: C_11  and  C_12
REMARK    5  A    between atoms: N_19  and  O_20
REMARK    6  A    between atoms: C_21  and  O_22
REMARK    7  A    between atoms: C_21  and  C_23
REMARK                            x       y       z     vdW  Elec       q    Type
REMARK                         _______ _______ _______ _____ _____    ______ ____
ROOT
ATOM      1  N   UNL     1       0.814   9.809  18.746  0.00  0.00    +0.000 N 
ATOM      2  N   UNL     1      -0.386   9.741  18.064  0.00  0.00    +0.000 NA
ATOM      3  C   UNL     1      -0.984  10.898  18.147  0.00  0.00    +0.000 C 
ATOM      4  C   UNL     1      -0.103  11.884  18.834  0.00  0.00    +0.000 C 
ATOM      5  N   UNL     1      -0.087  13.184  18.789  0.00  0.00    +0.000 NA
ATOM      6  C   UNL     1       0.985  11.069  19.503  0.00  0.00    +0.000 C 
ENDROOT
BRANCH   1  10
ATOM      7  C   UNL     1       3.287   6.380  18.875  0.00  0.00    +0.000 A 
ATOM      8  C   UNL     1       2.423   6.660  19.928  0.00  0.00    +0.000 A 
ATOM      9  C   UNL     1       1.622   7.804  19.868  0.00  0.00    +0.000 A 
ATOM     10  C   UNL     1       1.658   8.699  18.778  0.00  0.00    +0.000 A 
ATOM     11  C   UNL     1       2.559   8.392  17.745  0.00  0.00    +0.000 A 
ATOM     12  C   UNL     1       3.371   7.246  17.787  0.00  0.00    +0.000 A 
BRANCH   7  14
ATOM     13  C   UNL     1       4.479   4.434  17.262  0.00  0.00    +0.000 C 
ATOM     14  S   UNL     1       4.339   4.949  18.954  0.00  0.00    +0.000 S 
ATOM     15  O   UNL     1       3.616   3.915  19.674  0.00  0.00    +0.000 OA
ATOM     16  O   UNL     1       5.646   5.389  19.399  0.00  0.00    +0.000 OA
ENDBRANCH   7  14
ENDBRANCH   1  10
BRANCH   3  17
ATOM     17  C   UNL     1      -2.355  11.109  17.658  0.00  0.00    +0.000 A 
ATOM     18  C   UNL     1      -2.687  10.942  16.309  0.00  0.00    +0.000 A 
ATOM     19  C   UNL     1      -4.008  11.107  15.887  0.00  0.00    +0.000 A 
ATOM     20  C   UNL     1      -4.990  11.485  16.801  0.00  0.00    +0.000 A 
ATOM     21  C   UNL     1      -4.653  11.716  18.133  0.00  0.00    +0.000 A 
ATOM     22  C   UNL     1      -3.337  11.533  18.563  0.00  0.00    +0.000 A 
ENDBRANCH   3  17
BRANCH   6  23
ATOM     23  C   UNL     1       0.635  10.983  21.009  0.00  0.00    +0.000 C 
ATOM     24  F   UNL     1       1.556  10.295  21.728  0.00  0.00    +0.000 F 
ATOM     25  F   UNL     1       0.550  12.215  21.576  0.00  0.00    +0.000 F 
ATOM     26  F   UNL     1      -0.555  10.372  21.241  0.00  0.00    +0.000 F 
ENDBRANCH   6  23
BRANCH   5  27
ATOM     27  O   UNL     1      -1.033  13.718  17.921  0.00  0.00    +0.000 OA
ATOM     28  H   UNL     1      -1.100  13.035  17.224  0.00  0.00    +0.000 HD
ENDBRANCH   5  27
BRANCH   6  29
ATOM     29  O   UNL     1       2.255  11.648  19.192  0.00  0.00    +0.000 OA
ATOM     30  H   UNL     1       2.803  10.886  18.935  0.00  0.00    +0.000 HD
ENDBRANCH   6  29
TORSDOF 6
ENDMDL
MODEL 3
REMARK VINA RESULT:      -7.2      0.101      1.148
REMARK  Name = 
REMARK  7 active torsions:
REMARK  status: ('A' for Active; 'I' for Inactive)
REMARK    1  A    between atoms: C_1  and  S_2
REMARK    2  A    between atoms: S_2  and  C_5
REMARK    3  A    between atoms: C_8  and  N_9
REMARK    4  A    between atoms: C_11  and  C_12
REMARK    5  A    between atoms: N_19  and  O_20
REMARK    6  A    between atoms: C_21  and  O_22
REMARK    7  A    between atoms: C_21  and  C_23
REMARK                            x       y       z     vdW  Elec       q    Type
REMARK                         _______ _______ _______ _____ _____    ______ ____
ROOT
ATOM      1  N   UNL     1       0.829   9.753  18.723  0.00  0.00    +0.000 N 
ATOM      2  N   UNL     1      -0.362   9.694  18.026  0.00  0.00    +0.000 NA
ATOM      3  C   UNL     1      -0.959  10.851  18.110  0.00  0.00    +0.000 C 
ATOM      4  C   UNL     1      -0.084  11.830  18.815  0.00  0.00    +0.000 C 
ATOM      5  N   UNL     1      -0.063  13.130  18.781  0.00  0.00    +0.000 NA
ATOM      6  C   UNL     1       0.994  11.006  19.492  0.00  0.00    +0.000 C 
ENDROOT
BRANCH   1  10
ATOM      7  C   UNL     1       3.464   6.445  18.793  0.00  0.00    +0.000 A 
ATOM      8  C   UNL     1       3.453   7.308  17.703  0.00  0.00    +0.000 A 
ATOM      9  C   UNL     1       2.567   8.389  17.697  0.00  0.00    +0.000 A 
ATOM     10  C   UNL     1       1.670   8.640  18.757  0.00  0.00    +0.000 A 
ATOM     11  C   UNL     1       1.698   7.734  19.830  0.00  0.00    +0.000 A 
ATOM     12  C   UNL     1       2.582   6.643  19.854  0.00  0.00    +0.000 A 
BRANCH   7  14
ATOM     13  C   UNL     1       3.643   3.794  19.660  0.00  0.00    +0.000 C 
ATOM     14  S   UNL     1       4.559   5.045  18.799  0.00  0.00    +0.000 S 
ATOM     15  O   UNL     1       5.709   5.393  19.615  0.00  0.00    +0.000 OA
ATOM     16  O   UNL     1       4.727   4.613  17.426  0.00  0.00    +0.000 OA
ENDBRANCH   7  14
ENDBRANCH   1  10
BRANCH   3  17
ATOM     17  C   UNL     1      -2.322  11.070  17.605  0.00  0.00    +0.000 A 
ATOM     18  C   UNL     1      -2.644  10.886  16.256  0.00  0.00    +0.000 A 
ATOM     19  C   UNL     1      -3.960  11.058  15.820  0.00  0.00    +0.000 A 
ATOM     20  C   UNL     1      -4.946  11.461  16.719  0.00  0.00    +0.000 A 
ATOM     21  C   UNL     1      -4.618  11.709  18.050  0.00  0.00    +0.000 A 
ATOM     22  C   UNL     1      -3.308  11.519  18.495  0.00  0.00    +0.000 A 
ENDBRANCH   3  17
BRANCH   6  23
ATOM     23  C   UNL     1       0.625  10.910  20.992  0.00  0.00    +0.000 C 
ATOM     24  F   UNL     1      -0.533  10.239  21.211  0.00  0.00    +0.000 F 
ATOM     25  F   UNL     1       1.583  10.260  21.704  0.00  0.00    +0.000 F 
ATOM     26  F   UNL     1       0.471  12.125  21.579  0.00  0.00    +0.000 F 
ENDBRANCH   6  23
BRANCH   5  27
ATOM     27  O   UNL     1      -0.998  13.673  17.905  0.00  0.00    +0.000 OA
ATOM     28  H   UNL     1      -1.559  12.905  17.682  0.00  0.00    +0.000 HD
ENDBRANCH   5  27
BRANCH   6  29
ATOM     29  O   UNL     1       2.269  11.585  19.201  0.00  0.00    +0.000 OA
ATOM     30  H   UNL     1       2.477  12.104  19.997  0.00  0.00    +0.000 HD
ENDBRANCH   6  29
TORSDOF 6
ENDMDL
MODEL 4
REMARK VINA RESULT:      -7.2      0.719      1.565
REMARK  Name = 
REMARK  7 active torsions:
REMARK  status: ('A' for Active; 'I' for Inactive)
REMARK    1  A    between atoms: C_1  and  S_2
REMARK    2  A    between atoms: S_2  and  C_5
REMARK    3  A    between atoms: C_8  and  N_9
REMARK    4  A    between atoms: C_11  and  C_12
REMARK    5  A    between atoms: N_19  and  O_20
REMARK    6  A    between atoms: C_21  and  O_22
REMARK    7  A    between atoms: C_21  and  C_23
REMARK                            x       y       z     vdW  Elec       q    Type
REMARK                         _______ _______ _______ _____ _____    ______ ____
ROOT
ATOM      1  N   UNL     1       0.877   9.618  18.752  0.00  0.00    +0.000 N 
ATOM      2  N   UNL     1      -0.294   9.548  18.022  0.00  0.00    +0.000 NA
ATOM      3  C   UNL     1      -0.899  10.702  18.083  0.00  0.00    +0.000 C 
ATOM      4  C   UNL     1      -0.050  11.690  18.807  0.00  0.00    +0.000 C 
ATOM      5  N   UNL     1      -0.037  12.990  18.767  0.00  0.00    +0.000 NA
ATOM      6  C   UNL     1       1.013  10.876  19.518  0.00  0.00    +0.000 C 
ENDROOT
BRANCH   1  10
ATOM      7  C   UNL     1       3.530   6.327  18.914  0.00  0.00    +0.000 A 
ATOM      8  C   UNL     1       3.542   7.183  17.818  0.00  0.00    +0.000 A 
ATOM      9  C   UNL     1       2.649   8.258  17.781  0.00  0.00    +0.000 A 
ATOM     10  C   UNL     1       1.724   8.511  18.815  0.00  0.00    +0.000 A 
ATOM     11  C   UNL     1       1.729   7.612  19.895  0.00  0.00    +0.000 A 
ATOM     12  C   UNL     1       2.618   6.526  19.949  0.00  0.00    +0.000 A 
BRANCH   7  14
ATOM     13  C   UNL     1       4.953   4.593  17.247  0.00  0.00    +0.000 C 
ATOM     14  S   UNL     1       4.632   4.934  18.958  0.00  0.00    +0.000 S 
ATOM     15  O   UNL     1       3.892   3.809  19.502  0.00  0.00    +0.000 OA
ATOM     16  O   UNL     1       5.871   5.373  19.568  0.00  0.00    +0.000 OA
ENDBRANCH   7  14
ENDBRANCH   1  10
BRANCH   3  17
ATOM     17  C   UNL     1      -2.249  10.910  17.539  0.00  0.00    +0.000 A 
ATOM     18  C   UNL     1      -3.317  11.303  18.353  0.00  0.00    +0.000 A 
ATOM     19  C   UNL     1      -4.576  11.534  17.794  0.00  0.00    +0.000 A 
ATOM     20  C   UNL     1      -4.783  11.328  16.431  0.00  0.00    +0.000 A 
ATOM     21  C   UNL     1      -3.739  10.874  15.627  0.00  0.00    +0.000 A 
ATOM     22  C   UNL     1      -2.474  10.660  16.178  0.00  0.00    +0.000 A 
ENDBRANCH   3  17
BRANCH   6  23
ATOM     23  C   UNL     1       0.602  10.785  21.008  0.00  0.00    +0.000 C 
ATOM     24  F   UNL     1       0.425  11.999  21.585  0.00  0.00    +0.000 F 
ATOM     25  F   UNL     1      -0.568  10.112  21.167  0.00  0.00    +0.000 F 
ATOM     26  F   UNL     1       1.521  10.139  21.772  0.00  0.00    +0.000 F 
ENDBRANCH   6  23
BRANCH   5  27
ATOM     27  O   UNL     1      -0.950  13.523  17.862  0.00  0.00    +0.000 OA
ATOM     28  H   UNL     1      -0.643  14.445  17.761  0.00  0.00    +0.000 HD
ENDBRANCH   5  27
BRANCH   6  29
ATOM     29  O   UNL     1       2.292  11.461  19.261  0.00  0.00    +0.000 OA
ATOM     30  H   UNL     1       2.818  11.229  20.046  0.00  0.00    +0.000 HD
ENDBRANCH   6  29
TORSDOF 6
ENDMDL
MODEL 5
REMARK VINA RESULT:      -7.2      0.108      1.479
REMARK  Name = 
REMARK  7 active torsions:
REMARK  status: ('A' for Active; 'I' for Inactive)
REMARK    1  A    between atoms: C_1  and  S_2
REMARK    2  A    between atoms: S_2  and  C_5
REMARK    3  A    between atoms: C_8  and  N_9
REMARK    4  A    between atoms: C_11  and  C_12
REMARK    5  A    between atoms: N_19  and  O_20
REMARK    6  A    between atoms: C_21  and  O_22
REMARK    7  A    between atoms: C_21  and  C_23
REMARK                            x       y       z     vdW  Elec       q    Type
REMARK                         _______ _______ _______ _____ _____    ______ ____
ROOT
ATOM      1  N   UNL     1       0.811   9.747  18.760  0.00  0.00    +0.000 N 
ATOM      2  N   UNL     1      -0.373   9.694  18.050  0.00  0.00    +0.000 NA
ATOM      3  C   UNL     1      -0.983  10.842  18.160  0.00  0.00    +0.000 C 
ATOM      4  C   UNL     1      -0.126  11.811  18.899  0.00  0.00    +0.000 C 
ATOM      5  N   UNL     1      -0.119  13.112  18.900  0.00  0.00    +0.000 NA
ATOM      6  C   UNL     1       0.955  10.981  19.564  0.00  0.00    +0.000 C 
ENDROOT
BRANCH   1  10
ATOM      7  C   UNL     1       3.482   6.467  18.764  0.00  0.00    +0.000 A 
ATOM      8  C   UNL     1       3.451   7.343  17.685  0.00  0.00    +0.000 A 
ATOM      9  C   UNL     1       2.553   8.415  17.701  0.00  0.00    +0.000 A 
ATOM     10  C   UNL     1       1.664   8.643  18.772  0.00  0.00    +0.000 A 
ATOM     11  C   UNL     1       1.712   7.724  19.834  0.00  0.00    +0.000 A 
ATOM     12  C   UNL     1       2.608   6.642  19.835  0.00  0.00    +0.000 A 
BRANCH   7  14
ATOM     13  C   UNL     1       3.668   3.786  19.532  0.00  0.00    +0.000 C 
ATOM     14  S   UNL     1       4.591   5.079  18.742  0.00  0.00    +0.000 S 
ATOM     15  O   UNL     1       5.717   5.406  19.599  0.00  0.00    +0.000 OA
ATOM     16  O   UNL     1       4.796   4.702  17.358  0.00  0.00    +0.000 OA
ENDBRANCH   7  14
ENDBRANCH   1  10
BRANCH   3  17
ATOM     17  C   UNL     1      -2.345  11.059  17.648  0.00  0.00    +0.000 A 
ATOM     18  C   UNL     1      -3.389  11.464  18.486  0.00  0.00    +0.000 A 
ATOM     19  C   UNL     1      -4.658  11.705  17.957  0.00  0.00    +0.000 A 
ATOM     20  C   UNL     1      -4.901  11.496  16.601  0.00  0.00    +0.000 A 
ATOM     21  C   UNL     1      -3.881  11.030  15.773  0.00  0.00    +0.000 A 
ATOM     22  C   UNL     1      -2.605  10.807  16.294  0.00  0.00    +0.000 A 
ENDBRANCH   3  17
BRANCH   6  23
ATOM     23  C   UNL     1       0.573  10.840  21.058  0.00  0.00    +0.000 C 
ATOM     24  F   UNL     1       1.528  10.219  21.792  0.00  0.00    +0.000 F 
ATOM     25  F   UNL     1       0.369  12.051  21.641  0.00  0.00    +0.000 F 
ATOM     26  F   UNL     1      -0.568  10.127  21.247  0.00  0.00    +0.000 F 
ENDBRANCH   6  23
BRANCH   5  27
ATOM     27  O   UNL     1      -1.052  13.668  18.030  0.00  0.00    +0.000 OA
ATOM     28  H   UNL     1      -1.797  13.890  18.622  0.00  0.00    +0.000 HD
ENDBRANCH   5  27
BRANCH   6  29
ATOM     29  O   UNL     1       2.226  11.581  19.301  0.00  0.00    +0.000 OA
ATOM     30  H   UNL     1       2.025  12.529  19.219  0.00  0.00    +0.000 HD
ENDBRANCH   6  29
TORSDOF 6
ENDMDL
MODEL 6
REMARK VINA RESULT:      -7.1      0.731      1.499
REMARK  Name = 
REMARK  7 active torsions:
REMARK  status: ('A' for Active; 'I' for Inactive)
REMARK    1  A    between atoms: C_1  and  S_2
REMARK    2  A    between atoms: S_2  and  C_5
REMARK    3  A    between atoms: C_8  and  N_9
REMARK    4  A    between atoms: C_11  and  C_12
REMARK    5  A    between atoms: N_19  and  O_20
REMARK    6  A    between atoms: C_21  and  O_22
REMARK    7  A    between atoms: C_21  and  C_23
REMARK                            x       y       z     vdW  Elec       q    Type
REMARK                         _______ _______ _______ _____ _____    ______ ____
ROOT
ATOM      1  N   UNL     1       0.913   9.583  18.682  0.00  0.00    +0.000 N 
ATOM      2  N   UNL     1      -0.246   9.542  17.931  0.00  0.00    +0.000 NA
ATOM      3  C   UNL     1      -0.887  10.669  18.082  0.00  0.00    +0.000 C 
ATOM      4  C   UNL     1      -0.077  11.615  18.900  0.00  0.00    +0.000 C 
ATOM      5  N   UNL     1      -0.102  12.914  18.971  0.00  0.00    +0.000 NA
ATOM      6  C   UNL     1       1.002  10.775  19.554  0.00  0.00    +0.000 C 
ENDROOT
BRANCH   1  10
ATOM      7  C   UNL     1       3.493   6.231  18.657  0.00  0.00    +0.000 A 
ATOM      8  C   UNL     1       2.646   6.455  19.737  0.00  0.00    +0.000 A 
ATOM      9  C   UNL     1       1.809   7.574  19.728  0.00  0.00    +0.000 A 
ATOM     10  C   UNL     1       1.792   8.500  18.663  0.00  0.00    +0.000 A 
ATOM     11  C   UNL     1       2.677   8.250  17.601  0.00  0.00    +0.000 A 
ATOM     12  C   UNL     1       3.525   7.130  17.593  0.00  0.00    +0.000 A 
BRANCH   7  14
ATOM     13  C   UNL     1       6.131   5.509  19.231  0.00  0.00    +0.000 C 
ATOM     14  S   UNL     1       4.590   4.833  18.671  0.00  0.00    +0.000 S 
ATOM     15  O   UNL     1       4.768   4.404  17.294  0.00  0.00    +0.000 OA
ATOM     16  O   UNL     1       4.112   3.909  19.680  0.00  0.00    +0.000 OA
ENDBRANCH   7  14
ENDBRANCH   1  10
BRANCH   3  17
ATOM     17  C   UNL     1      -2.236  10.883  17.538  0.00  0.00    +0.000 A 
ATOM     18  C   UNL     1      -3.298  11.297  18.349  0.00  0.00    +0.000 A 
ATOM     19  C   UNL     1      -4.555  11.534  17.789  0.00  0.00    +0.000 A 
ATOM     20  C   UNL     1      -4.768  11.312  16.429  0.00  0.00    +0.000 A 
ATOM     21  C   UNL     1      -3.730  10.837  15.629  0.00  0.00    +0.000 A 
ATOM     22  C   UNL     1      -2.467  10.618  16.181  0.00  0.00    +0.000 A 
ENDBRANCH   3  17
BRANCH   6  23
ATOM     23  C   UNL     1       0.576  10.544  21.025  0.00  0.00    +0.000 C 
ATOM     24  F   UNL     1      -0.427   9.641  21.151  0.00  0.00    +0.000 F 
ATOM     25  F   UNL     1       1.607  10.079  21.780  0.00  0.00    +0.000 F 
ATOM     26  F   UNL     1       0.138  11.677  21.634  0.00  0.00    +0.000 F 
ENDBRANCH   6  23
BRANCH   5  27
ATOM     27  O   UNL     1      -1.020  13.495  18.101  0.00  0.00    +0.000 OA
ATOM     28  H   UNL     1      -1.470  12.720  17.711  0.00  0.00    +0.000 HD
ENDBRANCH   5  27
BRANCH   6  29
ATOM     29  O   UNL     1       2.266  11.416  19.366  0.00  0.00    +0.000 OA
ATOM     30  H   UNL     1       2.751  10.810  18.780  0.00  0.00    +0.000 HD
ENDBRANCH   6  29
TORSDOF 6
ENDMDL
MODEL 7
REMARK VINA RESULT:      -7.0      0.675      1.279
REMARK  Name = 
REMARK  7 active torsions:
REMARK  status: ('A' for Active; 'I' for Inactive)
REMARK    1  A    between atoms: C_1  and  S_2
REMARK    2  A    between atoms: S_2  and  C_5
REMARK    3  A    between atoms: C_8  and  N_9
REMARK    4  A    between atoms: C_11  and  C_12
REMARK    5  A    between atoms: N_19  and  O_20
REMARK    6  A    between atoms: C_21  and  O_22
REMARK    7  A    between atoms: C_21  and  C_23
REMARK                            x       y       z     vdW  Elec       q    Type
REMARK                         _______ _______ _______ _____ _____    ______ ____
ROOT
ATOM      1  N   UNL     1       0.822   9.700  18.707  0.00  0.00    +0.000 N 
ATOM      2  N   UNL     1      -0.372   9.667  18.013  0.00  0.00    +0.000 NA
ATOM      3  C   UNL     1      -0.958  10.827  18.125  0.00  0.00    +0.000 C 
ATOM      4  C   UNL     1      -0.071  11.782  18.848  0.00  0.00    +0.000 C 
ATOM      5  N   UNL     1      -0.039  13.083  18.842  0.00  0.00    +0.000 NA
ATOM      6  C   UNL     1       1.002  10.935  19.501  0.00  0.00    +0.000 C 
ENDROOT
BRANCH   1  10
ATOM      7  C   UNL     1       3.428   6.368  18.695  0.00  0.00    +0.000 A 
ATOM      8  C   UNL     1       3.430   7.262  17.630  0.00  0.00    +0.000 A 
ATOM      9  C   UNL     1       2.553   8.351  17.650  0.00  0.00    +0.000 A 
ATOM     10  C   UNL     1       1.653   8.579  18.713  0.00  0.00    +0.000 A 
ATOM     11  C   UNL     1       1.668   7.642  19.759  0.00  0.00    +0.000 A 
ATOM     12  C   UNL     1       2.542   6.543  19.756  0.00  0.00    +0.000 A 
BRANCH   7  14
ATOM     13  C   UNL     1       6.060   5.603  19.240  0.00  0.00    +0.000 C 
ATOM     14  S   UNL     1       4.510   4.959  18.666  0.00  0.00    +0.000 S 
ATOM     15  O   UNL     1       4.680   4.567  17.277  0.00  0.00    +0.000 OA
ATOM     16  O   UNL     1       4.026   4.012  19.650  0.00  0.00    +0.000 OA
ENDBRANCH   7  14
ENDBRANCH   1  10
BRANCH   3  17
ATOM     17  C   UNL     1      -2.322  11.069  17.631  0.00  0.00    +0.000 A 
ATOM     18  C   UNL     1      -2.651  10.916  16.280  0.00  0.00    +0.000 A 
ATOM     19  C   UNL     1      -3.967  11.110  15.853  0.00  0.00    +0.000 A 
ATOM     20  C   UNL     1      -4.945  11.503  16.765  0.00  0.00    +0.000 A 
ATOM     21  C   UNL     1      -4.609  11.720  18.100  0.00  0.00    +0.000 A 
ATOM     22  C   UNL     1      -3.299  11.509  18.534  0.00  0.00    +0.000 A 
ENDBRANCH   3  17
BRANCH   6  23
ATOM     23  C   UNL     1       0.638  10.809  21.001  0.00  0.00    +0.000 C 
ATOM     24  F   UNL     1       0.444  12.008  21.602  0.00  0.00    +0.000 F 
ATOM     25  F   UNL     1      -0.508  10.101  21.182  0.00  0.00    +0.000 F 
ATOM     26  F   UNL     1       1.596  10.177  21.727  0.00  0.00    +0.000 F 
ENDBRANCH   6  23
BRANCH   5  27
ATOM     27  O   UNL     1      -0.973  13.653  17.982  0.00  0.00    +0.000 OA
ATOM     28  H   UNL     1      -0.575  14.522  17.774  0.00  0.00    +0.000 HD
ENDBRANCH   5  27
BRANCH   6  29
ATOM     29  O   UNL     1       2.281  11.508  19.218  0.00  0.00    +0.000 OA
ATOM     30  H   UNL     1       2.126  12.466  19.279  0.00  0.00    +0.000 HD
ENDBRANCH   6  29
TORSDOF 6
ENDMDL
MODEL 8
REMARK VINA RESULT:      -7.0      2.695      3.795
REMARK  Name = 
REMARK  7 active torsions:
REMARK  status: ('A' for Active; 'I' for Inactive)
REMARK    1  A    between atoms: C_1  and  S_2
REMARK    2  A    between atoms: S_2  and  C_5
REMARK    3  A    between atoms: C_8  and  N_9
REMARK    4  A    between atoms: C_11  and  C_12
REMARK    5  A    between atoms: N_19  and  O_20
REMARK    6  A    between atoms: C_21  and  O_22
REMARK    7  A    between atoms: C_21  and  C_23
REMARK                            x       y       z     vdW  Elec       q    Type
REMARK                         _______ _______ _______ _____ _____    ______ ____
ROOT
ATOM      1  N   UNL     1       0.415  10.265  19.915  0.00  0.00    +0.000 N 
ATOM      2  N   UNL     1      -0.145  10.629  21.124  0.00  0.00    +0.000 NA
ATOM      3  C   UNL     1      -0.775  11.761  20.974  0.00  0.00    +0.000 C 
ATOM      4  C   UNL     1      -0.760  12.171  19.542  0.00  0.00    +0.000 C 
ATOM      5  N   UNL     1      -1.555  12.956  18.874  0.00  0.00    +0.000 NA
ATOM      6  C   UNL     1       0.300  11.315  18.879  0.00  0.00    +0.000 C 
ENDROOT
BRANCH   1  10
ATOM      7  C   UNL     1       2.469   6.578  19.636  0.00  0.00    +0.000 A 
ATOM      8  C   UNL     1       1.800   6.920  20.806  0.00  0.00    +0.000 A 
ATOM      9  C   UNL     1       1.136   8.148  20.879  0.00  0.00    +0.000 A 
ATOM     10  C   UNL     1       1.122   9.067  19.808  0.00  0.00    +0.000 A 
ATOM     11  C   UNL     1       1.826   8.693  18.652  0.00  0.00    +0.000 A 
ATOM     12  C   UNL     1       2.498   7.463  18.560  0.00  0.00    +0.000 A 
BRANCH   7  14
ATOM     13  C   UNL     1       2.845   4.357  17.981  0.00  0.00    +0.000 C 
ATOM     14  S   UNL     1       3.349   5.036  19.540  0.00  0.00    +0.000 S 
ATOM     15  O   UNL     1       2.832   4.173  20.588  0.00  0.00    +0.000 OA
ATOM     16  O   UNL     1       4.763   5.342  19.461  0.00  0.00    +0.000 OA
ENDBRANCH   7  14
ENDBRANCH   1  10
BRANCH   3  17
ATOM     17  C   UNL     1      -1.349  12.497  22.111  0.00  0.00    +0.000 A 
ATOM     18  C   UNL     1      -0.728  13.635  22.637  0.00  0.00    +0.000 A 
ATOM     19  C   UNL     1      -1.324  14.335  23.688  0.00  0.00    +0.000 A 
ATOM     20  C   UNL     1      -2.515  13.874  24.248  0.00  0.00    +0.000 A 
ATOM     21  C   UNL     1      -3.103  12.704  23.771  0.00  0.00    +0.000 A 
ATOM     22  C   UNL     1      -2.521  12.012  22.707  0.00  0.00    +0.000 A 
ENDBRANCH   3  17
BRANCH   6  23
ATOM     23  C   UNL     1       1.558  12.200  18.698  0.00  0.00    +0.000 C 
ATOM     24  F   UNL     1       1.286  13.397  18.124  0.00  0.00    +0.000 F 
ATOM     25  F   UNL     1       2.155  12.473  19.888  0.00  0.00    +0.000 F 
ATOM     26  F   UNL     1       2.507  11.618  17.919  0.00  0.00    +0.000 F 
ENDBRANCH   6  23
BRANCH   5  27
ATOM     27  O   UNL     1      -2.607  13.453  19.637  0.00  0.00    +0.000 OA
ATOM     28  H   UNL     1      -2.848  14.275  19.166  0.00  0.00    +0.000 HD
ENDBRANCH   5  27
BRANCH   6  29
ATOM     29  O   UNL     1      -0.241  10.752  17.681  0.00  0.00    +0.000 OA
ATOM     30  H   UNL     1      -0.966  11.357  17.446  0.00  0.00    +0.000 HD
ENDBRANCH   6  29
TORSDOF 6
ENDMDL
MODEL 9
REMARK VINA RESULT:      -6.9      0.755      1.498
REMARK  Name = 
REMARK  7 active torsions:
REMARK  status: ('A' for Active; 'I' for Inactive)
REMARK    1  A    between atoms: C_1  and  S_2
REMARK    2  A    between atoms: S_2  and  C_5
REMARK    3  A    between atoms: C_8  and  N_9
REMARK    4  A    between atoms: C_11  and  C_12
REMARK    5  A    between atoms: N_19  and  O_20
REMARK    6  A    between atoms: C_21  and  O_22
REMARK    7  A    between atoms: C_21  and  C_23
REMARK                            x       y       z     vdW  Elec       q    Type
REMARK                         _______ _______ _______ _____ _____    ______ ____
ROOT
ATOM      1  N   UNL     1       0.772   9.431  19.069  0.00  0.00    +0.000 N 
ATOM      2  N   UNL     1      -0.250   9.514  18.144  0.00  0.00    +0.000 NA
ATOM      3  C   UNL     1      -0.980  10.561  18.414  0.00  0.00    +0.000 C 
ATOM      4  C   UNL     1      -0.373  11.336  19.532  0.00  0.00    +0.000 C 
ATOM      5  N   UNL     1      -0.495  12.588  19.864  0.00  0.00    +0.000 NA
ATOM      6  C   UNL     1       0.644  10.410  20.171  0.00  0.00    +0.000 C 
ENDROOT
BRANCH   1  10
ATOM      7  C   UNL     1       3.703   6.397  18.752  0.00  0.00    +0.000 A 
ATOM      8  C   UNL     1       3.554   7.335  17.737  0.00  0.00    +0.000 A 
ATOM      9  C   UNL     1       2.572   8.323  17.858  0.00  0.00    +0.000 A 
ATOM     10  C   UNL     1       1.713   8.405  18.975  0.00  0.00    +0.000 A 
ATOM     11  C   UNL     1       1.881   7.426  19.968  0.00  0.00    +0.000 A 
ATOM     12  C   UNL     1       2.863   6.427  19.864  0.00  0.00    +0.000 A 
BRANCH   7  14
ATOM     13  C   UNL     1       4.082   3.660  19.171  0.00  0.00    +0.000 C 
ATOM     14  S   UNL     1       4.921   5.112  18.595  0.00  0.00    +0.000 S 
ATOM     15  O   UNL     1       5.990   5.408  19.532  0.00  0.00    +0.000 OA
ATOM     16  O   UNL     1       5.198   4.940  17.183  0.00  0.00    +0.000 OA
ENDBRANCH   7  14
ENDBRANCH   1  10
BRANCH   3  17
ATOM     17  C   UNL     1      -2.239  10.843  17.707  0.00  0.00    +0.000 A 
ATOM     18  C   UNL     1      -3.396  11.227  18.394  0.00  0.00    +0.000 A 
ATOM     19  C   UNL     1      -4.561  11.531  17.687  0.00  0.00    +0.000 A 
ATOM     20  C   UNL     1      -4.588  11.407  16.299  0.00  0.00    +0.000 A 
ATOM     21  C   UNL     1      -3.458  10.962  15.616  0.00  0.00    +0.000 A 
ATOM     22  C   UNL     1      -2.285  10.676  16.317  0.00  0.00    +0.000 A 
ENDBRANCH   3  17
BRANCH   6  23
ATOM     23  C   UNL     1       0.010   9.857  21.470  0.00  0.00    +0.000 C 
ATOM     24  F   UNL     1      -0.818  10.744  22.075  0.00  0.00    +0.000 F 
ATOM     25  F   UNL     1      -0.732   8.743  21.233  0.00  0.00    +0.000 F 
ATOM     26  F   UNL     1       0.933   9.509  22.404  0.00  0.00    +0.000 F 
ENDBRANCH   6  23
BRANCH   5  27
ATOM     27  O   UNL     1      -1.302  13.312  18.992  0.00  0.00    +0.000 OA
ATOM     28  H   UNL     1      -0.664  13.649  18.333  0.00  0.00    +0.000 HD
ENDBRANCH   5  27
BRANCH   6  29
ATOM     29  O   UNL     1       1.876  11.117  20.332  0.00  0.00    +0.000 OA
ATOM     30  H   UNL     1       2.494  10.647  19.746  0.00  0.00    +0.000 HD
ENDBRANCH   6  29
TORSDOF 6
ENDMDL
