MODEL 1
REMARK VINA RESULT:      -7.6      0.000      0.000
REMARK  Name = 
REMARK  7 active torsions:
REMARK  status: ('A' for Active; 'I' for Inactive)
REMARK    1  A    between atoms: C_1  and  C_2
REMARK    2  A    between atoms: C_5  and  S_6
REMARK    3  A    between atoms: S_6  and  C_9
REMARK    4  A    between atoms: C_9  and  C_10
REMARK    5  A    between atoms: C_10  and  C_11
REMARK    6  A    between atoms: N_13  and  C_14
REMARK    7  A    between atoms: C_18  and  C_19
REMARK                            x       y       z     vdW  Elec       q    Type
REMARK                         _______ _______ _______ _____ _____    ______ ____
ROOT
ATOM      1  C   UNL     1       6.354   5.436  18.288  0.00  0.00    +0.000 C 
ENDROOT
BRANCH   1   2
ATOM      2  C   UNL     1       6.950   4.925  16.991  0.00  0.00    +0.000 C 
ATOM      3  O   UNL     1       7.983   4.262  17.015  0.00  0.00    +0.000 OA
ATOM      4  N   UNL     1       6.257   5.287  15.845  0.00  0.00    +0.000 N 
ATOM      5  H   UNL     1       5.532   5.992  15.930  0.00  0.00    +0.000 HD
BRANCH   4   6
ATOM      6  C   UNL     1       6.620   4.901  14.526  0.00  0.00    +0.000 A 
ATOM      7  C   UNL     1       7.669   5.511  13.832  0.00  0.00    +0.000 A 
ATOM      8  C   UNL     1       7.954   5.170  12.511  0.00  0.00    +0.000 A 
ATOM      9  C   UNL     1       7.196   4.205  11.863  0.00  0.00    +0.000 A 
ATOM     10  C   UNL     1       6.163   3.550  12.542  0.00  0.00    +0.000 A 
ATOM     11  C   UNL     1       5.327   2.532  11.821  0.00  0.00    +0.000 C 
ATOM     12  C   UNL     1       5.894   3.886  13.885  0.00  0.00    +0.000 A 
ENDBRANCH   4   6
ENDBRANCH   1   2
BRANCH   1  13
ATOM     13  C   UNL     1       5.632   4.275  18.981  0.00  0.00    +0.000 C 
BRANCH  13  14
ATOM     14  S   UNL     1       3.954   4.110  18.453  0.00  0.00    +0.000 S 
ATOM     15  O   UNL     1       3.274   3.233  19.386  0.00  0.00    +0.000 OA
ATOM     16  O   UNL     1       3.960   3.813  17.032  0.00  0.00    +0.000 OA
BRANCH  14  21
ATOM     17  C   UNL     1       1.396   9.611  19.030  0.00  0.00    +0.000 C 
ATOM     18  C   UNL     1       2.063   8.270  18.900  0.00  0.00    +0.000 A 
ATOM     19  C   UNL     1       2.735   7.916  17.722  0.00  0.00    +0.000 A 
ATOM     20  C   UNL     1       3.333   6.657  17.596  0.00  0.00    +0.000 A 
ATOM     21  C   UNL     1       3.265   5.745  18.654  0.00  0.00    +0.000 A 
ATOM     22  C   UNL     1       2.592   6.084  19.831  0.00  0.00    +0.000 A 
ATOM     23  C   UNL     1       1.997   7.345  19.951  0.00  0.00    +0.000 A 
ENDBRANCH  14  21
ENDBRANCH  13  14
ENDBRANCH   1  13
TORSDOF 5
ENDMDL
MODEL 2
REMARK VINA RESULT:      -7.5      5.187      7.182
REMARK  Name = 
REMARK  7 active torsions:
REMARK  status: ('A' for Active; 'I' for Inactive)
REMARK    1  A    between atoms: C_1  and  C_2
REMARK    2  A    between atoms: C_5  and  S_6
REMARK    3  A    between atoms: S_6  and  C_9
REMARK    4  A    between atoms: C_9  and  C_10
REMARK    5  A    between atoms: C_10  and  C_11
REMARK    6  A    between atoms: N_13  and  C_14
REMARK    7  A    between atoms: C_18  and  C_19
REMARK                            x       y       z     vdW  Elec       q    Type
REMARK                         _______ _______ _______ _____ _____    ______ ____
ROOT
ATOM      1  C   UNL     1       8.033   7.427  18.148  0.00  0.00    +0.000 C 
ENDROOT
BRANCH   1   2
ATOM      2  C   UNL     1       8.294   8.917  18.248  0.00  0.00    +0.000 C 
ATOM      3  O   UNL     1       7.700   9.691  17.501  0.00  0.00    +0.000 OA
ATOM      4  N   UNL     1       9.235   9.285  19.198  0.00  0.00    +0.000 N 
ATOM      5  H   UNL     1       9.798   8.553  19.618  0.00  0.00    +0.000 HD
BRANCH   4   6
ATOM      6  C   UNL     1       9.617  10.625  19.478  0.00  0.00    +0.000 A 
ATOM      7  C   UNL     1       9.421  11.210  20.732  0.00  0.00    +0.000 A 
ATOM      8  C   UNL     1       9.731  12.551  20.959  0.00  0.00    +0.000 A 
ATOM      9  C   UNL     1      10.252  13.327  19.933  0.00  0.00    +0.000 A 
ATOM     10  C   UNL     1      10.495  12.760  18.677  0.00  0.00    +0.000 A 
ATOM     11  C   UNL     1      11.026  13.618  17.565  0.00  0.00    +0.000 C 
ATOM     12  C   UNL     1      10.197  11.399  18.462  0.00  0.00    +0.000 A 
ENDBRANCH   4   6
ENDBRANCH   1   2
BRANCH   1  13
ATOM     13  C   UNL     1       6.804   7.207  17.260  0.00  0.00    +0.000 C 
BRANCH  13  14
ATOM     14  S   UNL     1       6.696   5.553  16.649  0.00  0.00    +0.000 S 
ATOM     15  O   UNL     1       7.749   4.776  17.272  0.00  0.00    +0.000 OA
ATOM     16  O   UNL     1       6.584   5.618  15.203  0.00  0.00    +0.000 OA
BRANCH  14  21
ATOM     17  C   UNL     1       1.265   3.665  18.667  0.00  0.00    +0.000 C 
ATOM     18  C   UNL     1       2.624   4.107  18.197  0.00  0.00    +0.000 A 
ATOM     19  C   UNL     1       3.290   5.165  18.828  0.00  0.00    +0.000 A 
ATOM     20  C   UNL     1       4.543   5.590  18.371  0.00  0.00    +0.000 A 
ATOM     21  C   UNL     1       5.139   4.950  17.280  0.00  0.00    +0.000 A 
ATOM     22  C   UNL     1       4.481   3.897  16.637  0.00  0.00    +0.000 A 
ATOM     23  C   UNL     1       3.229   3.478  17.100  0.00  0.00    +0.000 A 
ENDBRANCH  14  21
ENDBRANCH  13  14
ENDBRANCH   1  13
TORSDOF 5
ENDMDL
MODEL 3
REMARK VINA RESULT:      -7.3      2.154      3.074
REMARK  Name = 
REMARK  7 active torsions:
REMARK  status: ('A' for Active; 'I' for Inactive)
REMARK    1  A    between atoms: C_1  and  C_2
REMARK    2  A    between atoms: C_5  and  S_6
REMARK    3  A    between atoms: S_6  and  C_9
REMARK    4  A    between atoms: C_9  and  C_10
REMARK    5  A    between atoms: C_10  and  C_11
REMARK    6  A    between atoms: N_13  and  C_14
REMARK    7  A    between atoms: C_18  and  C_19
REMARK                            x       y       z     vdW  Elec       q    Type
REMARK                         _______ _______ _______ _____ _____    ______ ____
ROOT
ATOM      1  C   UNL     1       4.769   6.678  17.173  0.00  0.00    +0.000 C 
ENDROOT
BRANCH   1   2
ATOM      2  C   UNL     1       5.172   6.405  15.737  0.00  0.00    +0.000 C 
ATOM      3  O   UNL     1       4.882   7.213  14.859  0.00  0.00    +0.000 OA
ATOM      4  N   UNL     1       5.840   5.207  15.534  0.00  0.00    +0.000 N 
ATOM      5  H   UNL     1       5.854   4.535  16.294  0.00  0.00    +0.000 HD
BRANCH   4   6
ATOM      6  C   UNL     1       6.330   4.759  14.277  0.00  0.00    +0.000 A 
ATOM      7  C   UNL     1       7.481   5.292  13.691  0.00  0.00    +0.000 A 
ATOM      8  C   UNL     1       7.895   4.892  12.421  0.00  0.00    +0.000 A 
ATOM      9  C   UNL     1       7.166   3.943  11.719  0.00  0.00    +0.000 A 
ATOM     10  C   UNL     1       6.030   3.362  12.294  0.00  0.00    +0.000 A 
ATOM     11  C   UNL     1       5.229   2.362  11.511  0.00  0.00    +0.000 C 
ATOM     12  C   UNL     1       5.629   3.758  13.587  0.00  0.00    +0.000 A 
ENDBRANCH   4   6
ENDBRANCH   1   2
BRANCH   1  13
ATOM     13  C   UNL     1       6.025   6.618  18.050  0.00  0.00    +0.000 C 
BRANCH  13  14
ATOM     14  S   UNL     1       6.250   5.036  18.802  0.00  0.00    +0.000 S 
ATOM     15  O   UNL     1       6.729   5.246  20.154  0.00  0.00    +0.000 OA
ATOM     16  O   UNL     1       6.996   4.204  17.876  0.00  0.00    +0.000 OA
BRANCH  14  21
ATOM     17  C   UNL     1       0.707   2.565  19.347  0.00  0.00    +0.000 C 
ATOM     18  C   UNL     1       2.061   3.198  19.182  0.00  0.00    +0.000 A 
ATOM     19  C   UNL     1       2.971   2.705  18.238  0.00  0.00    +0.000 A 
ATOM     20  C   UNL     1       4.239   3.282  18.105  0.00  0.00    +0.000 A 
ATOM     21  C   UNL     1       4.601   4.362  18.917  0.00  0.00    +0.000 A 
ATOM     22  C   UNL     1       3.704   4.858  19.867  0.00  0.00    +0.000 A 
ATOM     23  C   UNL     1       2.437   4.277  19.993  0.00  0.00    +0.000 A 
ENDBRANCH  14  21
ENDBRANCH  13  14
ENDBRANCH   1  13
TORSDOF 5
ENDMDL
MODEL 4
REMARK VINA RESULT:      -7.3      3.087      6.546
REMARK  Name = 
REMARK  7 active torsions:
REMARK  status: ('A' for Active; 'I' for Inactive)
REMARK    1  A    between atoms: C_1  and  C_2
REMARK    2  A    between atoms: C_5  and  S_6
REMARK    3  A    between atoms: S_6  and  C_9
REMARK    4  A    between atoms: C_9  and  C_10
REMARK    5  A    between atoms: C_10  and  C_11
REMARK    6  A    between atoms: N_13  and  C_14
REMARK    7  A    between atoms: C_18  and  C_19
REMARK                            x       y       z     vdW  Elec       q    Type
REMARK                         _______ _______ _______ _____ _____    ______ ____
ROOT
ATOM      1  C   UNL     1       1.801   3.582  21.141  0.00  0.00    +0.000 C 
ENDROOT
BRANCH   1   2
ATOM      2  C   UNL     1       1.587   4.694  20.134  0.00  0.00    +0.000 C 
ATOM      3  O   UNL     1       1.041   4.447  19.061  0.00  0.00    +0.000 OA
ATOM      4  N   UNL     1       2.066   5.936  20.521  0.00  0.00    +0.000 N 
ATOM      5  H   UNL     1       2.666   5.981  21.338  0.00  0.00    +0.000 HD
BRANCH   4   6
ATOM      6  C   UNL     1       1.954   7.122  19.746  0.00  0.00    +0.000 A 
ATOM      7  C   UNL     1       2.507   7.235  18.468  0.00  0.00    +0.000 A 
ATOM      8  C   UNL     1       2.452   8.435  17.760  0.00  0.00    +0.000 A 
ATOM      9  C   UNL     1       1.833   9.544  18.321  0.00  0.00    +0.000 A 
ATOM     10  C   UNL     1       1.237   9.454  19.583  0.00  0.00    +0.000 A 
ATOM     11  C   UNL     1       0.601  10.669  20.194  0.00  0.00    +0.000 C 
ATOM     12  C   UNL     1       1.280   8.230  20.283  0.00  0.00    +0.000 A 
ENDBRANCH   4   6
ENDBRANCH   1   2
BRANCH   1  13
ATOM     13  C   UNL     1       3.305   3.302  21.244  0.00  0.00    +0.000 C 
BRANCH  13  14
ATOM     14  S   UNL     1       3.906   2.328  19.897  0.00  0.00    +0.000 S 
ATOM     15  O   UNL     1       2.783   1.612  19.325  0.00  0.00    +0.000 OA
ATOM     16  O   UNL     1       5.082   1.611  20.355  0.00  0.00    +0.000 OA
BRANCH  14  21
ATOM     17  C   UNL     1       5.540   6.545  15.813  0.00  0.00    +0.000 C 
ATOM     18  C   UNL     1       5.169   5.482  16.810  0.00  0.00    +0.000 A 
ATOM     19  C   UNL     1       4.399   4.376  16.424  0.00  0.00    +0.000 A 
ATOM     20  C   UNL     1       4.036   3.402  17.361  0.00  0.00    +0.000 A 
ATOM     21  C   UNL     1       4.447   3.528  18.692  0.00  0.00    +0.000 A 
ATOM     22  C   UNL     1       5.209   4.630  19.090  0.00  0.00    +0.000 A 
ATOM     23  C   UNL     1       5.569   5.600  18.148  0.00  0.00    +0.000 A 
ENDBRANCH  14  21
ENDBRANCH  13  14
ENDBRANCH   1  13
TORSDOF 5
ENDMDL
MODEL 5
REMARK VINA RESULT:      -7.2      2.998      6.744
REMARK  Name = 
REMARK  7 active torsions:
REMARK  status: ('A' for Active; 'I' for Inactive)
REMARK    1  A    between atoms: C_1  and  C_2
REMARK    2  A    between atoms: C_5  and  S_6
REMARK    3  A    between atoms: S_6  and  C_9
REMARK    4  A    between atoms: C_9  and  C_10
REMARK    5  A    between atoms: C_10  and  C_11
REMARK    6  A    between atoms: N_13  and  C_14
REMARK    7  A    between atoms: C_18  and  C_19
REMARK                            x       y       z     vdW  Elec       q    Type
REMARK                         _______ _______ _______ _____ _____    ______ ____
ROOT
ATOM      1  C   UNL     1       7.079   5.315  19.193  0.00  0.00    +0.000 C 
ENDROOT
BRANCH   1   2
ATOM      2  C   UNL     1       5.623   4.930  19.364  0.00  0.00    +0.000 C 
ATOM      3  O   UNL     1       4.828   5.745  19.826  0.00  0.00    +0.000 OA
ATOM      4  N   UNL     1       5.312   3.631  18.989  0.00  0.00    +0.000 N 
ATOM      5  H   UNL     1       6.078   2.992  18.805  0.00  0.00    +0.000 HD
BRANCH   4   6
ATOM      6  C   UNL     1       4.009   3.066  19.043  0.00  0.00    +0.000 A 
ATOM      7  C   UNL     1       3.355   2.586  17.904  0.00  0.00    +0.000 A 
ATOM      8  C   UNL     1       2.047   2.110  17.970  0.00  0.00    +0.000 A 
ATOM      9  C   UNL     1       1.371   2.099  19.183  0.00  0.00    +0.000 A 
ATOM     10  C   UNL     1       2.010   2.537  20.347  0.00  0.00    +0.000 A 
ATOM     11  C   UNL     1       1.259   2.553  21.647  0.00  0.00    +0.000 C 
ATOM     12  C   UNL     1       3.341   2.999  20.275  0.00  0.00    +0.000 A 
ENDBRANCH   4   6
ENDBRANCH   1   2
BRANCH   1  13
ATOM     13  C   UNL     1       7.508   4.969  17.763  0.00  0.00    +0.000 C 
BRANCH  13  14
ATOM     14  S   UNL     1       6.964   6.169  16.584  0.00  0.00    +0.000 S 
ATOM     15  O   UNL     1       8.093   7.014  16.251  0.00  0.00    +0.000 OA
ATOM     16  O   UNL     1       5.728   6.748  17.076  0.00  0.00    +0.000 OA
BRANCH  14  21
ATOM     17  C   UNL     1       5.748   2.718  11.711  0.00  0.00    +0.000 C 
ATOM     18  C   UNL     1       6.029   3.601  12.895  0.00  0.00    +0.000 A 
ATOM     19  C   UNL     1       7.153   4.438  12.914  0.00  0.00    +0.000 A 
ATOM     20  C   UNL     1       7.424   5.238  14.029  0.00  0.00    +0.000 A 
ATOM     21  C   UNL     1       6.564   5.210  15.132  0.00  0.00    +0.000 A 
ATOM     22  C   UNL     1       5.443   4.375  15.128  0.00  0.00    +0.000 A 
ATOM     23  C   UNL     1       5.178   3.577  14.009  0.00  0.00    +0.000 A 
ENDBRANCH  14  21
ENDBRANCH  13  14
ENDBRANCH   1  13
TORSDOF 5
ENDMDL
MODEL 6
REMARK VINA RESULT:      -7.2      2.380      3.575
REMARK  Name = 
REMARK  7 active torsions:
REMARK  status: ('A' for Active; 'I' for Inactive)
REMARK    1  A    between atoms: C_1  and  C_2
REMARK    2  A    between atoms: C_5  and  S_6
REMARK    3  A    between atoms: S_6  and  C_9
REMARK    4  A    between atoms: C_9  and  C_10
REMARK    5  A    between atoms: C_10  and  C_11
REMARK    6  A    between atoms: N_13  and  C_14
REMARK    7  A    between atoms: C_18  and  C_19
REMARK                            x       y       z     vdW  Elec       q    Type
REMARK                         _______ _______ _______ _____ _____    ______ ____
ROOT
ATOM      1  C   UNL     1       7.166   5.130  15.953  0.00  0.00    +0.000 C 
ENDROOT
BRANCH   1   2
ATOM      2  C   UNL     1       6.453   4.121  15.075  0.00  0.00    +0.000 C 
ATOM      3  O   UNL     1       5.784   3.229  15.592  0.00  0.00    +0.000 OA
ATOM      4  N   UNL     1       6.644   4.290  13.712  0.00  0.00    +0.000 N 
ATOM      5  H   UNL     1       7.365   4.937  13.410  0.00  0.00    +0.000 HD
BRANCH   4   6
ATOM      6  C   UNL     1       6.054   3.477  12.707  0.00  0.00    +0.000 A 
ATOM      7  C   UNL     1       6.648   2.294  12.259  0.00  0.00    +0.000 A 
ATOM      8  C   UNL     1       6.090   1.556  11.216  0.00  0.00    +0.000 A 
ATOM      9  C   UNL     1       4.920   1.988  10.607  0.00  0.00    +0.000 A 
ATOM     10  C   UNL     1       4.280   3.148  11.058  0.00  0.00    +0.000 A 
ATOM     11  C   UNL     1       3.033   3.625  10.370  0.00  0.00    +0.000 C 
ATOM     12  C   UNL     1       4.841   3.878  12.127  0.00  0.00    +0.000 A 
ENDBRANCH   4   6
ENDBRANCH   1   2
BRANCH   1  13
ATOM     13  C   UNL     1       7.213   4.583  17.383  0.00  0.00    +0.000 C 
BRANCH  13  14
ATOM     14  S   UNL     1       6.217   5.523  18.500  0.00  0.00    +0.000 S 
ATOM     15  O   UNL     1       5.978   6.822  17.903  0.00  0.00    +0.000 OA
ATOM     16  O   UNL     1       6.807   5.416  19.822  0.00  0.00    +0.000 OA
BRANCH  14  21
ATOM     17  C   UNL     1       0.872   2.621  18.872  0.00  0.00    +0.000 C 
ATOM     18  C   UNL     1       2.197   3.320  18.743  0.00  0.00    +0.000 A 
ATOM     19  C   UNL     1       3.387   2.672  19.101  0.00  0.00    +0.000 A 
ATOM     20  C   UNL     1       4.615   3.336  19.003  0.00  0.00    +0.000 A 
ATOM     21  C   UNL     1       4.658   4.655  18.539  0.00  0.00    +0.000 A 
ATOM     22  C   UNL     1       3.477   5.314  18.186  0.00  0.00    +0.000 A 
ATOM     23  C   UNL     1       2.253   4.644  18.285  0.00  0.00    +0.000 A 
ENDBRANCH  14  21
ENDBRANCH  13  14
ENDBRANCH   1  13
TORSDOF 5
ENDMDL
MODEL 7
REMARK VINA RESULT:      -7.2      2.132      3.378
REMARK  Name = 
REMARK  7 active torsions:
REMARK  status: ('A' for Active; 'I' for Inactive)
REMARK    1  A    between atoms: C_1  and  C_2
REMARK    2  A    between atoms: C_5  and  S_6
REMARK    3  A    between atoms: S_6  and  C_9
REMARK    4  A    between atoms: C_9  and  C_10
REMARK    5  A    between atoms: C_10  and  C_11
REMARK    6  A    between atoms: N_13  and  C_14
REMARK    7  A    between atoms: C_18  and  C_19
REMARK                            x       y       z     vdW  Elec       q    Type
REMARK                         _______ _______ _______ _____ _____    ______ ____
ROOT
ATOM      1  C   UNL     1       4.237   1.543  19.820  0.00  0.00    +0.000 C 
ENDROOT
BRANCH   1   2
ATOM      2  C   UNL     1       4.318   2.296  18.508  0.00  0.00    +0.000 C 
ATOM      3  O   UNL     1       3.680   1.898  17.536  0.00  0.00    +0.000 OA
ATOM      4  N   UNL     1       5.157   3.400  18.516  0.00  0.00    +0.000 N 
ATOM      5  H   UNL     1       5.777   3.521  19.310  0.00  0.00    +0.000 HD
BRANCH   4   6
ATOM      6  C   UNL     1       5.367   4.264  17.406  0.00  0.00    +0.000 A 
ATOM      7  C   UNL     1       5.243   5.652  17.507  0.00  0.00    +0.000 A 
ATOM      8  C   UNL     1       5.375   6.471  16.386  0.00  0.00    +0.000 A 
ATOM      9  C   UNL     1       5.642   5.912  15.144  0.00  0.00    +0.000 A 
ATOM     10  C   UNL     1       5.808   4.528  15.017  0.00  0.00    +0.000 A 
ATOM     11  C   UNL     1       6.063   3.931  13.663  0.00  0.00    +0.000 C 
ATOM     12  C   UNL     1       5.693   3.709  16.160  0.00  0.00    +0.000 A 
ENDBRANCH   4   6
ENDBRANCH   1   2
BRANCH   1  13
ATOM     13  C   UNL     1       3.744   2.507  20.905  0.00  0.00    +0.000 C 
BRANCH  13  14
ATOM     14  S   UNL     1       2.024   2.882  20.747  0.00  0.00    +0.000 S 
ATOM     15  O   UNL     1       1.485   3.081  22.078  0.00  0.00    +0.000 OA
ATOM     16  O   UNL     1       1.435   1.904  19.850  0.00  0.00    +0.000 OA
BRANCH  14  21
ATOM     17  C   UNL     1       2.156   8.253  17.872  0.00  0.00    +0.000 C 
ATOM     18  C   UNL     1       2.084   6.935  18.592  0.00  0.00    +0.000 A 
ATOM     19  C   UNL     1       2.319   6.858  19.971  0.00  0.00    +0.000 A 
ATOM     20  C   UNL     1       2.276   5.626  20.632  0.00  0.00    +0.000 A 
ATOM     21  C   UNL     1       1.991   4.460  19.913  0.00  0.00    +0.000 A 
ATOM     22  C   UNL     1       1.762   4.522  18.536  0.00  0.00    +0.000 A 
ATOM     23  C   UNL     1       1.806   5.759  17.882  0.00  0.00    +0.000 A 
ENDBRANCH  14  21
ENDBRANCH  13  14
ENDBRANCH   1  13
TORSDOF 5
ENDMDL
MODEL 8
REMARK VINA RESULT:      -7.2      5.001      7.116
REMARK  Name = 
REMARK  7 active torsions:
REMARK  status: ('A' for Active; 'I' for Inactive)
REMARK    1  A    between atoms: C_1  and  C_2
REMARK    2  A    between atoms: C_5  and  S_6
REMARK    3  A    between atoms: S_6  and  C_9
REMARK    4  A    between atoms: C_9  and  C_10
REMARK    5  A    between atoms: C_10  and  C_11
REMARK    6  A    between atoms: N_13  and  C_14
REMARK    7  A    between atoms: C_18  and  C_19
REMARK                            x       y       z     vdW  Elec       q    Type
REMARK                         _______ _______ _______ _____ _____    ______ ____
ROOT
ATOM      1  C   UNL     1       7.768   7.232  17.813  0.00  0.00    +0.000 C 
ENDROOT
BRANCH   1   2
ATOM      2  C   UNL     1       8.087   8.704  17.986  0.00  0.00    +0.000 C 
ATOM      3  O   UNL     1       7.549   9.533  17.256  0.00  0.00    +0.000 OA
ATOM      4  N   UNL     1       9.012   8.991  18.978  0.00  0.00    +0.000 N 
ATOM      5  H   UNL     1       9.531   8.219  19.383  0.00  0.00    +0.000 HD
BRANCH   4   6
ATOM      6  C   UNL     1       9.441  10.300  19.328  0.00  0.00    +0.000 A 
ATOM      7  C   UNL     1      10.245  11.073  18.485  0.00  0.00    +0.000 A 
ATOM      8  C   UNL     1      10.719  12.322  18.885  0.00  0.00    +0.000 A 
ATOM      9  C   UNL     1      10.387  12.823  20.137  0.00  0.00    +0.000 A 
ATOM     10  C   UNL     1       9.553  12.090  20.989  0.00  0.00    +0.000 A 
ATOM     11  C   UNL     1       9.229  12.626  22.353  0.00  0.00    +0.000 C 
ATOM     12  C   UNL     1       9.062  10.837  20.568  0.00  0.00    +0.000 A 
ENDBRANCH   4   6
ENDBRANCH   1   2
BRANCH   1  13
ATOM     13  C   UNL     1       6.248   7.073  17.714  0.00  0.00    +0.000 C 
BRANCH  13  14
ATOM     14  S   UNL     1       5.764   5.986  16.407  0.00  0.00    +0.000 S 
ATOM     15  O   UNL     1       6.812   4.999  16.234  0.00  0.00    +0.000 OA
ATOM     16  O   UNL     1       5.326   6.801  15.289  0.00  0.00    +0.000 OA
BRANCH  14  21
ATOM     17  C   UNL     1       0.996   3.031  18.787  0.00  0.00    +0.000 C 
ATOM     18  C   UNL     1       2.152   3.764  18.164  0.00  0.00    +0.000 A 
ATOM     19  C   UNL     1       3.113   3.077  17.410  0.00  0.00    +0.000 A 
ATOM     20  C   UNL     1       4.200   3.759  16.854  0.00  0.00    +0.000 A 
ATOM     21  C   UNL     1       4.329   5.139  17.046  0.00  0.00    +0.000 A 
ATOM     22  C   UNL     1       3.381   5.834  17.801  0.00  0.00    +0.000 A 
ATOM     23  C   UNL     1       2.295   5.145  18.354  0.00  0.00    +0.000 A 
ENDBRANCH  14  21
ENDBRANCH  13  14
ENDBRANCH   1  13
TORSDOF 5
ENDMDL
MODEL 9
REMARK VINA RESULT:      -7.2      5.255      6.940
REMARK  Name = 
REMARK  7 active torsions:
REMARK  status: ('A' for Active; 'I' for Inactive)
REMARK    1  A    between atoms: C_1  and  C_2
REMARK    2  A    between atoms: C_5  and  S_6
REMARK    3  A    between atoms: S_6  and  C_9
REMARK    4  A    between atoms: C_9  and  C_10
REMARK    5  A    between atoms: C_10  and  C_11
REMARK    6  A    between atoms: N_13  and  C_14
REMARK    7  A    between atoms: C_18  and  C_19
REMARK                            x       y       z     vdW  Elec       q    Type
REMARK                         _______ _______ _______ _____ _____    ______ ____
ROOT
ATOM      1  C   UNL     1       8.241   7.753  18.660  0.00  0.00    +0.000 C 
ENDROOT
BRANCH   1   2
ATOM      2  C   UNL     1       8.377   9.142  18.070  0.00  0.00    +0.000 C 
ATOM      3  O   UNL     1       7.636   9.490  17.154  0.00  0.00    +0.000 OA
ATOM      4  N   UNL     1       9.381   9.919  18.626  0.00  0.00    +0.000 N 
ATOM      5  H   UNL     1      10.051   9.465  19.238  0.00  0.00    +0.000 HD
BRANCH   4   6
ATOM      6  C   UNL     1       9.672  11.257  18.244  0.00  0.00    +0.000 A 
ATOM      7  C   UNL     1      10.907  11.628  17.705  0.00  0.00    +0.000 A 
ATOM      8  C   UNL     1      11.196  12.961  17.413  0.00  0.00    +0.000 A 
ATOM      9  C   UNL     1      10.246  13.946  17.649  0.00  0.00    +0.000 A 
ATOM     10  C   UNL     1       8.987  13.602  18.153  0.00  0.00    +0.000 A 
ATOM     11  C   UNL     1       7.981  14.679  18.438  0.00  0.00    +0.000 C 
ATOM     12  C   UNL     1       8.697  12.249  18.427  0.00  0.00    +0.000 A 
ENDBRANCH   4   6
ENDBRANCH   1   2
BRANCH   1  13
ATOM     13  C   UNL     1       7.607   6.837  17.608  0.00  0.00    +0.000 C 
BRANCH  13  14
ATOM     14  S   UNL     1       7.415   5.177  18.181  0.00  0.00    +0.000 S 
ATOM     15  O   UNL     1       7.796   5.138  19.579  0.00  0.00    +0.000 OA
ATOM     16  O   UNL     1       8.050   4.296  17.219  0.00  0.00    +0.000 OA
BRANCH  14  21
ATOM     17  C   UNL     1       1.448   3.951  18.005  0.00  0.00    +0.000 C 
ATOM     18  C   UNL     1       2.914   4.286  18.024  0.00  0.00    +0.000 A 
ATOM     19  C   UNL     1       3.768   3.819  17.016  0.00  0.00    +0.000 A 
ATOM     20  C   UNL     1       5.136   4.111  17.051  0.00  0.00    +0.000 A 
ATOM     21  C   UNL     1       5.656   4.881  18.097  0.00  0.00    +0.000 A 
ATOM     22  C   UNL     1       4.816   5.347  19.112  0.00  0.00    +0.000 A 
ATOM     23  C   UNL     1       3.449   5.051  19.070  0.00  0.00    +0.000 A 
ENDBRANCH  14  21
ENDBRANCH  13  14
ENDBRANCH   1  13
TORSDOF 5
ENDMDL
