MODEL 1
REMARK VINA RESULT:      -7.0      0.000      0.000
REMARK  Name = 
REMARK  7 active torsions:
REMARK  status: ('A' for Active; 'I' for Inactive)
REMARK    1  A    between atoms: C_1  and  C_2
REMARK    2  A    between atoms: N_4  and  C_5
REMARK    3  A    between atoms: C_5  and  N_6
REMARK    4  A    between atoms: C_7  and  C_8
REMARK    5  A    between atoms: N_12  and  C_13
REMARK    6  A    between atoms: C_14  and  C_15
REMARK    7  A    between atoms: C_21  and  C_22
REMARK                            x       y       z     vdW  Elec       q    Type
REMARK                         _______ _______ _______ _____ _____    ______ ____
ROOT
ATOM      1  C   UNL     1       3.848   5.347  18.468  0.00  0.00    +0.000 C 
ATOM      2  C   UNL     1       5.044   5.252  19.443  0.00  0.00    +0.000 C 
ATOM      3  C   UNL     1       6.039   4.169  19.055  0.00  0.00    +0.000 C 
ATOM      4  N   UNL     1       6.597   4.377  17.719  0.00  0.00    +0.000 NA
ATOM      5  C   UNL     1       7.557   5.476  17.725  0.00  0.00    +0.000 C 
ATOM      6  C   UNL     1       5.522   4.419  16.697  0.00  0.00    +0.000 C 
ATOM      7  C   UNL     1       4.306   5.382  16.957  0.00  0.00    +0.000 C 
ATOM      8  C   UNL     1       4.461   6.790  16.371  0.00  0.00    +0.000 C 
ENDROOT
BRANCH   6   9
ATOM      9  C   UNL     1       6.028   4.388  15.244  0.00  0.00    +0.000 A 
ATOM     10  C   UNL     1       5.317   3.668  14.269  0.00  0.00    +0.000 A 
ATOM     11  C   UNL     1       5.752   3.624  12.939  0.00  0.00    +0.000 A 
ATOM     12  C   UNL     1       6.911   4.292  12.557  0.00  0.00    +0.000 A 
ATOM     13  C   UNL     1       7.628   5.017  13.502  0.00  0.00    +0.000 A 
ATOM     14  C   UNL     1       7.184   5.071  14.825  0.00  0.00    +0.000 A 
ENDBRANCH   6   9
BRANCH   1  18
ATOM     15  C   UNL     1       1.201   2.570  18.512  0.00  0.00    +0.000 C 
ATOM     16  C   UNL     1       1.814   3.875  18.087  0.00  0.00    +0.000 C 
ATOM     17  O   UNL     1       1.257   4.657  17.323  0.00  0.00    +0.000 OA
ATOM     18  N   UNL     1       3.017   4.139  18.701  0.00  0.00    +0.000 N 
ATOM     19  H   UNL     1       3.375   3.443  19.338  0.00  0.00    +0.000 HD
ENDBRANCH   1  18
BRANCH   1  20
ATOM     20  N   UNL     1       2.970   6.462  18.847  0.00  0.00    +0.000 N 
ATOM     21  C   UNL     1       2.245   6.599  20.007  0.00  0.00    +0.000 C 
ATOM     22  C   UNL     1       1.451   7.876  20.089  0.00  0.00    +0.000 C 
ATOM     23  O   UNL     1       2.181   5.761  20.900  0.00  0.00    +0.000 OA
ATOM     24  H   UNL     1       3.180   7.316  18.339  0.00  0.00    +0.000 HD
ENDBRANCH   1  20
TORSDOF 3
ENDMDL
MODEL 2
REMARK VINA RESULT:      -6.9      0.143      1.034
REMARK  Name = 
REMARK  7 active torsions:
REMARK  status: ('A' for Active; 'I' for Inactive)
REMARK    1  A    between atoms: C_1  and  C_2
REMARK    2  A    between atoms: N_4  and  C_5
REMARK    3  A    between atoms: C_5  and  N_6
REMARK    4  A    between atoms: C_7  and  C_8
REMARK    5  A    between atoms: N_12  and  C_13
REMARK    6  A    between atoms: C_14  and  C_15
REMARK    7  A    between atoms: C_21  and  C_22
REMARK                            x       y       z     vdW  Elec       q    Type
REMARK                         _______ _______ _______ _____ _____    ______ ____
ROOT
ATOM      1  C   UNL     1       3.784   5.315  18.591  0.00  0.00    +0.000 C 
ATOM      2  C   UNL     1       4.981   5.181  19.560  0.00  0.00    +0.000 C 
ATOM      3  C   UNL     1       5.947   4.077  19.157  0.00  0.00    +0.000 C 
ATOM      4  N   UNL     1       6.506   4.286  17.821  0.00  0.00    +0.000 NA
ATOM      5  C   UNL     1       7.492   5.361  17.834  0.00  0.00    +0.000 C 
ATOM      6  C   UNL     1       5.428   4.364  16.804  0.00  0.00    +0.000 C 
ATOM      7  C   UNL     1       4.237   5.354  17.078  0.00  0.00    +0.000 C 
ATOM      8  C   UNL     1       4.424   6.764  16.506  0.00  0.00    +0.000 C 
ENDROOT
BRANCH   6   9
ATOM      9  C   UNL     1       5.928   4.336  15.349  0.00  0.00    +0.000 A 
ATOM     10  C   UNL     1       7.112   5.010  15.002  0.00  0.00    +0.000 A 
ATOM     11  C   UNL     1       7.594   5.000  13.687  0.00  0.00    +0.000 A 
ATOM     12  C   UNL     1       6.898   4.324  12.689  0.00  0.00    +0.000 A 
ATOM     13  C   UNL     1       5.728   3.644  13.009  0.00  0.00    +0.000 A 
ATOM     14  C   UNL     1       5.258   3.643  14.325  0.00  0.00    +0.000 A 
ENDBRANCH   6   9
BRANCH   1  18
ATOM     15  C   UNL     1       1.108   2.566  18.565  0.00  0.00    +0.000 C 
ATOM     16  C   UNL     1       1.764   3.847  18.130  0.00  0.00    +0.000 C 
ATOM     17  O   UNL     1       1.270   4.601  17.298  0.00  0.00    +0.000 OA
ATOM     18  N   UNL     1       2.925   4.125  18.814  0.00  0.00    +0.000 N 
ATOM     19  H   UNL     1       3.230   3.453  19.502  0.00  0.00    +0.000 HD
ENDBRANCH   1  18
BRANCH   1  20
ATOM     20  N   UNL     1       2.935   6.446  18.984  0.00  0.00    +0.000 N 
ATOM     21  C   UNL     1       2.174   6.566  20.123  0.00  0.00    +0.000 C 
ATOM     22  C   UNL     1       1.426   7.868  20.230  0.00  0.00    +0.000 C 
ATOM     23  O   UNL     1       2.047   5.696  20.978  0.00  0.00    +0.000 OA
ATOM     24  H   UNL     1       3.194   7.311  18.519  0.00  0.00    +0.000 HD
ENDBRANCH   1  20
TORSDOF 3
ENDMDL
MODEL 3
REMARK VINA RESULT:      -6.7      2.127      6.278
REMARK  Name = 
REMARK  7 active torsions:
REMARK  status: ('A' for Active; 'I' for Inactive)
REMARK    1  A    between atoms: C_1  and  C_2
REMARK    2  A    between atoms: N_4  and  C_5
REMARK    3  A    between atoms: C_5  and  N_6
REMARK    4  A    between atoms: C_7  and  C_8
REMARK    5  A    between atoms: N_12  and  C_13
REMARK    6  A    between atoms: C_14  and  C_15
REMARK    7  A    between atoms: C_21  and  C_22
REMARK                            x       y       z     vdW  Elec       q    Type
REMARK                         _______ _______ _______ _____ _____    ______ ____
ROOT
ATOM      1  C   UNL     1       5.536   5.012  17.688  0.00  0.00    +0.000 C 
ATOM      2  C   UNL     1       4.703   3.710  17.691  0.00  0.00    +0.000 C 
ATOM      3  C   UNL     1       3.716   3.643  18.847  0.00  0.00    +0.000 C 
ATOM      4  N   UNL     1       2.765   4.754  18.834  0.00  0.00    +0.000 NA
ATOM      5  C   UNL     1       1.777   4.579  17.774  0.00  0.00    +0.000 C 
ATOM      6  C   UNL     1       3.473   6.057  18.893  0.00  0.00    +0.000 C 
ATOM      7  C   UNL     1       4.640   6.300  17.866  0.00  0.00    +0.000 C 
ATOM      8  C   UNL     1       4.216   6.967  16.553  0.00  0.00    +0.000 C 
ENDROOT
BRANCH   6   9
ATOM      9  C   UNL     1       2.553   7.267  19.130  0.00  0.00    +0.000 A 
ATOM     10  C   UNL     1       1.971   7.468  20.394  0.00  0.00    +0.000 A 
ATOM     11  C   UNL     1       1.132   8.562  20.640  0.00  0.00    +0.000 A 
ATOM     12  C   UNL     1       0.850   9.473  19.627  0.00  0.00    +0.000 A 
ATOM     13  C   UNL     1       1.419   9.300  18.371  0.00  0.00    +0.000 A 
ATOM     14  C   UNL     1       2.268   8.216  18.132  0.00  0.00    +0.000 A 
ENDBRANCH   6   9
BRANCH   1  18
ATOM     15  C   UNL     1       8.320   5.418  20.296  0.00  0.00    +0.000 C 
ATOM     16  C   UNL     1       7.540   5.760  19.058  0.00  0.00    +0.000 C 
ATOM     17  O   UNL     1       7.862   6.663  18.293  0.00  0.00    +0.000 OA
ATOM     18  N   UNL     1       6.481   4.911  18.828  0.00  0.00    +0.000 N 
ATOM     19  H   UNL     1       6.319   4.179  19.504  0.00  0.00    +0.000 HD
ENDBRANCH   1  18
BRANCH   1  20
ATOM     20  N   UNL     1       6.407   5.055  16.507  0.00  0.00    +0.000 N 
ATOM     21  C   UNL     1       6.120   4.611  15.238  0.00  0.00    +0.000 C 
ATOM     22  C   UNL     1       7.234   4.816  14.246  0.00  0.00    +0.000 C 
ATOM     23  O   UNL     1       5.082   4.047  14.909  0.00  0.00    +0.000 OA
ATOM     24  H   UNL     1       7.144   5.750  16.588  0.00  0.00    +0.000 HD
ENDBRANCH   1  20
TORSDOF 3
ENDMDL
MODEL 4
REMARK VINA RESULT:      -6.7      2.136      6.264
REMARK  Name = 
REMARK  7 active torsions:
REMARK  status: ('A' for Active; 'I' for Inactive)
REMARK    1  A    between atoms: C_1  and  C_2
REMARK    2  A    between atoms: N_4  and  C_5
REMARK    3  A    between atoms: C_5  and  N_6
REMARK    4  A    between atoms: C_7  and  C_8
REMARK    5  A    between atoms: N_12  and  C_13
REMARK    6  A    between atoms: C_14  and  C_15
REMARK    7  A    between atoms: C_21  and  C_22
REMARK                            x       y       z     vdW  Elec       q    Type
REMARK                         _______ _______ _______ _____ _____    ______ ____
ROOT
ATOM      1  C   UNL     1       5.546   5.011  17.685  0.00  0.00    +0.000 C 
ATOM      2  C   UNL     1       4.714   3.709  17.684  0.00  0.00    +0.000 C 
ATOM      3  C   UNL     1       3.724   3.640  18.837  0.00  0.00    +0.000 C 
ATOM      4  N   UNL     1       2.772   4.750  18.823  0.00  0.00    +0.000 NA
ATOM      5  C   UNL     1       1.788   4.575  17.760  0.00  0.00    +0.000 C 
ATOM      6  C   UNL     1       3.480   6.054  18.885  0.00  0.00    +0.000 C 
ATOM      7  C   UNL     1       4.649   6.299  17.862  0.00  0.00    +0.000 C 
ATOM      8  C   UNL     1       4.228   6.967  16.548  0.00  0.00    +0.000 C 
ENDROOT
BRANCH   6   9
ATOM      9  C   UNL     1       2.558   7.263  19.121  0.00  0.00    +0.000 A 
ATOM     10  C   UNL     1       2.288   8.154  18.069  0.00  0.00    +0.000 A 
ATOM     11  C   UNL     1       1.451   9.262  18.252  0.00  0.00    +0.000 A 
ATOM     12  C   UNL     1       0.872   9.506  19.494  0.00  0.00    +0.000 A 
ATOM     13  C   UNL     1       1.118   8.635  20.549  0.00  0.00    +0.000 A 
ATOM     14  C   UNL     1       1.942   7.522  20.359  0.00  0.00    +0.000 A 
ENDBRANCH   6   9
BRANCH   1  18
ATOM     15  C   UNL     1       8.329   5.412  20.296  0.00  0.00    +0.000 C 
ATOM     16  C   UNL     1       7.553   5.752  19.054  0.00  0.00    +0.000 C 
ATOM     17  O   UNL     1       7.884   6.648  18.285  0.00  0.00    +0.000 OA
ATOM     18  N   UNL     1       6.489   4.910  18.828  0.00  0.00    +0.000 N 
ATOM     19  H   UNL     1       6.320   4.183  19.508  0.00  0.00    +0.000 HD
ENDBRANCH   1  18
BRANCH   1  20
ATOM     20  N   UNL     1       6.421   5.057  16.506  0.00  0.00    +0.000 N 
ATOM     21  C   UNL     1       6.125   4.645  15.228  0.00  0.00    +0.000 C 
ATOM     22  C   UNL     1       7.246   4.842  14.243  0.00  0.00    +0.000 C 
ATOM     23  O   UNL     1       5.075   4.113  14.886  0.00  0.00    +0.000 OA
ATOM     24  H   UNL     1       7.174   5.732  16.602  0.00  0.00    +0.000 HD
ENDBRANCH   1  20
TORSDOF 3
ENDMDL
MODEL 5
REMARK VINA RESULT:      -6.4      1.393      1.454
REMARK  Name = 
REMARK  7 active torsions:
REMARK  status: ('A' for Active; 'I' for Inactive)
REMARK    1  A    between atoms: C_1  and  C_2
REMARK    2  A    between atoms: N_4  and  C_5
REMARK    3  A    between atoms: C_5  and  N_6
REMARK    4  A    between atoms: C_7  and  C_8
REMARK    5  A    between atoms: N_12  and  C_13
REMARK    6  A    between atoms: C_14  and  C_15
REMARK    7  A    between atoms: C_21  and  C_22
REMARK                            x       y       z     vdW  Elec       q    Type
REMARK                         _______ _______ _______ _____ _____    ______ ____
ROOT
ATOM      1  C   UNL     1       4.712   4.705  18.275  0.00  0.00    +0.000 C 
ATOM      2  C   UNL     1       5.918   5.262  19.065  0.00  0.00    +0.000 C 
ATOM      3  C   UNL     1       7.249   4.711  18.579  0.00  0.00    +0.000 C 
ATOM      4  N   UNL     1       7.495   5.008  17.168  0.00  0.00    +0.000 NA
ATOM      5  C   UNL     1       7.832   6.416  16.987  0.00  0.00    +0.000 C 
ATOM      6  C   UNL     1       6.414   4.453  16.315  0.00  0.00    +0.000 C 
ATOM      7  C   UNL     1       4.929   4.785  16.712  0.00  0.00    +0.000 C 
ATOM      8  C   UNL     1       4.349   6.042  16.053  0.00  0.00    +0.000 C 
ENDROOT
BRANCH   6   9
ATOM      9  C   UNL     1       6.710   4.503  14.806  0.00  0.00    +0.000 A 
ATOM     10  C   UNL     1       6.012   3.658  13.926  0.00  0.00    +0.000 A 
ATOM     11  C   UNL     1       6.258   3.683  12.548  0.00  0.00    +0.000 A 
ATOM     12  C   UNL     1       7.214   4.547  12.021  0.00  0.00    +0.000 A 
ATOM     13  C   UNL     1       7.912   5.398  12.870  0.00  0.00    +0.000 A 
ATOM     14  C   UNL     1       7.654   5.381  14.243  0.00  0.00    +0.000 A 
ENDBRANCH   6   9
BRANCH   1  18
ATOM     15  C   UNL     1       3.720   1.031  18.763  0.00  0.00    +0.000 C 
ATOM     16  C   UNL     1       3.626   2.411  18.175  0.00  0.00    +0.000 C 
ATOM     17  O   UNL     1       2.752   2.741  17.380  0.00  0.00    +0.000 OA
ATOM     18  N   UNL     1       4.565   3.283  18.677  0.00  0.00    +0.000 N 
ATOM     19  H   UNL     1       5.222   2.919  19.351  0.00  0.00    +0.000 HD
ENDBRANCH   1  18
BRANCH   1  20
ATOM     20  N   UNL     1       3.467   5.335  18.733  0.00  0.00    +0.000 N 
ATOM     21  C   UNL     1       2.857   5.190  19.957  0.00  0.00    +0.000 C 
ATOM     22  C   UNL     1       1.591   5.991  20.111  0.00  0.00    +0.000 C 
ATOM     23  O   UNL     1       3.245   4.449  20.853  0.00  0.00    +0.000 OA
ATOM     24  H   UNL     1       3.235   6.172  18.206  0.00  0.00    +0.000 HD
ENDBRANCH   1  20
TORSDOF 3
ENDMDL
MODEL 6
REMARK VINA RESULT:      -6.3      0.958      1.367
REMARK  Name = 
REMARK  7 active torsions:
REMARK  status: ('A' for Active; 'I' for Inactive)
REMARK    1  A    between atoms: C_1  and  C_2
REMARK    2  A    between atoms: N_4  and  C_5
REMARK    3  A    between atoms: C_5  and  N_6
REMARK    4  A    between atoms: C_7  and  C_8
REMARK    5  A    between atoms: N_12  and  C_13
REMARK    6  A    between atoms: C_14  and  C_15
REMARK    7  A    between atoms: C_21  and  C_22
REMARK                            x       y       z     vdW  Elec       q    Type
REMARK                         _______ _______ _______ _____ _____    ______ ____
ROOT
ATOM      1  C   UNL     1       3.899   5.727  18.336  0.00  0.00    +0.000 C 
ATOM      2  C   UNL     1       4.978   5.283  19.350  0.00  0.00    +0.000 C 
ATOM      3  C   UNL     1       5.690   4.005  18.933  0.00  0.00    +0.000 C 
ATOM      4  N   UNL     1       6.354   4.134  17.636  0.00  0.00    +0.000 NA
ATOM      5  C   UNL     1       7.556   4.953  17.750  0.00  0.00    +0.000 C 
ATOM      6  C   UNL     1       5.381   4.499  16.577  0.00  0.00    +0.000 C 
ATOM      7  C   UNL     1       4.432   5.724  16.850  0.00  0.00    +0.000 C 
ATOM      8  C   UNL     1       4.966   7.076  16.362  0.00  0.00    +0.000 C 
ENDROOT
BRANCH   6   9
ATOM      9  C   UNL     1       5.942   4.417  15.147  0.00  0.00    +0.000 A 
ATOM     10  C   UNL     1       5.253   3.685  14.164  0.00  0.00    +0.000 A 
ATOM     11  C   UNL     1       5.738   3.595  12.854  0.00  0.00    +0.000 A 
ATOM     12  C   UNL     1       6.926   4.226  12.500  0.00  0.00    +0.000 A 
ATOM     13  C   UNL     1       7.622   4.962  13.451  0.00  0.00    +0.000 A 
ATOM     14  C   UNL     1       7.128   5.063  14.755  0.00  0.00    +0.000 A 
ENDBRANCH   6   9
BRANCH   1  18
ATOM     15  C   UNL     1       0.989   3.479  19.431  0.00  0.00    +0.000 C 
ATOM     16  C   UNL     1       2.073   4.505  19.610  0.00  0.00    +0.000 C 
ATOM     17  O   UNL     1       2.341   5.011  20.695  0.00  0.00    +0.000 OA
ATOM     18  N   UNL     1       2.781   4.758  18.457  0.00  0.00    +0.000 N 
ATOM     19  H   UNL     1       2.498   4.265  17.623  0.00  0.00    +0.000 HD
ENDBRANCH   1  18
BRANCH   1  20
ATOM     20  N   UNL     1       3.308   7.006  18.750  0.00  0.00    +0.000 N 
ATOM     21  C   UNL     1       2.166   7.598  18.263  0.00  0.00    +0.000 C 
ATOM     22  C   UNL     1       1.826   8.911  18.917  0.00  0.00    +0.000 C 
ATOM     23  O   UNL     1       1.482   7.156  17.347  0.00  0.00    +0.000 OA
ATOM     24  H   UNL     1       3.609   7.296  19.676  0.00  0.00    +0.000 HD
ENDBRANCH   1  20
TORSDOF 3
ENDMDL
MODEL 7
REMARK VINA RESULT:      -6.3      0.970      1.715
REMARK  Name = 
REMARK  7 active torsions:
REMARK  status: ('A' for Active; 'I' for Inactive)
REMARK    1  A    between atoms: C_1  and  C_2
REMARK    2  A    between atoms: N_4  and  C_5
REMARK    3  A    between atoms: C_5  and  N_6
REMARK    4  A    between atoms: C_7  and  C_8
REMARK    5  A    between atoms: N_12  and  C_13
REMARK    6  A    between atoms: C_14  and  C_15
REMARK    7  A    between atoms: C_21  and  C_22
REMARK                            x       y       z     vdW  Elec       q    Type
REMARK                         _______ _______ _______ _____ _____    ______ ____
ROOT
ATOM      1  C   UNL     1       3.907   5.730  18.297  0.00  0.00    +0.000 C 
ATOM      2  C   UNL     1       4.993   5.285  19.303  0.00  0.00    +0.000 C 
ATOM      3  C   UNL     1       5.692   3.999  18.887  0.00  0.00    +0.000 C 
ATOM      4  N   UNL     1       6.345   4.116  17.583  0.00  0.00    +0.000 NA
ATOM      5  C   UNL     1       7.554   4.927  17.680  0.00  0.00    +0.000 C 
ATOM      6  C   UNL     1       5.364   4.481  16.531  0.00  0.00    +0.000 C 
ATOM      7  C   UNL     1       4.426   5.714  16.805  0.00  0.00    +0.000 C 
ATOM      8  C   UNL     1       4.965   7.059  16.304  0.00  0.00    +0.000 C 
ENDROOT
BRANCH   6   9
ATOM      9  C   UNL     1       5.911   4.387  15.096  0.00  0.00    +0.000 A 
ATOM     10  C   UNL     1       7.105   5.046  14.756  0.00  0.00    +0.000 A 
ATOM     11  C   UNL     1       7.629   4.975  13.459  0.00  0.00    +0.000 A 
ATOM     12  C   UNL     1       6.965   4.252  12.473  0.00  0.00    +0.000 A 
ATOM     13  C   UNL     1       5.787   3.585  12.786  0.00  0.00    +0.000 A 
ATOM     14  C   UNL     1       5.274   3.645  14.085  0.00  0.00    +0.000 A 
ENDBRANCH   6   9
BRANCH   1  18
ATOM     15  C   UNL     1       1.001   3.500  19.437  0.00  0.00    +0.000 C 
ATOM     16  C   UNL     1       2.096   4.517  19.599  0.00  0.00    +0.000 C 
ATOM     17  O   UNL     1       2.389   5.015  20.681  0.00  0.00    +0.000 OA
ATOM     18  N   UNL     1       2.784   4.770  18.435  0.00  0.00    +0.000 N 
ATOM     19  H   UNL     1       2.482   4.283  17.603  0.00  0.00    +0.000 HD
ENDBRANCH   1  18
BRANCH   1  20
ATOM     20  N   UNL     1       3.329   7.016  18.709  0.00  0.00    +0.000 N 
ATOM     21  C   UNL     1       2.180   7.606  18.239  0.00  0.00    +0.000 C 
ATOM     22  C   UNL     1       1.858   8.928  18.884  0.00  0.00    +0.000 C 
ATOM     23  O   UNL     1       1.475   7.157  17.341  0.00  0.00    +0.000 OA
ATOM     24  H   UNL     1       3.651   7.315  19.625  0.00  0.00    +0.000 HD
ENDBRANCH   1  20
TORSDOF 3
ENDMDL
MODEL 8
REMARK VINA RESULT:      -6.2      1.397      1.779
REMARK  Name = 
REMARK  7 active torsions:
REMARK  status: ('A' for Active; 'I' for Inactive)
REMARK    1  A    between atoms: C_1  and  C_2
REMARK    2  A    between atoms: N_4  and  C_5
REMARK    3  A    between atoms: C_5  and  N_6
REMARK    4  A    between atoms: C_7  and  C_8
REMARK    5  A    between atoms: N_12  and  C_13
REMARK    6  A    between atoms: C_14  and  C_15
REMARK    7  A    between atoms: C_21  and  C_22
REMARK                            x       y       z     vdW  Elec       q    Type
REMARK                         _______ _______ _______ _____ _____    ______ ____
ROOT
ATOM      1  C   UNL     1       4.716   4.703  18.250  0.00  0.00    +0.000 C 
ATOM      2  C   UNL     1       5.930   5.258  19.030  0.00  0.00    +0.000 C 
ATOM      3  C   UNL     1       7.256   4.700  18.535  0.00  0.00    +0.000 C 
ATOM      4  N   UNL     1       7.492   4.993  17.121  0.00  0.00    +0.000 NA
ATOM      5  C   UNL     1       7.833   6.399  16.934  0.00  0.00    +0.000 C 
ATOM      6  C   UNL     1       6.402   4.440  16.278  0.00  0.00    +0.000 C 
ATOM      7  C   UNL     1       4.921   4.778  16.686  0.00  0.00    +0.000 C 
ATOM      8  C   UNL     1       4.342   6.036  16.027  0.00  0.00    +0.000 C 
ENDROOT
BRANCH   6   9
ATOM      9  C   UNL     1       6.688   4.485  14.767  0.00  0.00    +0.000 A 
ATOM     10  C   UNL     1       7.666   5.360  14.264  0.00  0.00    +0.000 A 
ATOM     11  C   UNL     1       7.949   5.422  12.894  0.00  0.00    +0.000 A 
ATOM     12  C   UNL     1       7.256   4.615  11.997  0.00  0.00    +0.000 A 
ATOM     13  C   UNL     1       6.289   3.736  12.471  0.00  0.00    +0.000 A 
ATOM     14  C   UNL     1       6.018   3.666  13.840  0.00  0.00    +0.000 A 
ENDBRANCH   6   9
BRANCH   1  18
ATOM     15  C   UNL     1       3.710   1.035  18.758  0.00  0.00    +0.000 C 
ATOM     16  C   UNL     1       3.616   2.415  18.169  0.00  0.00    +0.000 C 
ATOM     17  O   UNL     1       2.734   2.748  17.384  0.00  0.00    +0.000 OA
ATOM     18  N   UNL     1       4.566   3.283  18.657  0.00  0.00    +0.000 N 
ATOM     19  H   UNL     1       5.230   2.917  19.323  0.00  0.00    +0.000 HD
ENDBRANCH   1  18
BRANCH   1  20
ATOM     20  N   UNL     1       3.478   5.340  18.716  0.00  0.00    +0.000 N 
ATOM     21  C   UNL     1       2.875   5.199  19.943  0.00  0.00    +0.000 C 
ATOM     22  C   UNL     1       1.613   6.005  20.106  0.00  0.00    +0.000 C 
ATOM     23  O   UNL     1       3.266   4.457  20.838  0.00  0.00    +0.000 OA
ATOM     24  H   UNL     1       3.245   6.176  18.189  0.00  0.00    +0.000 HD
ENDBRANCH   1  20
TORSDOF 3
ENDMDL
MODEL 9
REMARK VINA RESULT:      -5.9      1.904      2.853
REMARK  Name = 
REMARK  7 active torsions:
REMARK  status: ('A' for Active; 'I' for Inactive)
REMARK    1  A    between atoms: C_1  and  C_2
REMARK    2  A    between atoms: N_4  and  C_5
REMARK    3  A    between atoms: C_5  and  N_6
REMARK    4  A    between atoms: C_7  and  C_8
REMARK    5  A    between atoms: N_12  and  C_13
REMARK    6  A    between atoms: C_14  and  C_15
REMARK    7  A    between atoms: C_21  and  C_22
REMARK                            x       y       z     vdW  Elec       q    Type
REMARK                         _______ _______ _______ _____ _____    ______ ____
ROOT
ATOM      1  C   UNL     1       4.265   3.742  18.717  0.00  0.00    +0.000 C 
ATOM      2  C   UNL     1       4.833   4.981  19.447  0.00  0.00    +0.000 C 
ATOM      3  C   UNL     1       6.286   5.261  19.093  0.00  0.00    +0.000 C 
ATOM      4  N   UNL     1       6.478   5.488  17.661  0.00  0.00    +0.000 NA
ATOM      5  C   UNL     1       5.966   6.798  17.272  0.00  0.00    +0.000 C 
ATOM      6  C   UNL     1       6.017   4.317  16.874  0.00  0.00    +0.000 C 
ATOM      7  C   UNL     1       4.575   3.761  17.169  0.00  0.00    +0.000 C 
ATOM      8  C   UNL     1       3.462   4.362  16.304  0.00  0.00    +0.000 C 
ENDROOT
BRANCH   6   9
ATOM      9  C   UNL     1       6.403   4.364  15.385  0.00  0.00    +0.000 A 
ATOM     10  C   UNL     1       5.720   3.558  14.458  0.00  0.00    +0.000 A 
ATOM     11  C   UNL     1       6.048   3.582  13.096  0.00  0.00    +0.000 A 
ATOM     12  C   UNL     1       7.070   4.405  12.635  0.00  0.00    +0.000 A 
ATOM     13  C   UNL     1       7.755   5.217  13.531  0.00  0.00    +0.000 A 
ATOM     14  C   UNL     1       7.417   5.203  14.886  0.00  0.00    +0.000 A 
ENDBRANCH   6   9
BRANCH   1  18
ATOM     15  C   UNL     1       5.408   0.816  20.920  0.00  0.00    +0.000 C 
ATOM     16  C   UNL     1       4.589   2.024  20.559  0.00  0.00    +0.000 C 
ATOM     17  O   UNL     1       3.765   2.523  21.318  0.00  0.00    +0.000 OA
ATOM     18  N   UNL     1       4.913   2.557  19.332  0.00  0.00    +0.000 N 
ATOM     19  H   UNL     1       5.628   2.087  18.797  0.00  0.00    +0.000 HD
ENDBRANCH   1  18
BRANCH   1  20
ATOM     20  N   UNL     1       2.841   3.574  19.034  0.00  0.00    +0.000 N 
ATOM     21  C   UNL     1       2.011   2.551  18.642  0.00  0.00    +0.000 C 
ATOM     22  C   UNL     1       0.600   2.673  19.151  0.00  0.00    +0.000 C 
ATOM     23  O   UNL     1       2.335   1.627  17.903  0.00  0.00    +0.000 OA
ATOM     24  H   UNL     1       2.558   4.097  19.858  0.00  0.00    +0.000 HD
ENDBRANCH   1  20
TORSDOF 3
ENDMDL
