MODEL 1
REMARK VINA RESULT:      -9.0      0.000      0.000
REMARK  Name = 
REMARK  4 active torsions:
REMARK  status: ('A' for Active; 'I' for Inactive)
REMARK    1  A    between atoms: C_1  and  C_2
REMARK    2  A    between atoms: C_2  and  C_4
REMARK    3  A    between atoms: C_5  and  C_6
REMARK    4  A    between atoms: N_21  and  C_22
REMARK                            x       y       z     vdW  Elec       q    Type
REMARK                         _______ _______ _______ _____ _____    ______ ____
ROOT
ATOM      1  C   UNL     1       2.104   5.440  18.941  0.00  0.00    +0.000 C 
ATOM      2  C   UNL     1       2.872   4.917  17.691  0.00  0.00    +0.000 C 
ATOM      3  C   UNL     1       2.262   3.482  17.460  0.00  0.00    +0.000 C 
ATOM      4  C   UNL     1       2.237   2.593  18.734  0.00  0.00    +0.000 C 
ATOM      5  C   UNL     1       0.916   2.527  19.515  0.00  0.00    +0.000 C 
ATOM      6  C   UNL     1       0.917   3.760  20.423  0.00  0.00    +0.000 C 
ATOM      7  C   UNL     1       2.272   4.420  20.146  0.00  0.00    +0.000 C 
ATOM      8  N   UNL     1       3.095   3.275  19.694  0.00  0.00    +0.000 NA
ATOM      9  C   UNL     1       3.681   2.404  20.691  0.00  0.00    +0.000 C 
ENDROOT
BRANCH   2  10
ATOM     10  C   UNL     1       4.426   5.030  17.780  0.00  0.00    +0.000 A 
ATOM     11  C   UNL     1       5.051   5.374  19.006  0.00  0.00    +0.000 A 
ATOM     12  C   UNL     1       6.427   5.479  19.166  0.00  0.00    +0.000 A 
ATOM     13  C   UNL     1       7.244   5.272  18.075  0.00  0.00    +0.000 A 
ATOM     14  C   UNL     1       6.696   4.966  16.827  0.00  0.00    +0.000 A 
ATOM     15  C   UNL     1       7.570   4.804  15.748  0.00  0.00    +0.000 A 
ATOM     16  C   UNL     1       7.088   4.534  14.477  0.00  0.00    +0.000 A 
ATOM     17  C   UNL     1       5.722   4.414  14.274  0.00  0.00    +0.000 A 
ATOM     18  C   UNL     1       4.830   4.563  15.347  0.00  0.00    +0.000 A 
ATOM     19  C   UNL     1       5.282   4.841  16.655  0.00  0.00    +0.000 A 
ENDBRANCH   2  10
BRANCH   1  21
ATOM     20  C   UNL     1       2.535   7.843  17.959  0.00  0.00    +0.000 C 
ATOM     21  C   UNL     1       2.314   6.947  19.146  0.00  0.00    +0.000 C 
ATOM     22  O   UNL     1       2.382   7.426  20.286  0.00  0.00    +0.000 OA
ENDBRANCH   1  21
TORSDOF 2
ENDMDL
MODEL 2
REMARK VINA RESULT:      -7.9      2.173      5.574
REMARK  Name = 
REMARK  4 active torsions:
REMARK  status: ('A' for Active; 'I' for Inactive)
REMARK    1  A    between atoms: C_1  and  C_2
REMARK    2  A    between atoms: C_2  and  C_4
REMARK    3  A    between atoms: C_5  and  C_6
REMARK    4  A    between atoms: N_21  and  C_22
REMARK                            x       y       z     vdW  Elec       q    Type
REMARK                         _______ _______ _______ _____ _____    ______ ____
ROOT
ATOM      1  C   UNL     1       4.329   4.321  17.068  0.00  0.00    +0.000 C 
ATOM      2  C   UNL     1       3.671   5.731  17.117  0.00  0.00    +0.000 C 
ATOM      3  C   UNL     1       4.810   6.684  16.587  0.00  0.00    +0.000 C 
ATOM      4  C   UNL     1       6.180   6.487  17.292  0.00  0.00    +0.000 C 
ATOM      5  C   UNL     1       7.215   5.607  16.574  0.00  0.00    +0.000 C 
ATOM      6  C   UNL     1       6.857   4.166  16.950  0.00  0.00    +0.000 C 
ATOM      7  C   UNL     1       5.673   4.320  17.912  0.00  0.00    +0.000 C 
ATOM      8  N   UNL     1       5.892   5.675  18.467  0.00  0.00    +0.000 NA
ATOM      9  C   UNL     1       6.841   5.839  19.549  0.00  0.00    +0.000 C 
ENDROOT
BRANCH   2  10
ATOM     10  C   UNL     1       3.005   6.099  18.480  0.00  0.00    +0.000 A 
ATOM     11  C   UNL     1       2.935   5.142  19.525  0.00  0.00    +0.000 A 
ATOM     12  C   UNL     1       2.371   5.400  20.768  0.00  0.00    +0.000 A 
ATOM     13  C   UNL     1       1.815   6.639  21.006  0.00  0.00    +0.000 A 
ATOM     14  C   UNL     1       1.815   7.618  20.008  0.00  0.00    +0.000 A 
ATOM     15  C   UNL     1       1.202   8.843  20.292  0.00  0.00    +0.000 A 
ATOM     16  C   UNL     1       1.137   9.844  19.335  0.00  0.00    +0.000 A 
ATOM     17  C   UNL     1       1.693   9.631  18.083  0.00  0.00    +0.000 A 
ATOM     18  C   UNL     1       2.321   8.411  17.784  0.00  0.00    +0.000 A 
ATOM     19  C   UNL     1       2.405   7.368  18.731  0.00  0.00    +0.000 A 
ENDBRANCH   2  10
BRANCH   1  21
ATOM     20  C   UNL     1       3.639   1.965  18.016  0.00  0.00    +0.000 C 
ATOM     21  C   UNL     1       3.289   3.203  17.239  0.00  0.00    +0.000 C 
ATOM     22  O   UNL     1       2.188   3.274  16.676  0.00  0.00    +0.000 OA
ENDBRANCH   1  21
TORSDOF 2
ENDMDL
MODEL 3
REMARK VINA RESULT:      -7.7      1.944      5.301
REMARK  Name = 
REMARK  4 active torsions:
REMARK  status: ('A' for Active; 'I' for Inactive)
REMARK    1  A    between atoms: C_1  and  C_2
REMARK    2  A    between atoms: C_2  and  C_4
REMARK    3  A    between atoms: C_5  and  C_6
REMARK    4  A    between atoms: N_21  and  C_22
REMARK                            x       y       z     vdW  Elec       q    Type
REMARK                         _______ _______ _______ _____ _____    ______ ____
ROOT
ATOM      1  C   UNL     1       4.112   4.327  19.363  0.00  0.00    +0.000 C 
ATOM      2  C   UNL     1       3.276   5.376  20.153  0.00  0.00    +0.000 C 
ATOM      3  C   UNL     1       2.111   4.518  20.780  0.00  0.00    +0.000 C 
ATOM      4  C   UNL     1       1.375   3.608  19.758  0.00  0.00    +0.000 C 
ATOM      5  C   UNL     1       1.808   2.135  19.695  0.00  0.00    +0.000 C 
ATOM      6  C   UNL     1       3.033   2.109  18.777  0.00  0.00    +0.000 C 
ATOM      7  C   UNL     1       3.185   3.565  18.324  0.00  0.00    +0.000 C 
ATOM      8  N   UNL     1       1.803   4.080  18.447  0.00  0.00    +0.000 NA
ATOM      9  C   UNL     1       0.861   3.807  17.382  0.00  0.00    +0.000 C 
ENDROOT
BRANCH   2  10
ATOM     10  C   UNL     1       2.873   6.645  19.338  0.00  0.00    +0.000 A 
ATOM     11  C   UNL     1       3.428   6.877  18.053  0.00  0.00    +0.000 A 
ATOM     12  C   UNL     1       3.108   7.974  17.263  0.00  0.00    +0.000 A 
ATOM     13  C   UNL     1       2.228   8.916  17.753  0.00  0.00    +0.000 A 
ATOM     14  C   UNL     1       1.671   8.771  19.027  0.00  0.00    +0.000 A 
ATOM     15  C   UNL     1       0.815   9.776  19.488  0.00  0.00    +0.000 A 
ATOM     16  C   UNL     1       0.257   9.709  20.754  0.00  0.00    +0.000 A 
ATOM     17  C   UNL     1       0.546   8.628  21.574  0.00  0.00    +0.000 A 
ATOM     18  C   UNL     1       1.394   7.605  21.124  0.00  0.00    +0.000 A 
ATOM     19  C   UNL     1       1.983   7.638  19.842  0.00  0.00    +0.000 A 
ENDBRANCH   2  10
BRANCH   1  21
ATOM     20  C   UNL     1       6.003   4.622  17.556  0.00  0.00    +0.000 C 
ATOM     21  C   UNL     1       5.476   4.892  18.938  0.00  0.00    +0.000 C 
ATOM     22  O   UNL     1       6.186   5.504  19.747  0.00  0.00    +0.000 OA
ENDBRANCH   1  21
TORSDOF 2
ENDMDL
MODEL 4
REMARK VINA RESULT:      -6.9      1.958      5.699
REMARK  Name = 
REMARK  4 active torsions:
REMARK  status: ('A' for Active; 'I' for Inactive)
REMARK    1  A    between atoms: C_1  and  C_2
REMARK    2  A    between atoms: C_2  and  C_4
REMARK    3  A    between atoms: C_5  and  C_6
REMARK    4  A    between atoms: N_21  and  C_22
REMARK                            x       y       z     vdW  Elec       q    Type
REMARK                         _______ _______ _______ _____ _____    ______ ____
ROOT
ATOM      1  C   UNL     1       6.845   5.061  17.622  0.00  0.00    +0.000 C 
ATOM      2  C   UNL     1       5.554   4.240  17.907  0.00  0.00    +0.000 C 
ATOM      3  C   UNL     1       5.333   3.430  16.573  0.00  0.00    +0.000 C 
ATOM      4  C   UNL     1       5.382   4.302  15.288  0.00  0.00    +0.000 C 
ATOM      5  C   UNL     1       6.708   4.330  14.512  0.00  0.00    +0.000 C 
ATOM      6  C   UNL     1       7.569   5.384  15.214  0.00  0.00    +0.000 C 
ATOM      7  C   UNL     1       6.653   5.936  16.312  0.00  0.00    +0.000 C 
ATOM      8  N   UNL     1       5.305   5.679  15.757  0.00  0.00    +0.000 NA
ATOM      9  C   UNL     1       4.763   6.607  14.786  0.00  0.00    +0.000 C 
ENDROOT
BRANCH   2  10
ATOM     10  C   UNL     1       4.350   5.073  18.447  0.00  0.00    +0.000 A 
ATOM     11  C   UNL     1       4.230   6.450  18.126  0.00  0.00    +0.000 A 
ATOM     12  C   UNL     1       3.181   7.253  18.556  0.00  0.00    +0.000 A 
ATOM     13  C   UNL     1       2.210   6.705  19.369  0.00  0.00    +0.000 A 
ATOM     14  C   UNL     1       2.285   5.364  19.757  0.00  0.00    +0.000 A 
ATOM     15  C   UNL     1       1.295   4.873  20.613  0.00  0.00    +0.000 A 
ATOM     16  C   UNL     1       1.330   3.563  21.062  0.00  0.00    +0.000 A 
ATOM     17  C   UNL     1       2.356   2.725  20.652  0.00  0.00    +0.000 A 
ATOM     18  C   UNL     1       3.353   3.198  19.784  0.00  0.00    +0.000 A 
ATOM     19  C   UNL     1       3.352   4.526  19.307  0.00  0.00    +0.000 A 
ENDBRANCH   2  10
BRANCH   1  21
ATOM     20  C   UNL     1       8.203   6.959  18.838  0.00  0.00    +0.000 C 
ATOM     21  C   UNL     1       7.421   5.678  18.906  0.00  0.00    +0.000 C 
ATOM     22  O   UNL     1       7.316   5.090  19.991  0.00  0.00    +0.000 OA
ENDBRANCH   1  21
TORSDOF 2
ENDMDL
MODEL 5
REMARK VINA RESULT:      -6.7      1.682      5.522
REMARK  Name = 
REMARK  4 active torsions:
REMARK  status: ('A' for Active; 'I' for Inactive)
REMARK    1  A    between atoms: C_1  and  C_2
REMARK    2  A    between atoms: C_2  and  C_4
REMARK    3  A    between atoms: C_5  and  C_6
REMARK    4  A    between atoms: N_21  and  C_22
REMARK                            x       y       z     vdW  Elec       q    Type
REMARK                         _______ _______ _______ _____ _____    ______ ____
ROOT
ATOM      1  C   UNL     1       4.640   6.924  18.039  0.00  0.00    +0.000 C 
ATOM      2  C   UNL     1       4.557   5.792  19.104  0.00  0.00    +0.000 C 
ATOM      3  C   UNL     1       6.068   5.446  19.389  0.00  0.00    +0.000 C 
ATOM      4  C   UNL     1       6.912   5.192  18.109  0.00  0.00    +0.000 C 
ATOM      5  C   UNL     1       7.755   6.364  17.585  0.00  0.00    +0.000 C 
ATOM      6  C   UNL     1       6.798   7.210  16.740  0.00  0.00    +0.000 C 
ATOM      7  C   UNL     1       5.479   6.429  16.786  0.00  0.00    +0.000 C 
ATOM      8  N   UNL     1       5.940   5.045  17.034  0.00  0.00    +0.000 NA
ATOM      9  C   UNL     1       6.410   4.257  15.913  0.00  0.00    +0.000 C 
ENDROOT
BRANCH   2  10
ATOM     10  C   UNL     1       3.608   4.608  18.733  0.00  0.00    +0.000 A 
ATOM     11  C   UNL     1       3.428   4.232  17.377  0.00  0.00    +0.000 A 
ATOM     12  C   UNL     1       2.614   3.183  16.971  0.00  0.00    +0.000 A 
ATOM     13  C   UNL     1       1.908   2.477  17.923  0.00  0.00    +0.000 A 
ATOM     14  C   UNL     1       2.008   2.817  19.275  0.00  0.00    +0.000 A 
ATOM     15  C   UNL     1       1.240   2.093  20.192  0.00  0.00    +0.000 A 
ATOM     16  C   UNL     1       1.267   2.402  21.542  0.00  0.00    +0.000 A 
ATOM     17  C   UNL     1       2.072   3.438  21.992  0.00  0.00    +0.000 A 
ATOM     18  C   UNL     1       2.857   4.169  21.087  0.00  0.00    +0.000 A 
ATOM     19  C   UNL     1       2.855   3.886  19.705  0.00  0.00    +0.000 A 
ENDBRANCH   2  10
BRANCH   1  21
ATOM     20  C   UNL     1       2.289   7.644  18.978  0.00  0.00    +0.000 C 
ATOM     21  C   UNL     1       3.288   7.630  17.855  0.00  0.00    +0.000 C 
ATOM     22  O   UNL     1       2.977   8.124  16.763  0.00  0.00    +0.000 OA
ENDBRANCH   1  21
TORSDOF 2
ENDMDL
MODEL 6
REMARK VINA RESULT:      -6.4      7.965     10.159
REMARK  Name = 
REMARK  4 active torsions:
REMARK  status: ('A' for Active; 'I' for Inactive)
REMARK    1  A    between atoms: C_1  and  C_2
REMARK    2  A    between atoms: C_2  and  C_4
REMARK    3  A    between atoms: C_5  and  C_6
REMARK    4  A    between atoms: N_21  and  C_22
REMARK                            x       y       z     vdW  Elec       q    Type
REMARK                         _______ _______ _______ _____ _____    ______ ____
ROOT
ATOM      1  C   UNL     1       0.486  11.678  21.004  0.00  0.00    +0.000 C 
ATOM      2  C   UNL     1      -0.130  11.120  19.688  0.00  0.00    +0.000 C 
ATOM      3  C   UNL     1       0.916  11.542  18.586  0.00  0.00    +0.000 C 
ATOM      4  C   UNL     1       1.314  13.043  18.634  0.00  0.00    +0.000 C 
ATOM      5  C   UNL     1       2.623  13.397  19.358  0.00  0.00    +0.000 C 
ATOM      6  C   UNL     1       2.256  13.486  20.843  0.00  0.00    +0.000 C 
ATOM      7  C   UNL     1       0.743  13.238  20.864  0.00  0.00    +0.000 C 
ATOM      8  N   UNL     1       0.333  13.672  19.509  0.00  0.00    +0.000 NA
ATOM      9  C   UNL     1       0.136  15.085  19.261  0.00  0.00    +0.000 C 
ENDROOT
BRANCH   2  10
ATOM     10  C   UNL     1      -1.623  11.507  19.444  0.00  0.00    +0.000 A 
ATOM     11  C   UNL     1      -2.340  12.244  20.422  0.00  0.00    +0.000 A 
ATOM     12  C   UNL     1      -3.664  12.637  20.270  0.00  0.00    +0.000 A 
ATOM     13  C   UNL     1      -4.343  12.271  19.127  0.00  0.00    +0.000 A 
ATOM     14  C   UNL     1      -3.710  11.512  18.139  0.00  0.00    +0.000 A 
ATOM     15  C   UNL     1      -4.459  11.136  17.020  0.00  0.00    +0.000 A 
ATOM     16  C   UNL     1      -3.901  10.355  16.021  0.00  0.00    +0.000 A 
ATOM     17  C   UNL     1      -2.581   9.946  16.128  0.00  0.00    +0.000 A 
ATOM     18  C   UNL     1      -1.811  10.322  17.240  0.00  0.00    +0.000 A 
ATOM     19  C   UNL     1      -2.344  11.115  18.279  0.00  0.00    +0.000 A 
ENDBRANCH   2  10
BRANCH   1  21
ATOM     20  C   UNL     1      -0.451   9.621  22.352  0.00  0.00    +0.000 C 
ATOM     21  C   UNL     1      -0.210  11.101  22.246  0.00  0.00    +0.000 C 
ATOM     22  O   UNL     1      -0.649  11.850  23.129  0.00  0.00    +0.000 OA
ENDBRANCH   1  21
TORSDOF 2
ENDMDL
MODEL 7
REMARK VINA RESULT:      -6.2      7.570     10.060
REMARK  Name = 
REMARK  4 active torsions:
REMARK  status: ('A' for Active; 'I' for Inactive)
REMARK    1  A    between atoms: C_1  and  C_2
REMARK    2  A    between atoms: C_2  and  C_4
REMARK    3  A    between atoms: C_5  and  C_6
REMARK    4  A    between atoms: N_21  and  C_22
REMARK                            x       y       z     vdW  Elec       q    Type
REMARK                         _______ _______ _______ _____ _____    ______ ____
ROOT
ATOM      1  C   UNL     1      -1.049  14.045  21.060  0.00  0.00    +0.000 C 
ATOM      2  C   UNL     1      -2.059  13.289  20.147  0.00  0.00    +0.000 C 
ATOM      3  C   UNL     1      -3.279  13.009  21.105  0.00  0.00    +0.000 C 
ATOM      4  C   UNL     1      -2.884  12.360  22.460  0.00  0.00    +0.000 C 
ATOM      5  C   UNL     1      -2.742  13.298  23.669  0.00  0.00    +0.000 C 
ATOM      6  C   UNL     1      -1.325  13.872  23.575  0.00  0.00    +0.000 C 
ATOM      7  C   UNL     1      -0.726  13.175  22.348  0.00  0.00    +0.000 C 
ATOM      8  N   UNL     1      -1.507  11.919  22.286  0.00  0.00    +0.000 NA
ATOM      9  C   UNL     1      -1.124  10.818  23.146  0.00  0.00    +0.000 C 
ENDROOT
BRANCH   2  10
ATOM     10  C   UNL     1      -1.462  12.072  19.372  0.00  0.00    +0.000 A 
ATOM     11  C   UNL     1      -0.157  11.602  19.673  0.00  0.00    +0.000 A 
ATOM     12  C   UNL     1       0.435  10.518  19.038  0.00  0.00    +0.000 A 
ATOM     13  C   UNL     1      -0.256   9.872  18.035  0.00  0.00    +0.000 A 
ATOM     14  C   UNL     1      -1.531  10.305  17.660  0.00  0.00    +0.000 A 
ATOM     15  C   UNL     1      -2.168   9.637  16.610  0.00  0.00    +0.000 A 
ATOM     16  C   UNL     1      -3.418  10.038  16.167  0.00  0.00    +0.000 A 
ATOM     17  C   UNL     1      -4.049  11.112  16.778  0.00  0.00    +0.000 A 
ATOM     18  C   UNL     1      -3.428  11.788  17.840  0.00  0.00    +0.000 A 
ATOM     19  C   UNL     1      -2.155  11.410  18.317  0.00  0.00    +0.000 A 
ENDBRANCH   2  10
BRANCH   1  21
ATOM     20  C   UNL     1      -0.246  15.439  18.978  0.00  0.00    +0.000 C 
ATOM     21  C   UNL     1       0.077  14.695  20.244  0.00  0.00    +0.000 C 
ATOM     22  O   UNL     1       1.262  14.548  20.573  0.00  0.00    +0.000 OA
ENDBRANCH   1  21
TORSDOF 2
ENDMDL
MODEL 8
REMARK VINA RESULT:      -6.2      8.442     10.587
REMARK  Name = 
REMARK  4 active torsions:
REMARK  status: ('A' for Active; 'I' for Inactive)
REMARK    1  A    between atoms: C_1  and  C_2
REMARK    2  A    between atoms: C_2  and  C_4
REMARK    3  A    between atoms: C_5  and  C_6
REMARK    4  A    between atoms: N_21  and  C_22
REMARK                            x       y       z     vdW  Elec       q    Type
REMARK                         _______ _______ _______ _____ _____    ______ ____
ROOT
ATOM      1  C   UNL     1      -0.040  12.628  21.542  0.00  0.00    +0.000 C 
ATOM      2  C   UNL     1      -0.458  11.655  20.400  0.00  0.00    +0.000 C 
ATOM      3  C   UNL     1       0.723  11.778  19.363  0.00  0.00    +0.000 C 
ATOM      4  C   UNL     1       1.086  13.241  18.988  0.00  0.00    +0.000 C 
ATOM      5  C   UNL     1       2.275  13.877  19.723  0.00  0.00    +0.000 C 
ATOM      6  C   UNL     1       1.705  14.399  21.046  0.00  0.00    +0.000 C 
ATOM      7  C   UNL     1       0.208  14.080  20.952  0.00  0.00    +0.000 C 
ATOM      8  N   UNL     1      -0.017  14.050  19.490  0.00  0.00    +0.000 NA
ATOM      9  C   UNL     1      -0.202  15.303  18.788  0.00  0.00    +0.000 C 
ENDROOT
BRANCH   2  10
ATOM     10  C   UNL     1      -1.909  11.859  19.861  0.00  0.00    +0.000 A 
ATOM     11  C   UNL     1      -2.854  12.604  20.612  0.00  0.00    +0.000 A 
ATOM     12  C   UNL     1      -4.157  12.840  20.192  0.00  0.00    +0.000 A 
ATOM     13  C   UNL     1      -4.582  12.301  18.996  0.00  0.00    +0.000 A 
ATOM     14  C   UNL     1      -3.715  11.524  18.222  0.00  0.00    +0.000 A 
ATOM     15  C   UNL     1      -4.212  10.969  17.039  0.00  0.00    +0.000 A 
ATOM     16  C   UNL     1      -3.415  10.162  16.243  0.00  0.00    +0.000 A 
ATOM     17  C   UNL     1      -2.106   9.905  16.622  0.00  0.00    +0.000 A 
ATOM     18  C   UNL     1      -1.588  10.462  17.802  0.00  0.00    +0.000 A 
ATOM     19  C   UNL     1      -2.369  11.287  18.638  0.00  0.00    +0.000 A 
ENDBRANCH   2  10
BRANCH   1  21
ATOM     20  C   UNL     1      -1.457  13.611  23.529  0.00  0.00    +0.000 C 
ATOM     21  C   UNL     1      -0.892  12.422  22.803  0.00  0.00    +0.000 C 
ATOM     22  O   UNL     1      -1.055  11.290  23.277  0.00  0.00    +0.000 OA
ENDBRANCH   1  21
TORSDOF 2
ENDMDL
MODEL 9
REMARK VINA RESULT:      -6.1      9.442     11.784
REMARK  Name = 
REMARK  4 active torsions:
REMARK  status: ('A' for Active; 'I' for Inactive)
REMARK    1  A    between atoms: C_1  and  C_2
REMARK    2  A    between atoms: C_2  and  C_4
REMARK    3  A    between atoms: C_5  and  C_6
REMARK    4  A    between atoms: N_21  and  C_22
REMARK                            x       y       z     vdW  Elec       q    Type
REMARK                         _______ _______ _______ _____ _____    ______ ____
ROOT
ATOM      1  C   UNL     1      10.943  14.235  19.652  0.00  0.00    +0.000 C 
ATOM      2  C   UNL     1      10.310  13.406  20.809  0.00  0.00    +0.000 C 
ATOM      3  C   UNL     1      10.549  11.913  20.363  0.00  0.00    +0.000 C 
ATOM      4  C   UNL     1      10.100  11.608  18.907  0.00  0.00    +0.000 C 
ATOM      5  C   UNL     1      11.188  11.624  17.822  0.00  0.00    +0.000 C 
ATOM      6  C   UNL     1      11.346  13.094  17.424  0.00  0.00    +0.000 C 
ATOM      7  C   UNL     1      10.290  13.819  18.267  0.00  0.00    +0.000 C 
ATOM      8  N   UNL     1       9.292  12.753  18.508  0.00  0.00    +0.000 NA
ATOM      9  C   UNL     1       8.321  12.461  17.473  0.00  0.00    +0.000 C 
ENDROOT
BRANCH   2  10
ATOM     10  C   UNL     1       8.853  13.816  21.190  0.00  0.00    +0.000 A 
ATOM     11  C   UNL     1       8.221  14.905  20.536  0.00  0.00    +0.000 A 
ATOM     12  C   UNL     1       6.923  15.319  20.810  0.00  0.00    +0.000 A 
ATOM     13  C   UNL     1       6.207  14.667  21.791  0.00  0.00    +0.000 A 
ATOM     14  C   UNL     1       6.780  13.609  22.502  0.00  0.00    +0.000 A 
ATOM     15  C   UNL     1       6.022  13.010  23.513  0.00  0.00    +0.000 A 
ATOM     16  C   UNL     1       6.544  11.979  24.277  0.00  0.00    +0.000 A 
ATOM     17  C   UNL     1       7.833  11.530  24.033  0.00  0.00    +0.000 A 
ATOM     18  C   UNL     1       8.605  12.113  23.016  0.00  0.00    +0.000 A 
ATOM     19  C   UNL     1       8.109  13.166  22.218  0.00  0.00    +0.000 A 
ENDBRANCH   2  10
BRANCH   1  21
ATOM     20  C   UNL     1      10.895  16.785  19.004  0.00  0.00    +0.000 C 
ATOM     21  C   UNL     1      11.106  15.713  20.036  0.00  0.00    +0.000 C 
ATOM     22  O   UNL     1      11.488  16.032  21.171  0.00  0.00    +0.000 OA
ENDBRANCH   1  21
TORSDOF 2
ENDMDL
