MODEL 1
REMARK VINA RESULT:      -7.8      0.000      0.000
REMARK  Name = 
REMARK  4 active torsions:
REMARK  status: ('A' for Active; 'I' for Inactive)
REMARK    1  A    between atoms: C_2  and  C_17
REMARK    2  A    between atoms: C_7  and  C_8
REMARK    3  A    between atoms: C_11  and  O_12
REMARK    4  A    between atoms: C_13  and  O_14
REMARK                            x       y       z     vdW  Elec       q    Type
REMARK                         _______ _______ _______ _____ _____    ______ ____
ROOT
ATOM      1  O   UNL     1       1.761   9.536  17.541  0.00  0.00    +0.000 OA
ATOM      2  C   UNL     1       1.481  10.005  18.639  0.00  0.00    +0.000 C 
ATOM      3  N   UNL     1       1.385   9.325  19.835  0.00  0.00    +0.000 N 
ATOM      4  C   UNL     1       1.642   7.979  19.972  0.00  0.00    +0.000 A 
ATOM      5  N   UNL     1       1.252   7.258  21.000  0.00  0.00    +0.000 NA
ATOM      6  N   UNL     1       1.593   5.920  20.852  0.00  0.00    +0.000 NA
ATOM      7  C   UNL     1       2.250   5.691  19.728  0.00  0.00    +0.000 A 
ATOM      8  S   UNL     1       2.582   7.124  18.842  0.00  0.00    +0.000 S 
ATOM      9  H   UNL     1       0.906   9.740  20.621  0.00  0.00    +0.000 HD
ENDROOT
BRANCH   2  10
ATOM     10  C   UNL     1       1.140  11.447  18.679  0.00  0.00    +0.000 A 
ATOM     11  C   UNL     1      -0.216  11.789  18.792  0.00  0.00    +0.000 A 
ATOM     12  C   UNL     1      -0.613  13.123  18.752  0.00  0.00    +0.000 A 
ATOM     13  C   UNL     1       0.348  14.119  18.586  0.00  0.00    +0.000 A 
ATOM     14 CL   UNL     1      -0.143  15.766  18.503  0.00  0.00    +0.000 Cl
ATOM     15  C   UNL     1       1.699  13.789  18.469  0.00  0.00    +0.000 A 
ATOM     16  C   UNL     1       2.103  12.450  18.517  0.00  0.00    +0.000 A 
ENDBRANCH   2  10
BRANCH   7  17
ATOM     17  C   UNL     1       2.729   4.388  19.249  0.00  0.00    +0.000 A 
ATOM     18  C   UNL     1       2.149   3.804  18.106  0.00  0.00    +0.000 A 
ATOM     19  C   UNL     1       2.569   2.550  17.641  0.00  0.00    +0.000 A 
ATOM     20  C   UNL     1       3.581   1.882  18.317  0.00  0.00    +0.000 A 
ATOM     21  C   UNL     1       4.173   2.454  19.437  0.00  0.00    +0.000 A 
ATOM     22  C   UNL     1       3.762   3.694  19.903  0.00  0.00    +0.000 A 
BRANCH  20  23
ATOM     23  O   UNL     1       4.035   0.655  17.920  0.00  0.00    +0.000 OA
ATOM     24  H   UNL     1       4.962   0.570  18.199  0.00  0.00    +0.000 HD
ENDBRANCH  20  23
BRANCH  21  25
ATOM     25  O   UNL     1       5.170   1.798  20.098  0.00  0.00    +0.000 OA
ATOM     26  H   UNL     1       5.230   2.249  20.964  0.00  0.00    +0.000 HD
ENDBRANCH  21  25
ENDBRANCH   7  17
TORSDOF 4
ENDMDL
MODEL 2
REMARK VINA RESULT:      -7.7      0.167      1.023
REMARK  Name = 
REMARK  4 active torsions:
REMARK  status: ('A' for Active; 'I' for Inactive)
REMARK    1  A    between atoms: C_2  and  C_17
REMARK    2  A    between atoms: C_7  and  C_8
REMARK    3  A    between atoms: C_11  and  O_12
REMARK    4  A    between atoms: C_13  and  O_14
REMARK                            x       y       z     vdW  Elec       q    Type
REMARK                         _______ _______ _______ _____ _____    ______ ____
ROOT
ATOM      1  O   UNL     1       1.686   9.496  17.421  0.00  0.00    +0.000 OA
ATOM      2  C   UNL     1       1.440   9.999  18.512  0.00  0.00    +0.000 C 
ATOM      3  N   UNL     1       1.386   9.358  19.731  0.00  0.00    +0.000 N 
ATOM      4  C   UNL     1       1.655   8.017  19.904  0.00  0.00    +0.000 A 
ATOM      5  N   UNL     1       1.302   7.329  20.966  0.00  0.00    +0.000 NA
ATOM      6  N   UNL     1       1.644   5.988  20.850  0.00  0.00    +0.000 NA
ATOM      7  C   UNL     1       2.266   5.726  19.713  0.00  0.00    +0.000 A 
ATOM      8  S   UNL     1       2.561   7.130  18.771  0.00  0.00    +0.000 S 
ATOM      9  H   UNL     1       0.931   9.796  20.519  0.00  0.00    +0.000 HD
ENDROOT
BRANCH   2  10
ATOM     10  C   UNL     1       1.094  11.440  18.516  0.00  0.00    +0.000 A 
ATOM     11  C   UNL     1       2.151  12.361  18.442  0.00  0.00    +0.000 A 
ATOM     12  C   UNL     1       1.902  13.728  18.524  0.00  0.00    +0.000 A 
ATOM     13  C   UNL     1       0.594  14.178  18.693  0.00  0.00    +0.000 A 
ATOM     14 CL   UNL     1       0.289  15.865  18.827  0.00  0.00    +0.000 Cl
ATOM     15  C   UNL     1      -0.464  13.270  18.771  0.00  0.00    +0.000 A 
ATOM     16  C   UNL     1      -0.220  11.896  18.681  0.00  0.00    +0.000 A 
ENDBRANCH   2  10
BRANCH   7  17
ATOM     17  C   UNL     1       2.735   4.410  19.261  0.00  0.00    +0.000 A 
ATOM     18  C   UNL     1       2.140   3.800  18.139  0.00  0.00    +0.000 A 
ATOM     19  C   UNL     1       2.551   2.533  17.702  0.00  0.00    +0.000 A 
ATOM     20  C   UNL     1       3.569   1.878  18.382  0.00  0.00    +0.000 A 
ATOM     21  C   UNL     1       4.176   2.476  19.480  0.00  0.00    +0.000 A 
ATOM     22  C   UNL     1       3.774   3.728  19.920  0.00  0.00    +0.000 A 
BRANCH  20  23
ATOM     23  O   UNL     1       4.015   0.641  18.010  0.00  0.00    +0.000 OA
ATOM     24  H   UNL     1       4.151   0.113  18.815  0.00  0.00    +0.000 HD
ENDBRANCH  20  23
BRANCH  21  25
ATOM     25  O   UNL     1       5.179   1.833  20.145  0.00  0.00    +0.000 OA
ATOM     26  H   UNL     1       5.694   1.388  19.443  0.00  0.00    +0.000 HD
ENDBRANCH  21  25
ENDBRANCH   7  17
TORSDOF 4
ENDMDL
MODEL 3
REMARK VINA RESULT:      -7.6      2.919      3.310
REMARK  Name = 
REMARK  4 active torsions:
REMARK  status: ('A' for Active; 'I' for Inactive)
REMARK    1  A    between atoms: C_2  and  C_17
REMARK    2  A    between atoms: C_7  and  C_8
REMARK    3  A    between atoms: C_11  and  O_12
REMARK    4  A    between atoms: C_13  and  O_14
REMARK                            x       y       z     vdW  Elec       q    Type
REMARK                         _______ _______ _______ _____ _____    ______ ____
ROOT
ATOM      1  O   UNL     1       0.751   9.448  22.708  0.00  0.00    +0.000 OA
ATOM      2  C   UNL     1       0.379  10.177  21.795  0.00  0.00    +0.000 C 
ATOM      3  N   UNL     1       0.623  10.014  20.448  0.00  0.00    +0.000 N 
ATOM      4  C   UNL     1       1.309   8.943  19.918  0.00  0.00    +0.000 A 
ATOM      5  N   UNL     1       1.827   8.928  18.710  0.00  0.00    +0.000 NA
ATOM      6  N   UNL     1       2.515   7.748  18.458  0.00  0.00    +0.000 NA
ATOM      7  C   UNL     1       2.465   6.911  19.479  0.00  0.00    +0.000 A 
ATOM      8  S   UNL     1       1.480   7.479  20.765  0.00  0.00    +0.000 S 
ATOM      9  H   UNL     1       0.501  10.787  19.809  0.00  0.00    +0.000 HD
ENDROOT
BRANCH   2  10
ATOM     10  C   UNL     1      -0.353  11.407  22.182  0.00  0.00    +0.000 A 
ATOM     11  C   UNL     1      -1.488  11.256  22.994  0.00  0.00    +0.000 A 
ATOM     12  C   UNL     1      -2.269  12.359  23.327  0.00  0.00    +0.000 A 
ATOM     13  C   UNL     1      -1.922  13.617  22.837  0.00  0.00    +0.000 A 
ATOM     14 CL   UNL     1      -2.904  14.976  23.220  0.00  0.00    +0.000 Cl
ATOM     15  C   UNL     1      -0.797  13.777  22.026  0.00  0.00    +0.000 A 
ATOM     16  C   UNL     1      -0.005  12.672  21.696  0.00  0.00    +0.000 A 
ENDBRANCH   2  10
BRANCH   7  17
ATOM     17  C   UNL     1       3.110   5.593  19.557  0.00  0.00    +0.000 A 
ATOM     18  C   UNL     1       2.448   4.524  20.191  0.00  0.00    +0.000 A 
ATOM     19  C   UNL     1       3.051   3.263  20.302  0.00  0.00    +0.000 A 
ATOM     20  C   UNL     1       4.318   3.069  19.768  0.00  0.00    +0.000 A 
ATOM     21  C   UNL     1       4.975   4.111  19.126  0.00  0.00    +0.000 A 
ATOM     22  C   UNL     1       4.386   5.361  19.013  0.00  0.00    +0.000 A 
BRANCH  20  23
ATOM     23  O   UNL     1       4.964   1.867  19.845  0.00  0.00    +0.000 OA
ATOM     24  H   UNL     1       4.951   1.458  18.963  0.00  0.00    +0.000 HD
ENDBRANCH  20  23
BRANCH  21  25
ATOM     25  O   UNL     1       6.218   3.918  18.598  0.00  0.00    +0.000 OA
ATOM     26  H   UNL     1       6.349   4.674  17.992  0.00  0.00    +0.000 HD
ENDBRANCH  21  25
ENDBRANCH   7  17
TORSDOF 4
ENDMDL
MODEL 4
REMARK VINA RESULT:      -7.6      2.821      3.313
REMARK  Name = 
REMARK  4 active torsions:
REMARK  status: ('A' for Active; 'I' for Inactive)
REMARK    1  A    between atoms: C_2  and  C_17
REMARK    2  A    between atoms: C_7  and  C_8
REMARK    3  A    between atoms: C_11  and  O_12
REMARK    4  A    between atoms: C_13  and  O_14
REMARK                            x       y       z     vdW  Elec       q    Type
REMARK                         _______ _______ _______ _____ _____    ______ ____
ROOT
ATOM      1  O   UNL     1       0.889   9.567  22.557  0.00  0.00    +0.000 OA
ATOM      2  C   UNL     1       0.455  10.244  21.632  0.00  0.00    +0.000 C 
ATOM      3  N   UNL     1       0.627  10.018  20.283  0.00  0.00    +0.000 N 
ATOM      4  C   UNL     1       1.301   8.933  19.768  0.00  0.00    +0.000 A 
ATOM      5  N   UNL     1       1.751   8.865  18.536  0.00  0.00    +0.000 NA
ATOM      6  N   UNL     1       2.445   7.685  18.302  0.00  0.00    +0.000 NA
ATOM      7  C   UNL     1       2.466   6.898  19.365  0.00  0.00    +0.000 A 
ATOM      8  S   UNL     1       1.544   7.515  20.675  0.00  0.00    +0.000 S 
ATOM      9  H   UNL     1       0.456  10.757  19.616  0.00  0.00    +0.000 HD
ENDROOT
BRANCH   2  10
ATOM     10  C   UNL     1      -0.276  11.481  22.000  0.00  0.00    +0.000 A 
ATOM     11  C   UNL     1       0.188  12.691  21.463  0.00  0.00    +0.000 A 
ATOM     12  C   UNL     1      -0.401  13.898  21.832  0.00  0.00    +0.000 A 
ATOM     13  C   UNL     1      -1.449  13.897  22.750  0.00  0.00    +0.000 A 
ATOM     14 CL   UNL     1      -2.157  15.389  23.231  0.00  0.00    +0.000 Cl
ATOM     15  C   UNL     1      -1.916  12.698  23.293  0.00  0.00    +0.000 A 
ATOM     16  C   UNL     1      -1.332  11.482  22.918  0.00  0.00    +0.000 A 
ENDBRANCH   2  10
BRANCH   7  17
ATOM     17  C   UNL     1       3.137   5.596  19.470  0.00  0.00    +0.000 A 
ATOM     18  C   UNL     1       2.486   4.520  20.105  0.00  0.00    +0.000 A 
ATOM     19  C   UNL     1       3.114   3.274  20.242  0.00  0.00    +0.000 A 
ATOM     20  C   UNL     1       4.394   3.100  19.733  0.00  0.00    +0.000 A 
ATOM     21  C   UNL     1       5.041   4.149  19.091  0.00  0.00    +0.000 A 
ATOM     22  C   UNL     1       4.427   5.385  18.952  0.00  0.00    +0.000 A 
BRANCH  20  23
ATOM     23  O   UNL     1       5.064   1.913  19.836  0.00  0.00    +0.000 OA
ATOM     24  H   UNL     1       4.441   1.241  20.158  0.00  0.00    +0.000 HD
ENDBRANCH  20  23
BRANCH  21  25
ATOM     25  O   UNL     1       6.297   3.976  18.587  0.00  0.00    +0.000 OA
ATOM     26  H   UNL     1       6.157   3.758  17.644  0.00  0.00    +0.000 HD
ENDBRANCH  21  25
ENDBRANCH   7  17
TORSDOF 4
ENDMDL
MODEL 5
REMARK VINA RESULT:      -7.4      4.947      9.186
REMARK  Name = 
REMARK  4 active torsions:
REMARK  status: ('A' for Active; 'I' for Inactive)
REMARK    1  A    between atoms: C_2  and  C_17
REMARK    2  A    between atoms: C_7  and  C_8
REMARK    3  A    between atoms: C_11  and  O_12
REMARK    4  A    between atoms: C_13  and  O_14
REMARK                            x       y       z     vdW  Elec       q    Type
REMARK                         _______ _______ _______ _____ _____    ______ ____
ROOT
ATOM      1  O   UNL     1       1.470   8.980  18.362  0.00  0.00    +0.000 OA
ATOM      2  C   UNL     1       1.962   8.067  19.016  0.00  0.00    +0.000 C 
ATOM      3  N   UNL     1       1.922   7.908  20.385  0.00  0.00    +0.000 N 
ATOM      4  C   UNL     1       1.260   8.766  21.236  0.00  0.00    +0.000 A 
ATOM      5  N   UNL     1       1.472   8.824  22.531  0.00  0.00    +0.000 NA
ATOM      6  N   UNL     1       0.713   9.819  23.136  0.00  0.00    +0.000 NA
ATOM      7  C   UNL     1      -0.061  10.453  22.272  0.00  0.00    +0.000 A 
ATOM      8  S   UNL     1       0.019   9.793  20.689  0.00  0.00    +0.000 S 
ATOM      9  H   UNL     1       2.563   7.278  20.845  0.00  0.00    +0.000 HD
ENDROOT
BRANCH   2  10
ATOM     10  C   UNL     1       2.747   7.058  18.265  0.00  0.00    +0.000 A 
ATOM     11  C   UNL     1       2.370   5.713  18.400  0.00  0.00    +0.000 A 
ATOM     12  C   UNL     1       3.113   4.707  17.788  0.00  0.00    +0.000 A 
ATOM     13  C   UNL     1       4.245   5.045  17.048  0.00  0.00    +0.000 A 
ATOM     14 CL   UNL     1       5.183   3.802  16.318  0.00  0.00    +0.000 Cl
ATOM     15  C   UNL     1       4.630   6.380  16.910  0.00  0.00    +0.000 A 
ATOM     16  C   UNL     1       3.881   7.394  17.517  0.00  0.00    +0.000 A 
ENDBRANCH   2  10
BRANCH   7  17
ATOM     17  C   UNL     1      -0.962  11.573  22.570  0.00  0.00    +0.000 A 
ATOM     18  C   UNL     1      -0.597  12.884  22.206  0.00  0.00    +0.000 A 
ATOM     19  C   UNL     1      -1.427  13.974  22.501  0.00  0.00    +0.000 A 
ATOM     20  C   UNL     1      -2.633  13.752  23.154  0.00  0.00    +0.000 A 
ATOM     21  C   UNL     1      -3.012  12.462  23.503  0.00  0.00    +0.000 A 
ATOM     22  C   UNL     1      -2.196  11.378  23.216  0.00  0.00    +0.000 A 
BRANCH  20  23
ATOM     23  O   UNL     1      -3.486  14.770  23.474  0.00  0.00    +0.000 OA
ATOM     24  H   UNL     1      -2.954  15.548  23.712  0.00  0.00    +0.000 HD
ENDBRANCH  20  23
BRANCH  21  25
ATOM     25  O   UNL     1      -4.199  12.244  24.140  0.00  0.00    +0.000 OA
ATOM     26  H   UNL     1      -4.292  13.000  24.753  0.00  0.00    +0.000 HD
ENDBRANCH  21  25
ENDBRANCH   7  17
TORSDOF 4
ENDMDL
MODEL 6
REMARK VINA RESULT:      -7.4      2.498      2.679
REMARK  Name = 
REMARK  4 active torsions:
REMARK  status: ('A' for Active; 'I' for Inactive)
REMARK    1  A    between atoms: C_2  and  C_17
REMARK    2  A    between atoms: C_7  and  C_8
REMARK    3  A    between atoms: C_11  and  O_12
REMARK    4  A    between atoms: C_13  and  O_14
REMARK                            x       y       z     vdW  Elec       q    Type
REMARK                         _______ _______ _______ _____ _____    ______ ____
ROOT
ATOM      1  O   UNL     1       0.927   8.438  21.890  0.00  0.00    +0.000 OA
ATOM      2  C   UNL     1       0.895   9.353  21.075  0.00  0.00    +0.000 C 
ATOM      3  N   UNL     1       1.364   9.329  19.778  0.00  0.00    +0.000 N 
ATOM      4  C   UNL     1       1.915   8.215  19.184  0.00  0.00    +0.000 A 
ATOM      5  N   UNL     1       2.648   8.251  18.094  0.00  0.00    +0.000 NA
ATOM      6  N   UNL     1       3.125   6.993  17.750  0.00  0.00    +0.000 NA
ATOM      7  C   UNL     1       2.709   6.054  18.582  0.00  0.00    +0.000 A 
ATOM      8  S   UNL     1       1.621   6.646  19.771  0.00  0.00    +0.000 S 
ATOM      9  H   UNL     1       1.526  10.191  19.278  0.00  0.00    +0.000 HD
ENDROOT
BRANCH   2  10
ATOM     10  C   UNL     1       0.359  10.650  21.552  0.00  0.00    +0.000 A 
ATOM     11  C   UNL     1      -0.597  10.618  22.579  0.00  0.00    +0.000 A 
ATOM     12  C   UNL     1      -1.202  11.793  23.017  0.00  0.00    +0.000 A 
ATOM     13  C   UNL     1      -0.860  13.004  22.419  0.00  0.00    +0.000 A 
ATOM     14 CL   UNL     1      -1.629  14.453  22.936  0.00  0.00    +0.000 Cl
ATOM     15  C   UNL     1       0.088  13.047  21.393  0.00  0.00    +0.000 A 
ATOM     16  C   UNL     1       0.704  11.869  20.956  0.00  0.00    +0.000 A 
ENDBRANCH   2  10
BRANCH   7  17
ATOM     17  C   UNL     1       3.051   4.627  18.527  0.00  0.00    +0.000 A 
ATOM     18  C   UNL     1       2.425   3.790  17.583  0.00  0.00    +0.000 A 
ATOM     19  C   UNL     1       2.715   2.420  17.526  0.00  0.00    +0.000 A 
ATOM     20  C   UNL     1       3.642   1.886  18.410  0.00  0.00    +0.000 A 
ATOM     21  C   UNL     1       4.279   2.703  19.336  0.00  0.00    +0.000 A 
ATOM     22  C   UNL     1       3.997   4.059  19.400  0.00  0.00    +0.000 A 
BRANCH  20  23
ATOM     23  O   UNL     1       3.968   0.558  18.410  0.00  0.00    +0.000 OA
ATOM     24  H   UNL     1       4.898   0.474  18.143  0.00  0.00    +0.000 HD
ENDBRANCH  20  23
BRANCH  21  25
ATOM     25  O   UNL     1       5.193   2.178  20.202  0.00  0.00    +0.000 OA
ATOM     26  H   UNL     1       4.899   1.255  20.341  0.00  0.00    +0.000 HD
ENDBRANCH  21  25
ENDBRANCH   7  17
TORSDOF 4
ENDMDL
MODEL 7
REMARK VINA RESULT:      -7.4      3.514      4.062
REMARK  Name = 
REMARK  4 active torsions:
REMARK  status: ('A' for Active; 'I' for Inactive)
REMARK    1  A    between atoms: C_2  and  C_17
REMARK    2  A    between atoms: C_7  and  C_8
REMARK    3  A    between atoms: C_11  and  O_12
REMARK    4  A    between atoms: C_13  and  O_14
REMARK                            x       y       z     vdW  Elec       q    Type
REMARK                         _______ _______ _______ _____ _____    ______ ____
ROOT
ATOM      1  O   UNL     1       1.237   9.285  21.601  0.00  0.00    +0.000 OA
ATOM      2  C   UNL     1       0.477   9.810  20.796  0.00  0.00    +0.000 C 
ATOM      3  N   UNL     1       0.546   9.744  19.420  0.00  0.00    +0.000 N 
ATOM      4  C   UNL     1       1.493   9.014  18.736  0.00  0.00    +0.000 A 
ATOM      5  N   UNL     1       1.778   9.191  17.465  0.00  0.00    +0.000 NA
ATOM      6  N   UNL     1       2.814   8.364  17.048  0.00  0.00    +0.000 NA
ATOM      7  C   UNL     1       3.249   7.578  18.018  0.00  0.00    +0.000 A 
ATOM      8  S   UNL     1       2.340   7.733  19.466  0.00  0.00    +0.000 S 
ATOM      9  H   UNL     1       0.039  10.407  18.851  0.00  0.00    +0.000 HD
ENDROOT
BRANCH   2  10
ATOM     10  C   UNL     1      -0.596  10.667  21.356  0.00  0.00    +0.000 A 
ATOM     11  C   UNL     1      -1.232  11.562  20.481  0.00  0.00    +0.000 A 
ATOM     12  C   UNL     1      -2.190  12.453  20.958  0.00  0.00    +0.000 A 
ATOM     13  C   UNL     1      -2.505  12.458  22.315  0.00  0.00    +0.000 A 
ATOM     14 CL   UNL     1      -3.664  13.580  22.912  0.00  0.00    +0.000 Cl
ATOM     15  C   UNL     1      -1.875  11.574  23.194  0.00  0.00    +0.000 A 
ATOM     16  C   UNL     1      -0.918  10.672  22.718  0.00  0.00    +0.000 A 
ENDBRANCH   2  10
BRANCH   7  17
ATOM     17  C   UNL     1       4.349   6.609  17.926  0.00  0.00    +0.000 A 
ATOM     18  C   UNL     1       4.353   5.470  18.754  0.00  0.00    +0.000 A 
ATOM     19  C   UNL     1       5.403   4.543  18.705  0.00  0.00    +0.000 A 
ATOM     20  C   UNL     1       6.450   4.751  17.816  0.00  0.00    +0.000 A 
ATOM     21  C   UNL     1       6.450   5.862  16.982  0.00  0.00    +0.000 A 
ATOM     22  C   UNL     1       5.415   6.785  17.025  0.00  0.00    +0.000 A 
BRANCH  20  23
ATOM     23  O   UNL     1       7.506   3.889  17.720  0.00  0.00    +0.000 OA
ATOM     24  H   UNL     1       7.291   3.219  17.050  0.00  0.00    +0.000 HD
ENDBRANCH  20  23
BRANCH  21  25
ATOM     25  O   UNL     1       7.476   6.063  16.106  0.00  0.00    +0.000 OA
ATOM     26  H   UNL     1       7.189   6.822  15.559  0.00  0.00    +0.000 HD
ENDBRANCH  21  25
ENDBRANCH   7  17
TORSDOF 4
ENDMDL
MODEL 8
REMARK VINA RESULT:      -7.3      4.577      9.196
REMARK  Name = 
REMARK  4 active torsions:
REMARK  status: ('A' for Active; 'I' for Inactive)
REMARK    1  A    between atoms: C_2  and  C_17
REMARK    2  A    between atoms: C_7  and  C_8
REMARK    3  A    between atoms: C_11  and  O_12
REMARK    4  A    between atoms: C_13  and  O_14
REMARK                            x       y       z     vdW  Elec       q    Type
REMARK                         _______ _______ _______ _____ _____    ______ ____
ROOT
ATOM      1  O   UNL     1       1.742   8.692  18.062  0.00  0.00    +0.000 OA
ATOM      2  C   UNL     1       2.182   7.821  18.805  0.00  0.00    +0.000 C 
ATOM      3  N   UNL     1       2.035   7.742  20.173  0.00  0.00    +0.000 N 
ATOM      4  C   UNL     1       1.307   8.644  20.918  0.00  0.00    +0.000 A 
ATOM      5  N   UNL     1       1.418   8.778  22.221  0.00  0.00    +0.000 NA
ATOM      6  N   UNL     1       0.613   9.802  22.705  0.00  0.00    +0.000 NA
ATOM      7  C   UNL     1      -0.092  10.380  21.748  0.00  0.00    +0.000 A 
ATOM      8  S   UNL     1       0.112   9.630  20.218  0.00  0.00    +0.000 S 
ATOM      9  H   UNL     1       2.639   7.143  20.718  0.00  0.00    +0.000 HD
ENDROOT
BRANCH   2  10
ATOM     10  C   UNL     1       3.024   6.775  18.176  0.00  0.00    +0.000 A 
ATOM     11  C   UNL     1       4.130   7.199  17.424  0.00  0.00    +0.000 A 
ATOM     12  C   UNL     1       4.914   6.274  16.740  0.00  0.00    +0.000 A 
ATOM     13  C   UNL     1       4.585   4.921  16.797  0.00  0.00    +0.000 A 
ATOM     14 CL   UNL     1       5.533   3.780  15.927  0.00  0.00    +0.000 Cl
ATOM     15  C   UNL     1       3.484   4.489  17.540  0.00  0.00    +0.000 A 
ATOM     16  C   UNL     1       2.699   5.415  18.236  0.00  0.00    +0.000 A 
ENDBRANCH   2  10
BRANCH   7  17
ATOM     17  C   UNL     1      -1.015  11.511  21.909  0.00  0.00    +0.000 A 
ATOM     18  C   UNL     1      -1.785  11.628  23.083  0.00  0.00    +0.000 A 
ATOM     19  C   UNL     1      -2.692  12.683  23.251  0.00  0.00    +0.000 A 
ATOM     20  C   UNL     1      -2.823  13.632  22.245  0.00  0.00    +0.000 A 
ATOM     21  C   UNL     1      -2.057  13.537  21.090  0.00  0.00    +0.000 A 
ATOM     22  C   UNL     1      -1.158  12.495  20.915  0.00  0.00    +0.000 A 
BRANCH  20  23
ATOM     23  O   UNL     1      -3.691  14.683  22.344  0.00  0.00    +0.000 OA
ATOM     24  H   UNL     1      -4.465  14.390  22.853  0.00  0.00    +0.000 HD
ENDBRANCH  20  23
BRANCH  21  25
ATOM     25  O   UNL     1      -2.183  14.472  20.104  0.00  0.00    +0.000 OA
ATOM     26  H   UNL     1      -1.572  14.173  19.401  0.00  0.00    +0.000 HD
ENDBRANCH  21  25
ENDBRANCH   7  17
TORSDOF 4
ENDMDL
MODEL 9
REMARK VINA RESULT:      -7.3      3.343      3.698
REMARK  Name = 
REMARK  4 active torsions:
REMARK  status: ('A' for Active; 'I' for Inactive)
REMARK    1  A    between atoms: C_2  and  C_17
REMARK    2  A    between atoms: C_7  and  C_8
REMARK    3  A    between atoms: C_11  and  O_12
REMARK    4  A    between atoms: C_13  and  O_14
REMARK                            x       y       z     vdW  Elec       q    Type
REMARK                         _______ _______ _______ _____ _____    ______ ____
ROOT
ATOM      1  O   UNL     1       1.033   9.378  19.148  0.00  0.00    +0.000 OA
ATOM      2  C   UNL     1       0.805   9.011  20.295  0.00  0.00    +0.000 C 
ATOM      3  N   UNL     1       1.208   7.833  20.888  0.00  0.00    +0.000 N 
ATOM      4  C   UNL     1       1.990   6.889  20.260  0.00  0.00    +0.000 A 
ATOM      5  N   UNL     1       2.112   5.647  20.671  0.00  0.00    +0.000 NA
ATOM      6  N   UNL     1       2.914   4.897  19.819  0.00  0.00    +0.000 NA
ATOM      7  C   UNL     1       3.384   5.615  18.813  0.00  0.00    +0.000 A 
ATOM      8  S   UNL     1       2.958   7.274  18.916  0.00  0.00    +0.000 S 
ATOM      9  H   UNL     1       0.762   7.509  21.735  0.00  0.00    +0.000 HD
ENDROOT
BRANCH   2  10
ATOM     10  C   UNL     1      -0.057   9.894  21.117  0.00  0.00    +0.000 A 
ATOM     11  C   UNL     1      -0.533  11.072  20.520  0.00  0.00    +0.000 A 
ATOM     12  C   UNL     1      -1.279  11.986  21.260  0.00  0.00    +0.000 A 
ATOM     13  C   UNL     1      -1.540  11.729  22.604  0.00  0.00    +0.000 A 
ATOM     14 CL   UNL     1      -2.433  12.872  23.528  0.00  0.00    +0.000 Cl
ATOM     15  C   UNL     1      -1.068  10.562  23.208  0.00  0.00    +0.000 A 
ATOM     16  C   UNL     1      -0.325   9.637  22.467  0.00  0.00    +0.000 A 
ENDBRANCH   2  10
BRANCH   7  17
ATOM     17  C   UNL     1       4.233   5.128  17.718  0.00  0.00    +0.000 A 
ATOM     18  C   UNL     1       3.895   3.939  17.043  0.00  0.00    +0.000 A 
ATOM     19  C   UNL     1       4.702   3.439  16.011  0.00  0.00    +0.000 A 
ATOM     20  C   UNL     1       5.846   4.136  15.646  0.00  0.00    +0.000 A 
ATOM     21  C   UNL     1       6.181   5.319  16.294  0.00  0.00    +0.000 A 
ATOM     22  C   UNL     1       5.390   5.820  17.316  0.00  0.00    +0.000 A 
BRANCH  20  23
ATOM     23  O   UNL     1       6.677   3.702  14.652  0.00  0.00    +0.000 OA
ATOM     24  H   UNL     1       6.146   3.567  13.850  0.00  0.00    +0.000 HD
ENDBRANCH  20  23
BRANCH  21  25
ATOM     25  O   UNL     1       7.304   6.005  15.931  0.00  0.00    +0.000 OA
ATOM     26  H   UNL     1       7.342   6.760  16.552  0.00  0.00    +0.000 HD
ENDBRANCH  21  25
ENDBRANCH   7  17
TORSDOF 4
ENDMDL
