MODEL 1
REMARK VINA RESULT:      -7.9      0.000      0.000
REMARK  Name = 
REMARK  10 active torsions:
REMARK  status: ('A' for Active; 'I' for Inactive)
REMARK    1  A    between atoms: C_1  and  O_2
REMARK    2  A    between atoms: O_2  and  C_3
REMARK    3  A    between atoms: C_13  and  O_14
REMARK    4  A    between atoms: O_14  and  C_15
REMARK    5  A    between atoms: C_16  and  O_17
REMARK    6  A    between atoms: O_17  and  C_18
REMARK    7  A    between atoms: N_21  and  C_22
REMARK    8  A    between atoms: C_24  and  C_25
REMARK    9  A    between atoms: C_30  and  O_31
REMARK   10  A    between atoms: O_31  and  C_32
REMARK                            x       y       z     vdW  Elec       q    Type
REMARK                         _______ _______ _______ _____ _____    ______ ____
ROOT
ATOM      1  C   UNL     1       5.138   6.711  17.389  0.00  0.00    +0.000 A 
ATOM      2  C   UNL     1       4.123   7.550  17.854  0.00  0.00    +0.000 A 
ATOM      3  C   UNL     1       3.066   7.126  18.665  0.00  0.00    +0.000 A 
ATOM      4  C   UNL     1       3.106   5.766  19.072  0.00  0.00    +0.000 A 
ATOM      5  C   UNL     1       2.279   5.430  20.155  0.00  0.00    +0.000 A 
ATOM      6  C   UNL     1       1.493   6.367  20.816  0.00  0.00    +0.000 A 
ATOM      7  C   UNL     1       1.419   7.700  20.381  0.00  0.00    +0.000 A 
ATOM      8  C   UNL     1       0.733   8.701  21.124  0.00  0.00    +0.000 A 
ATOM      9  C   UNL     1       0.180   8.474  22.397  0.00  0.00    +0.000 A 
ATOM     10  C   UNL     1      -0.429   9.486  23.133  0.00  0.00    +0.000 A 
ATOM     11  C   UNL     1      -0.519  10.781  22.629  0.00  0.00    +0.000 A 
ATOM     12  C   UNL     1       0.015  11.045  21.355  0.00  0.00    +0.000 A 
ATOM     13  C   UNL     1       0.644  10.004  20.611  0.00  0.00    +0.000 A 
ATOM     14  C   UNL     1       1.168  10.223  19.338  0.00  0.00    +0.000 A 
ATOM     15  N   UNL     1       1.811   9.266  18.632  0.00  0.00    +0.000 N 
ATOM     16  C   UNL     1       1.977   9.531  17.174  0.00  0.00    +0.000 C 
ATOM     17  C   UNL     1       2.101   8.038  19.185  0.00  0.00    +0.000 A 
ATOM     18  C   UNL     1       4.019   4.837  18.458  0.00  0.00    +0.000 A 
ATOM     19  C   UNL     1       5.069   5.334  17.643  0.00  0.00    +0.000 A 
ENDROOT
BRANCH  18  20
ATOM     20  C   UNL     1       3.886   3.386  18.727  0.00  0.00    +0.000 A 
ATOM     21  C   UNL     1       3.143   2.369  18.060  0.00  0.00    +0.000 A 
ATOM     22  C   UNL     1       3.436   1.179  18.685  0.00  0.00    +0.000 A 
ATOM     23  O   UNL     1       4.273   1.389  19.729  0.00  0.00    +0.000 OA
ATOM     24  C   UNL     1       4.490   2.728  19.786  0.00  0.00    +0.000 A 
ENDBRANCH  18  20
BRANCH   1  26
ATOM     25  C   UNL     1       7.335   7.605  17.353  0.00  0.00    +0.000 C 
ATOM     26  O   UNL     1       6.150   7.250  16.639  0.00  0.00    +0.000 OA
ENDBRANCH   1  26
BRANCH  11  27
ATOM     27  O   UNL     1      -1.101  11.796  23.334  0.00  0.00    +0.000 OA
ATOM     28  C   UNL     1      -2.522  11.885  23.340  0.00  0.00    +0.000 C 
ENDBRANCH  11  27
BRANCH  12  29
ATOM     29  O   UNL     1       0.021  12.256  20.694  0.00  0.00    +0.000 OA
ATOM     30  C   UNL     1      -1.158  12.702  20.036  0.00  0.00    +0.000 C 
ENDBRANCH  12  29
BRANCH  19  31
ATOM     31  O   UNL     1       5.969   4.408  17.185  0.00  0.00    +0.000 OA
ATOM     32  C   UNL     1       5.898   3.992  15.824  0.00  0.00    +0.000 C 
ENDBRANCH  19  31
TORSDOF 5
ENDMDL
MODEL 2
REMARK VINA RESULT:      -7.6      1.738      4.086
REMARK  Name = 
REMARK  10 active torsions:
REMARK  status: ('A' for Active; 'I' for Inactive)
REMARK    1  A    between atoms: C_1  and  O_2
REMARK    2  A    between atoms: O_2  and  C_3
REMARK    3  A    between atoms: C_13  and  O_14
REMARK    4  A    between atoms: O_14  and  C_15
REMARK    5  A    between atoms: C_16  and  O_17
REMARK    6  A    between atoms: O_17  and  C_18
REMARK    7  A    between atoms: N_21  and  C_22
REMARK    8  A    between atoms: C_24  and  C_25
REMARK    9  A    between atoms: C_30  and  O_31
REMARK   10  A    between atoms: O_31  and  C_32
REMARK                            x       y       z     vdW  Elec       q    Type
REMARK                         _______ _______ _______ _____ _____    ______ ____
ROOT
ATOM      1  C   UNL     1       2.638   5.184  20.487  0.00  0.00    +0.000 A 
ATOM      2  C   UNL     1       2.006   6.402  20.748  0.00  0.00    +0.000 A 
ATOM      3  C   UNL     1       2.073   7.516  19.907  0.00  0.00    +0.000 A 
ATOM      4  C   UNL     1       2.782   7.330  18.690  0.00  0.00    +0.000 A 
ATOM      5  C   UNL     1       2.551   8.295  17.697  0.00  0.00    +0.000 A 
ATOM      6  C   UNL     1       1.662   9.349  17.870  0.00  0.00    +0.000 A 
ATOM      7  C   UNL     1       0.999   9.557  19.090  0.00  0.00    +0.000 A 
ATOM      8  C   UNL     1      -0.015  10.544  19.241  0.00  0.00    +0.000 A 
ATOM      9  C   UNL     1      -0.519  11.303  18.169  0.00  0.00    +0.000 A 
ATOM     10  C   UNL     1      -1.558  12.215  18.330  0.00  0.00    +0.000 A 
ATOM     11  C   UNL     1      -2.145  12.418  19.577  0.00  0.00    +0.000 A 
ATOM     12  C   UNL     1      -1.662  11.684  20.674  0.00  0.00    +0.000 A 
ATOM     13  C   UNL     1      -0.602  10.745  20.499  0.00  0.00    +0.000 A 
ATOM     14  C   UNL     1      -0.084  10.013  21.567  0.00  0.00    +0.000 A 
ATOM     15  N   UNL     1       0.886   9.083  21.420  0.00  0.00    +0.000 N 
ATOM     16  C   UNL     1       1.584   8.666  22.669  0.00  0.00    +0.000 C 
ATOM     17  C   UNL     1       1.340   8.710  20.174  0.00  0.00    +0.000 A 
ATOM     18  C   UNL     1       3.603   6.165  18.483  0.00  0.00    +0.000 A 
ATOM     19  C   UNL     1       3.486   5.069  19.376  0.00  0.00    +0.000 A 
ENDROOT
BRANCH  18  20
ATOM     20  C   UNL     1       4.512   6.101  17.315  0.00  0.00    +0.000 A 
ATOM     21  C   UNL     1       4.456   5.327  16.120  0.00  0.00    +0.000 A 
ATOM     22  C   UNL     1       5.520   5.715  15.338  0.00  0.00    +0.000 A 
ATOM     23  O   UNL     1       6.265   6.643  15.984  0.00  0.00    +0.000 OA
ATOM     24  C   UNL     1       5.687   6.826  17.198  0.00  0.00    +0.000 A 
ENDBRANCH  18  20
BRANCH   1  26
ATOM     25  C   UNL     1       1.275   3.372  21.181  0.00  0.00    +0.000 C 
ATOM     26  O   UNL     1       2.461   4.146  21.363  0.00  0.00    +0.000 OA
ENDBRANCH   1  26
BRANCH  11  27
ATOM     27  O   UNL     1      -3.173  13.298  19.761  0.00  0.00    +0.000 OA
ATOM     28  C   UNL     1      -4.503  12.790  19.778  0.00  0.00    +0.000 C 
ENDBRANCH  11  27
BRANCH  12  29
ATOM     29  O   UNL     1      -2.113  11.747  21.977  0.00  0.00    +0.000 OA
ATOM     30  C   UNL     1      -1.730  12.842  22.799  0.00  0.00    +0.000 C 
ENDBRANCH  12  29
BRANCH  19  31
ATOM     31  O   UNL     1       4.208   3.948  19.057  0.00  0.00    +0.000 OA
ATOM     32  C   UNL     1       3.535   2.841  18.464  0.00  0.00    +0.000 C 
ENDBRANCH  19  31
TORSDOF 5
ENDMDL
MODEL 3
REMARK VINA RESULT:      -7.0      1.679      4.087
REMARK  Name = 
REMARK  10 active torsions:
REMARK  status: ('A' for Active; 'I' for Inactive)
REMARK    1  A    between atoms: C_1  and  O_2
REMARK    2  A    between atoms: O_2  and  C_3
REMARK    3  A    between atoms: C_13  and  O_14
REMARK    4  A    between atoms: O_14  and  C_15
REMARK    5  A    between atoms: C_16  and  O_17
REMARK    6  A    between atoms: O_17  and  C_18
REMARK    7  A    between atoms: N_21  and  C_22
REMARK    8  A    between atoms: C_24  and  C_25
REMARK    9  A    between atoms: C_30  and  O_31
REMARK   10  A    between atoms: O_31  and  C_32
REMARK                            x       y       z     vdW  Elec       q    Type
REMARK                         _______ _______ _______ _____ _____    ______ ____
ROOT
ATOM      1  C   UNL     1       2.041   3.909  18.664  0.00  0.00    +0.000 A 
ATOM      2  C   UNL     1       1.749   5.192  19.131  0.00  0.00    +0.000 A 
ATOM      3  C   UNL     1       2.474   6.336  18.785  0.00  0.00    +0.000 A 
ATOM      4  C   UNL     1       3.521   6.143  17.845  0.00  0.00    +0.000 A 
ATOM      5  C   UNL     1       4.004   7.306  17.224  0.00  0.00    +0.000 A 
ATOM      6  C   UNL     1       3.477   8.566  17.481  0.00  0.00    +0.000 A 
ATOM      7  C   UNL     1       2.475   8.759  18.446  0.00  0.00    +0.000 A 
ATOM      8  C   UNL     1       1.828  10.014  18.624  0.00  0.00    +0.000 A 
ATOM      9  C   UNL     1       2.045  11.120  17.782  0.00  0.00    +0.000 A 
ATOM     10  C   UNL     1       1.350  12.316  17.935  0.00  0.00    +0.000 A 
ATOM     11  C   UNL     1       0.402  12.468  18.944  0.00  0.00    +0.000 A 
ATOM     12  C   UNL     1       0.165  11.388  19.811  0.00  0.00    +0.000 A 
ATOM     13  C   UNL     1       0.875  10.162  19.642  0.00  0.00    +0.000 A 
ATOM     14  C   UNL     1       0.679   9.076  20.494  0.00  0.00    +0.000 A 
ATOM     15  N   UNL     1       1.304   7.888  20.326  0.00  0.00    +0.000 N 
ATOM     16  C   UNL     1       1.285   6.971  21.501  0.00  0.00    +0.000 C 
ATOM     17  C   UNL     1       2.085   7.637  19.220  0.00  0.00    +0.000 A 
ATOM     18  C   UNL     1       3.970   4.819  17.499  0.00  0.00    +0.000 A 
ATOM     19  C   UNL     1       3.186   3.700  17.883  0.00  0.00    +0.000 A 
ENDROOT
BRANCH  18  20
ATOM     20  C   UNL     1       5.207   4.645  16.702  0.00  0.00    +0.000 A 
ATOM     21  C   UNL     1       5.408   4.467  15.303  0.00  0.00    +0.000 A 
ATOM     22  C   UNL     1       6.767   4.428  15.092  0.00  0.00    +0.000 A 
ATOM     23  O   UNL     1       7.429   4.520  16.270  0.00  0.00    +0.000 OA
ATOM     24  C   UNL     1       6.482   4.587  17.240  0.00  0.00    +0.000 A 
ENDBRANCH  18  20
BRANCH   1  26
ATOM     25  C   UNL     1       1.012   2.716  20.438  0.00  0.00    +0.000 C 
ATOM     26  O   UNL     1       1.228   2.870  19.034  0.00  0.00    +0.000 OA
ENDBRANCH   1  26
BRANCH  11  27
ATOM     27  O   UNL     1      -0.301  13.627  19.110  0.00  0.00    +0.000 OA
ATOM     28  C   UNL     1       0.404  14.862  19.039  0.00  0.00    +0.000 C 
ENDBRANCH  11  27
BRANCH  12  29
ATOM     29  O   UNL     1      -0.730  11.349  20.861  0.00  0.00    +0.000 OA
ATOM     30  C   UNL     1      -0.473  12.120  22.029  0.00  0.00    +0.000 C 
ENDBRANCH  12  29
BRANCH  19  31
ATOM     31  O   UNL     1       3.607   2.480  17.423  0.00  0.00    +0.000 OA
ATOM     32  C   UNL     1       3.825   1.428  18.359  0.00  0.00    +0.000 C 
ENDBRANCH  19  31
TORSDOF 5
ENDMDL
MODEL 4
REMARK VINA RESULT:      -6.8      1.560      8.889
REMARK  Name = 
REMARK  10 active torsions:
REMARK  status: ('A' for Active; 'I' for Inactive)
REMARK    1  A    between atoms: C_1  and  O_2
REMARK    2  A    between atoms: O_2  and  C_3
REMARK    3  A    between atoms: C_13  and  O_14
REMARK    4  A    between atoms: O_14  and  C_15
REMARK    5  A    between atoms: C_16  and  O_17
REMARK    6  A    between atoms: O_17  and  C_18
REMARK    7  A    between atoms: N_21  and  C_22
REMARK    8  A    between atoms: C_24  and  C_25
REMARK    9  A    between atoms: C_30  and  O_31
REMARK   10  A    between atoms: O_31  and  C_32
REMARK                            x       y       z     vdW  Elec       q    Type
REMARK                         _______ _______ _______ _____ _____    ______ ____
ROOT
ATOM      1  C   UNL     1       1.076   9.689  22.127  0.00  0.00    +0.000 A 
ATOM      2  C   UNL     1       1.522   8.599  21.377  0.00  0.00    +0.000 A 
ATOM      3  C   UNL     1       1.659   8.608  19.986  0.00  0.00    +0.000 A 
ATOM      4  C   UNL     1       1.382   9.845  19.346  0.00  0.00    +0.000 A 
ATOM      5  C   UNL     1       1.858   9.971  18.032  0.00  0.00    +0.000 A 
ATOM      6  C   UNL     1       2.585   8.969  17.399  0.00  0.00    +0.000 A 
ATOM      7  C   UNL     1       2.816   7.729  18.018  0.00  0.00    +0.000 A 
ATOM      8  C   UNL     1       3.672   6.747  17.445  0.00  0.00    +0.000 A 
ATOM      9  C   UNL     1       4.444   6.973  16.291  0.00  0.00    +0.000 A 
ATOM     10  C   UNL     1       5.324   6.020  15.789  0.00  0.00    +0.000 A 
ATOM     11  C   UNL     1       5.475   4.786  16.416  0.00  0.00    +0.000 A 
ATOM     12  C   UNL     1       4.714   4.519  17.567  0.00  0.00    +0.000 A 
ATOM     13  C   UNL     1       3.820   5.505  18.080  0.00  0.00    +0.000 A 
ATOM     14  C   UNL     1       3.035   5.269  19.208  0.00  0.00    +0.000 A 
ATOM     15  N   UNL     1       2.216   6.203  19.743  0.00  0.00    +0.000 N 
ATOM     16  C   UNL     1       1.185   5.698  20.694  0.00  0.00    +0.000 C 
ATOM     17  C   UNL     1       2.200   7.498  19.273  0.00  0.00    +0.000 A 
ATOM     18  C   UNL     1       0.738  10.919  20.058  0.00  0.00    +0.000 A 
ATOM     19  C   UNL     1       0.630  10.845  21.471  0.00  0.00    +0.000 A 
ENDROOT
BRANCH  18  20
ATOM     20  C   UNL     1       0.249  12.106  19.318  0.00  0.00    +0.000 A 
ATOM     21  C   UNL     1       0.822  13.396  19.124  0.00  0.00    +0.000 A 
ATOM     22  C   UNL     1      -0.024  14.092  18.291  0.00  0.00    +0.000 A 
ATOM     23  O   UNL     1      -1.111  13.342  17.991  0.00  0.00    +0.000 OA
ATOM     24  C   UNL     1      -0.970  12.171  18.662  0.00  0.00    +0.000 A 
ENDBRANCH  18  20
BRANCH   1  26
ATOM     25  C   UNL     1      -0.206   9.108  24.037  0.00  0.00    +0.000 C 
ATOM     26  O   UNL     1       1.028   9.578  23.492  0.00  0.00    +0.000 OA
ENDBRANCH   1  26
BRANCH  11  27
ATOM     27  O   UNL     1       6.340   3.835  15.951  0.00  0.00    +0.000 OA
ATOM     28  C   UNL     1       6.435   3.640  14.543  0.00  0.00    +0.000 C 
ENDBRANCH  11  27
BRANCH  12  29
ATOM     29  O   UNL     1       4.727   3.362  18.320  0.00  0.00    +0.000 OA
ATOM     30  C   UNL     1       3.844   2.299  17.986  0.00  0.00    +0.000 C 
ENDBRANCH  12  29
BRANCH  19  31
ATOM     31  O   UNL     1       0.112  11.950  22.096  0.00  0.00    +0.000 OA
ATOM     32  C   UNL     1      -1.273  11.966  22.431  0.00  0.00    +0.000 C 
ENDBRANCH  19  31
TORSDOF 5
ENDMDL
MODEL 5
REMARK VINA RESULT:      -6.8      1.706      4.071
REMARK  Name = 
REMARK  10 active torsions:
REMARK  status: ('A' for Active; 'I' for Inactive)
REMARK    1  A    between atoms: C_1  and  O_2
REMARK    2  A    between atoms: O_2  and  C_3
REMARK    3  A    between atoms: C_13  and  O_14
REMARK    4  A    between atoms: O_14  and  C_15
REMARK    5  A    between atoms: C_16  and  O_17
REMARK    6  A    between atoms: O_17  and  C_18
REMARK    7  A    between atoms: N_21  and  C_22
REMARK    8  A    between atoms: C_24  and  C_25
REMARK    9  A    between atoms: C_30  and  O_31
REMARK   10  A    between atoms: O_31  and  C_32
REMARK                            x       y       z     vdW  Elec       q    Type
REMARK                         _______ _______ _______ _____ _____    ______ ____
ROOT
ATOM      1  C   UNL     1       2.318   5.054  20.530  0.00  0.00    +0.000 A 
ATOM      2  C   UNL     1       1.826   6.331  20.808  0.00  0.00    +0.000 A 
ATOM      3  C   UNL     1       1.966   7.428  19.953  0.00  0.00    +0.000 A 
ATOM      4  C   UNL     1       2.593   7.164  18.706  0.00  0.00    +0.000 A 
ATOM      5  C   UNL     1       2.413   8.142  17.715  0.00  0.00    +0.000 A 
ATOM      6  C   UNL     1       1.646   9.283  17.919  0.00  0.00    +0.000 A 
ATOM      7  C   UNL     1       1.067   9.564  19.167  0.00  0.00    +0.000 A 
ATOM      8  C   UNL     1       0.167  10.650  19.356  0.00  0.00    +0.000 A 
ATOM      9  C   UNL     1      -0.309  11.451  18.301  0.00  0.00    +0.000 A 
ATOM     10  C   UNL     1      -1.240  12.465  18.503  0.00  0.00    +0.000 A 
ATOM     11  C   UNL     1      -1.742  12.733  19.773  0.00  0.00    +0.000 A 
ATOM     12  C   UNL     1      -1.284  11.960  20.854  0.00  0.00    +0.000 A 
ATOM     13  C   UNL     1      -0.335  10.917  20.638  0.00  0.00    +0.000 A 
ATOM     14  C   UNL     1       0.156  10.142  21.688  0.00  0.00    +0.000 A 
ATOM     15  N   UNL     1       1.019   9.117  21.504  0.00  0.00    +0.000 N 
ATOM     16  C   UNL     1       1.730   8.637  22.724  0.00  0.00    +0.000 C 
ATOM     17  C   UNL     1       1.372   8.692  20.243  0.00  0.00    +0.000 A 
ATOM     18  C   UNL     1       3.279   5.920  18.472  0.00  0.00    +0.000 A 
ATOM     19  C   UNL     1       3.095   4.846  19.381  0.00  0.00    +0.000 A 
ENDROOT
BRANCH  18  20
ATOM     20  C   UNL     1       4.119   5.758  17.263  0.00  0.00    +0.000 A 
ATOM     21  C   UNL     1       5.091   6.614  16.670  0.00  0.00    +0.000 A 
ATOM     22  C   UNL     1       5.623   5.939  15.596  0.00  0.00    +0.000 A 
ATOM     23  O   UNL     1       5.015   4.738  15.447  0.00  0.00    +0.000 OA
ATOM     24  C   UNL     1       4.068   4.662  16.416  0.00  0.00    +0.000 A 
ENDBRANCH  18  20
BRANCH   1  26
ATOM     25  C   UNL     1       1.110   3.073  21.024  0.00  0.00    +0.000 C 
ATOM     26  O   UNL     1       2.078   4.044  21.424  0.00  0.00    +0.000 OA
ENDBRANCH   1  26
BRANCH  11  27
ATOM     27  O   UNL     1      -2.665  13.715  19.997  0.00  0.00    +0.000 OA
ATOM     28  C   UNL     1      -2.198  15.011  20.361  0.00  0.00    +0.000 C 
ENDBRANCH  11  27
BRANCH  12  29
ATOM     29  O   UNL     1      -1.663  12.076  22.176  0.00  0.00    +0.000 OA
ATOM     30  C   UNL     1      -1.061  13.072  22.993  0.00  0.00    +0.000 C 
ENDBRANCH  12  29
BRANCH  19  31
ATOM     31  O   UNL     1       3.682   3.656  19.039  0.00  0.00    +0.000 OA
ATOM     32  C   UNL     1       4.772   3.176  19.821  0.00  0.00    +0.000 C 
ENDBRANCH  19  31
TORSDOF 5
ENDMDL
MODEL 6
REMARK VINA RESULT:      -6.5      1.772      8.541
REMARK  Name = 
REMARK  10 active torsions:
REMARK  status: ('A' for Active; 'I' for Inactive)
REMARK    1  A    between atoms: C_1  and  O_2
REMARK    2  A    between atoms: O_2  and  C_3
REMARK    3  A    between atoms: C_13  and  O_14
REMARK    4  A    between atoms: O_14  and  C_15
REMARK    5  A    between atoms: C_16  and  O_17
REMARK    6  A    between atoms: O_17  and  C_18
REMARK    7  A    between atoms: N_21  and  C_22
REMARK    8  A    between atoms: C_24  and  C_25
REMARK    9  A    between atoms: C_30  and  O_31
REMARK   10  A    between atoms: O_31  and  C_32
REMARK                            x       y       z     vdW  Elec       q    Type
REMARK                         _______ _______ _______ _____ _____    ______ ____
ROOT
ATOM      1  C   UNL     1      -1.386  11.453  18.280  0.00  0.00    +0.000 A 
ATOM      2  C   UNL     1      -0.391  10.474  18.250  0.00  0.00    +0.000 A 
ATOM      3  C   UNL     1       0.205   9.926  19.389  0.00  0.00    +0.000 A 
ATOM      4  C   UNL     1      -0.314  10.372  20.634  0.00  0.00    +0.000 A 
ATOM      5  C   UNL     1       0.008   9.581  21.747  0.00  0.00    +0.000 A 
ATOM      6  C   UNL     1       0.758   8.415  21.645  0.00  0.00    +0.000 A 
ATOM      7  C   UNL     1       1.309   8.002  20.421  0.00  0.00    +0.000 A 
ATOM      8  C   UNL     1       1.959   6.745  20.270  0.00  0.00    +0.000 A 
ATOM      9  C   UNL     1       1.999   5.770  21.284  0.00  0.00    +0.000 A 
ATOM     10  C   UNL     1       2.583   4.522  21.089  0.00  0.00    +0.000 A 
ATOM     11  C   UNL     1       3.161   4.185  19.868  0.00  0.00    +0.000 A 
ATOM     12  C   UNL     1       3.149   5.137  18.834  0.00  0.00    +0.000 A 
ATOM     13  C   UNL     1       2.541   6.411  19.038  0.00  0.00    +0.000 A 
ATOM     14  C   UNL     1       2.526   7.387  18.042  0.00  0.00    +0.000 A 
ATOM     15  N   UNL     1       1.915   8.584  18.194  0.00  0.00    +0.000 N 
ATOM     16  C   UNL     1       2.296   9.639  17.213  0.00  0.00    +0.000 C 
ATOM     17  C   UNL     1       1.156   8.867  19.308  0.00  0.00    +0.000 A 
ATOM     18  C   UNL     1      -1.192  11.512  20.703  0.00  0.00    +0.000 A 
ATOM     19  C   UNL     1      -1.762  12.020  19.507  0.00  0.00    +0.000 A 
ENDROOT
BRANCH  18  20
ATOM     20  C   UNL     1      -1.533  12.101  22.019  0.00  0.00    +0.000 A 
ATOM     21  C   UNL     1      -2.629  11.868  22.899  0.00  0.00    +0.000 A 
ATOM     22  C   UNL     1      -2.414  12.634  24.022  0.00  0.00    +0.000 A 
ATOM     23  O   UNL     1      -1.284  13.367  23.883  0.00  0.00    +0.000 OA
ATOM     24  C   UNL     1      -0.792  13.088  22.649  0.00  0.00    +0.000 A 
ENDBRANCH  18  20
BRANCH   1  26
ATOM     25  C   UNL     1      -2.666  10.904  16.360  0.00  0.00    +0.000 C 
ATOM     26  O   UNL     1      -1.930  11.881  17.098  0.00  0.00    +0.000 OA
ENDBRANCH   1  26
BRANCH  11  27
ATOM     27  O   UNL     1       3.732   2.964  19.647  0.00  0.00    +0.000 OA
ATOM     28  C   UNL     1       2.973   1.981  18.950  0.00  0.00    +0.000 C 
ENDBRANCH  11  27
BRANCH  12  29
ATOM     29  O   UNL     1       3.667   4.988  17.564  0.00  0.00    +0.000 OA
ATOM     30  C   UNL     1       5.077   4.926  17.385  0.00  0.00    +0.000 C 
ENDBRANCH  12  29
BRANCH  19  31
ATOM     31  O   UNL     1      -2.677  13.030  19.654  0.00  0.00    +0.000 OA
ATOM     32  C   UNL     1      -4.064  12.705  19.675  0.00  0.00    +0.000 C 
ENDBRANCH  19  31
TORSDOF 5
ENDMDL
MODEL 7
REMARK VINA RESULT:      -6.3      1.337      1.554
REMARK  Name = 
REMARK  10 active torsions:
REMARK  status: ('A' for Active; 'I' for Inactive)
REMARK    1  A    between atoms: C_1  and  O_2
REMARK    2  A    between atoms: O_2  and  C_3
REMARK    3  A    between atoms: C_13  and  O_14
REMARK    4  A    between atoms: O_14  and  C_15
REMARK    5  A    between atoms: C_16  and  O_17
REMARK    6  A    between atoms: O_17  and  C_18
REMARK    7  A    between atoms: N_21  and  C_22
REMARK    8  A    between atoms: C_24  and  C_25
REMARK    9  A    between atoms: C_30  and  O_31
REMARK   10  A    between atoms: O_31  and  C_32
REMARK                            x       y       z     vdW  Elec       q    Type
REMARK                         _______ _______ _______ _____ _____    ______ ____
ROOT
ATOM      1  C   UNL     1       4.244   6.802  17.825  0.00  0.00    +0.000 A 
ATOM      2  C   UNL     1       3.355   7.804  18.219  0.00  0.00    +0.000 A 
ATOM      3  C   UNL     1       2.258   7.594  19.059  0.00  0.00    +0.000 A 
ATOM      4  C   UNL     1       2.118   6.279  19.575  0.00  0.00    +0.000 A 
ATOM      5  C   UNL     1       1.263   6.146  20.680  0.00  0.00    +0.000 A 
ATOM      6  C   UNL     1       0.616   7.230  21.261  0.00  0.00    +0.000 A 
ATOM      7  C   UNL     1       0.719   8.522  20.719  0.00  0.00    +0.000 A 
ATOM      8  C   UNL     1       0.179   9.663  21.376  0.00  0.00    +0.000 A 
ATOM      9  C   UNL     1      -0.388   9.616  22.663  0.00  0.00    +0.000 A 
ATOM     10  C   UNL     1      -0.848  10.757  23.312  0.00  0.00    +0.000 A 
ATOM     11  C   UNL     1      -0.767  12.008  22.705  0.00  0.00    +0.000 A 
ATOM     12  C   UNL     1      -0.214  12.093  21.415  0.00  0.00    +0.000 A 
ATOM     13  C   UNL     1       0.263  10.920  20.760  0.00  0.00    +0.000 A 
ATOM     14  C   UNL     1       0.800  10.963  19.474  0.00  0.00    +0.000 A 
ATOM     15  N   UNL     1       1.302   9.874  18.849  0.00  0.00    +0.000 N 
ATOM     16  C   UNL     1       1.489   9.996  17.375  0.00  0.00    +0.000 C 
ATOM     17  C   UNL     1       1.429   8.667  19.501  0.00  0.00    +0.000 A 
ATOM     18  C   UNL     1       2.892   5.188  19.040  0.00  0.00    +0.000 A 
ATOM     19  C   UNL     1       3.992   5.471  18.191  0.00  0.00    +0.000 A 
ENDROOT
BRANCH  18  20
ATOM     20  C   UNL     1       2.567   3.795  19.426  0.00  0.00    +0.000 A 
ATOM     21  C   UNL     1       2.990   3.001  20.530  0.00  0.00    +0.000 A 
ATOM     22  C   UNL     1       2.326   1.799  20.442  0.00  0.00    +0.000 A 
ATOM     23  O   UNL     1       1.552   1.769  19.331  0.00  0.00    +0.000 OA
ATOM     24  C   UNL     1       1.750   2.950  18.691  0.00  0.00    +0.000 A 
ENDBRANCH  18  20
BRANCH   1  26
ATOM     25  C   UNL     1       5.241   6.712  15.675  0.00  0.00    +0.000 C 
ATOM     26  O   UNL     1       5.312   7.137  17.036  0.00  0.00    +0.000 OA
ENDBRANCH   1  26
BRANCH  11  27
ATOM     27  O   UNL     1      -1.201  13.146  23.324  0.00  0.00    +0.000 OA
ATOM     28  C   UNL     1      -2.605  13.342  23.468  0.00  0.00    +0.000 C 
ENDBRANCH  11  27
BRANCH  12  29
ATOM     29  O   UNL     1      -0.051  13.235  20.658  0.00  0.00    +0.000 OA
ATOM     30  C   UNL     1      -1.182  13.832  20.036  0.00  0.00    +0.000 C 
ENDBRANCH  12  29
BRANCH  19  31
ATOM     31  O   UNL     1       4.756   4.398  17.811  0.00  0.00    +0.000 OA
ATOM     32  C   UNL     1       6.055   4.243  18.374  0.00  0.00    +0.000 C 
ENDBRANCH  19  31
TORSDOF 5
ENDMDL
MODEL 8
REMARK VINA RESULT:      -6.2      1.815      2.572
REMARK  Name = 
REMARK  10 active torsions:
REMARK  status: ('A' for Active; 'I' for Inactive)
REMARK    1  A    between atoms: C_1  and  O_2
REMARK    2  A    between atoms: O_2  and  C_3
REMARK    3  A    between atoms: C_13  and  O_14
REMARK    4  A    between atoms: O_14  and  C_15
REMARK    5  A    between atoms: C_16  and  O_17
REMARK    6  A    between atoms: O_17  and  C_18
REMARK    7  A    between atoms: N_21  and  C_22
REMARK    8  A    between atoms: C_24  and  C_25
REMARK    9  A    between atoms: C_30  and  O_31
REMARK   10  A    between atoms: O_31  and  C_32
REMARK                            x       y       z     vdW  Elec       q    Type
REMARK                         _______ _______ _______ _____ _____    ______ ____
ROOT
ATOM      1  C   UNL     1       3.281   7.117  18.097  0.00  0.00    +0.000 A 
ATOM      2  C   UNL     1       2.426   8.189  18.363  0.00  0.00    +0.000 A 
ATOM      3  C   UNL     1       1.466   8.192  19.380  0.00  0.00    +0.000 A 
ATOM      4  C   UNL     1       1.442   7.041  20.211  0.00  0.00    +0.000 A 
ATOM      5  C   UNL     1       0.757   7.183  21.427  0.00  0.00    +0.000 A 
ATOM      6  C   UNL     1       0.165   8.378  21.819  0.00  0.00    +0.000 A 
ATOM      7  C   UNL     1       0.149   9.499  20.974  0.00  0.00    +0.000 A 
ATOM      8  C   UNL     1      -0.328  10.768  21.409  0.00  0.00    +0.000 A 
ATOM      9  C   UNL     1      -0.705  11.036  22.738  0.00  0.00    +0.000 A 
ATOM     10  C   UNL     1      -1.105  12.302  23.154  0.00  0.00    +0.000 A 
ATOM     11  C   UNL     1      -1.150  13.368  22.259  0.00  0.00    +0.000 A 
ATOM     12  C   UNL     1      -0.788  13.137  20.920  0.00  0.00    +0.000 A 
ATOM     13  C   UNL     1      -0.372  11.838  20.503  0.00  0.00    +0.000 A 
ATOM     14  C   UNL     1      -0.024  11.567  19.181  0.00  0.00    +0.000 A 
ATOM     15  N   UNL     1       0.419  10.357  18.770  0.00  0.00    +0.000 N 
ATOM     16  C   UNL     1       0.391  10.118  17.299  0.00  0.00    +0.000 C 
ATOM     17  C   UNL     1       0.674   9.343  19.667  0.00  0.00    +0.000 A 
ATOM     18  C   UNL     1       2.166   5.851  19.847  0.00  0.00    +0.000 A 
ATOM     19  C   UNL     1       3.126   5.916  18.804  0.00  0.00    +0.000 A 
ENDROOT
BRANCH  18  20
ATOM     20  C   UNL     1       1.943   4.593  20.599  0.00  0.00    +0.000 A 
ATOM     21  C   UNL     1       1.000   3.542  20.415  0.00  0.00    +0.000 A 
ATOM     22  C   UNL     1       1.282   2.578  21.355  0.00  0.00    +0.000 A 
ATOM     23  O   UNL     1       2.307   2.976  22.145  0.00  0.00    +0.000 OA
ATOM     24  C   UNL     1       2.659   4.217  21.724  0.00  0.00    +0.000 A 
ENDBRANCH  18  20
BRANCH   1  26
ATOM     25  C   UNL     1       5.575   7.048  17.497  0.00  0.00    +0.000 C 
ATOM     26  O   UNL     1       4.216   7.247  17.105  0.00  0.00    +0.000 OA
ENDBRANCH   1  26
BRANCH  11  27
ATOM     27  O   UNL     1      -1.528  14.624  22.643  0.00  0.00    +0.000 OA
ATOM     28  C   UNL     1      -1.034  15.129  23.880  0.00  0.00    +0.000 C 
ENDBRANCH  11  27
BRANCH  12  29
ATOM     29  O   UNL     1      -0.770  14.061  19.896  0.00  0.00    +0.000 OA
ATOM     30  C   UNL     1       0.235  15.068  19.879  0.00  0.00    +0.000 C 
ENDBRANCH  12  29
BRANCH  19  31
ATOM     31  O   UNL     1       3.861   4.780  18.586  0.00  0.00    +0.000 OA
ATOM     32  C   UNL     1       3.491   3.913  17.518  0.00  0.00    +0.000 C 
ENDBRANCH  19  31
TORSDOF 5
ENDMDL
MODEL 9
REMARK VINA RESULT:      -5.8      8.600     11.649
REMARK  Name = 
REMARK  10 active torsions:
REMARK  status: ('A' for Active; 'I' for Inactive)
REMARK    1  A    between atoms: C_1  and  O_2
REMARK    2  A    between atoms: O_2  and  C_3
REMARK    3  A    between atoms: C_13  and  O_14
REMARK    4  A    between atoms: O_14  and  C_15
REMARK    5  A    between atoms: C_16  and  O_17
REMARK    6  A    between atoms: O_17  and  C_18
REMARK    7  A    between atoms: N_21  and  C_22
REMARK    8  A    between atoms: C_24  and  C_25
REMARK    9  A    between atoms: C_30  and  O_31
REMARK   10  A    between atoms: O_31  and  C_32
REMARK                            x       y       z     vdW  Elec       q    Type
REMARK                         _______ _______ _______ _____ _____    ______ ____
ROOT
ATOM      1  C   UNL     1       5.502  15.107  25.659  0.00  0.00    +0.000 A 
ATOM      2  C   UNL     1       6.507  15.106  24.688  0.00  0.00    +0.000 A 
ATOM      3  C   UNL     1       7.249  13.978  24.329  0.00  0.00    +0.000 A 
ATOM      4  C   UNL     1       6.877  12.765  24.968  0.00  0.00    +0.000 A 
ATOM      5  C   UNL     1       7.350  11.589  24.364  0.00  0.00    +0.000 A 
ATOM      6  C   UNL     1       8.107  11.598  23.198  0.00  0.00    +0.000 A 
ATOM      7  C   UNL     1       8.512  12.800  22.597  0.00  0.00    +0.000 A 
ATOM      8  C   UNL     1       9.165  12.830  21.332  0.00  0.00    +0.000 A 
ATOM      9  C   UNL     1       9.350  11.688  20.531  0.00  0.00    +0.000 A 
ATOM     10  C   UNL     1       9.932  11.754  19.269  0.00  0.00    +0.000 A 
ATOM     11  C   UNL     1      10.363  12.969  18.743  0.00  0.00    +0.000 A 
ATOM     12  C   UNL     1      10.204  14.132  19.517  0.00  0.00    +0.000 A 
ATOM     13  C   UNL     1       9.599  14.057  20.807  0.00  0.00    +0.000 A 
ATOM     14  C   UNL     1       9.441  15.185  21.611  0.00  0.00    +0.000 A 
ATOM     15  N   UNL     1       8.828  15.149  22.816  0.00  0.00    +0.000 N 
ATOM     16  C   UNL     1       9.064  16.324  23.702  0.00  0.00    +0.000 C 
ATOM     17  C   UNL     1       8.206  14.008  23.272  0.00  0.00    +0.000 A 
ATOM     18  C   UNL     1       5.990  12.768  26.102  0.00  0.00    +0.000 A 
ATOM     19  C   UNL     1       5.268  13.949  26.413  0.00  0.00    +0.000 A 
ENDROOT
BRANCH  18  20
ATOM     20  C   UNL     1       5.801  11.529  26.893  0.00  0.00    +0.000 A 
ATOM     21  C   UNL     1       4.779  10.538  26.859  0.00  0.00    +0.000 A 
ATOM     22  C   UNL     1       5.134   9.561  27.761  0.00  0.00    +0.000 A 
ATOM     23  O   UNL     1       6.283   9.898  28.392  0.00  0.00    +0.000 OA
ATOM     24  C   UNL     1       6.646  11.114  27.910  0.00  0.00    +0.000 A 
ENDBRANCH  18  20
BRANCH   1  26
ATOM     25  C   UNL     1       5.598  17.445  26.047  0.00  0.00    +0.000 C 
ATOM     26  O   UNL     1       4.808  16.265  25.891  0.00  0.00    +0.000 OA
ENDBRANCH   1  26
BRANCH  11  27
ATOM     27  O   UNL     1      10.928  13.064  17.502  0.00  0.00    +0.000 OA
ATOM     28  C   UNL     1      12.333  12.868  17.383  0.00  0.00    +0.000 C 
ENDBRANCH  11  27
BRANCH  12  29
ATOM     29  O   UNL     1      10.566  15.416  19.168  0.00  0.00    +0.000 OA
ATOM     30  C   UNL     1      11.916  15.832  19.330  0.00  0.00    +0.000 C 
ENDBRANCH  12  29
BRANCH  19  31
ATOM     31  O   UNL     1       4.356  13.850  27.432  0.00  0.00    +0.000 OA
ATOM     32  C   UNL     1       4.675  14.416  28.700  0.00  0.00    +0.000 C 
ENDBRANCH  19  31
TORSDOF 5
ENDMDL
