MODEL 1
REMARK VINA RESULT:      -7.9      0.000      0.000
REMARK  Name = 
REMARK  4 active torsions:
REMARK  status: ('A' for Active; 'I' for Inactive)
REMARK    1  A    between atoms: C_14  and  C_15
REMARK    2  A    between atoms: C_15  and  O_16
REMARK    3  A    between atoms: O_16  and  C_17
REMARK    4  A    between atoms: C_17  and  C_18
REMARK                            x       y       z     vdW  Elec       q    Type
REMARK                         _______ _______ _______ _____ _____    ______ ____
ROOT
ATOM      1  O   UNL     1       5.314   3.058  20.249  0.00  0.00    +0.000 OA
ATOM      2  C   UNL     1       4.513   3.486  19.410  0.00  0.00    +0.000 C 
ATOM      3  N   UNL     1       3.162   3.403  19.644  0.00  0.00    +0.000 N 
ATOM      4  C   UNL     1       2.700   2.827  20.900  0.00  0.00    +0.000 C 
ATOM      5  C   UNL     1       1.209   2.603  20.704  0.00  0.00    +0.000 C 
ATOM      6  C   UNL     1       0.810   3.751  19.796  0.00  0.00    +0.000 C 
ATOM      7  C   UNL     1       2.032   3.944  18.911  0.00  0.00    +0.000 C 
ATOM      8  N   UNL     1       4.986   4.066  18.259  0.00  0.00    +0.000 N 
ATOM      9  C   UNL     1       6.427   4.240  18.066  0.00  0.00    +0.000 C 
ATOM     10  C   UNL     1       6.591   5.250  16.918  0.00  0.00    +0.000 C 
ATOM     11  C   UNL     1       7.189   4.726  15.601  0.00  0.00    +0.000 C 
ATOM     12  C   UNL     1       6.036   4.642  14.608  0.00  0.00    +0.000 C 
ATOM     13  C   UNL     1       5.103   5.769  15.050  0.00  0.00    +0.000 C 
ATOM     14  C   UNL     1       5.147   5.671  16.573  0.00  0.00    +0.000 C 
ATOM     15  C   UNL     1       4.306   4.491  17.062  0.00  0.00    +0.000 C 
ENDROOT
BRANCH  14  16
ATOM     16  C   UNL     1       4.707   6.926  17.341  0.00  0.00    +0.000 C 
BRANCH  16  17
ATOM     17  O   UNL     1       3.341   6.856  17.745  0.00  0.00    +0.000 OA
BRANCH  17  18
ATOM     18  C   UNL     1       2.759   8.169  17.723  0.00  0.00    +0.000 C 
BRANCH  18  19
ATOM     19  C   UNL     1       1.958   8.471  18.966  0.00  0.00    +0.000 A 
ATOM     20  C   UNL     1       1.969   7.604  20.056  0.00  0.00    +0.000 A 
ATOM     21  C   UNL     1       1.169   7.899  21.158  0.00  0.00    +0.000 A 
ATOM     22  C   UNL     1       0.374   9.038  21.137  0.00  0.00    +0.000 A 
ATOM     23  C   UNL     1       0.407   9.838  20.010  0.00  0.00    +0.000 A 
ATOM     24  N   UNL     1       1.172   9.580  18.928  0.00  0.00    +0.000 NA
ENDBRANCH  18  19
ENDBRANCH  17  18
ENDBRANCH  16  17
ENDBRANCH  14  16
TORSDOF 4
ENDMDL
MODEL 2
REMARK VINA RESULT:      -7.6      2.147      6.304
REMARK  Name = 
REMARK  4 active torsions:
REMARK  status: ('A' for Active; 'I' for Inactive)
REMARK    1  A    between atoms: C_14  and  C_15
REMARK    2  A    between atoms: C_15  and  O_16
REMARK    3  A    between atoms: O_16  and  C_17
REMARK    4  A    between atoms: C_17  and  C_18
REMARK                            x       y       z     vdW  Elec       q    Type
REMARK                         _______ _______ _______ _____ _____    ______ ____
ROOT
ATOM      1  O   UNL     1       1.987   6.398  21.372  0.00  0.00    +0.000 OA
ATOM      2  C   UNL     1       2.176   6.422  20.151  0.00  0.00    +0.000 C 
ATOM      3  N   UNL     1       1.959   7.580  19.444  0.00  0.00    +0.000 N 
ATOM      4  C   UNL     1       1.528   8.773  20.164  0.00  0.00    +0.000 C 
ATOM      5  C   UNL     1       1.088   9.746  19.081  0.00  0.00    +0.000 C 
ATOM      6  C   UNL     1       2.023   9.420  17.932  0.00  0.00    +0.000 C 
ATOM      7  C   UNL     1       2.232   7.919  18.060  0.00  0.00    +0.000 C 
ATOM      8  N   UNL     1       2.628   5.293  19.515  0.00  0.00    +0.000 N 
ATOM      9  C   UNL     1       2.952   4.095  20.292  0.00  0.00    +0.000 C 
ATOM     10  C   UNL     1       3.787   3.192  19.368  0.00  0.00    +0.000 C 
ATOM     11  C   UNL     1       3.147   1.869  18.914  0.00  0.00    +0.000 C 
ATOM     12  C   UNL     1       2.766   2.055  17.450  0.00  0.00    +0.000 C 
ATOM     13  C   UNL     1       3.820   3.033  16.929  0.00  0.00    +0.000 C 
ATOM     14  C   UNL     1       3.963   4.025  18.081  0.00  0.00    +0.000 C 
ATOM     15  C   UNL     1       2.774   4.988  18.114  0.00  0.00    +0.000 C 
ENDROOT
BRANCH  14  16
ATOM     16  C   UNL     1       5.255   4.856  18.096  0.00  0.00    +0.000 C 
BRANCH  16  17
ATOM     17  O   UNL     1       6.186   4.417  17.109  0.00  0.00    +0.000 OA
BRANCH  17  18
ATOM     18  C   UNL     1       6.483   5.495  16.207  0.00  0.00    +0.000 C 
BRANCH  18  19
ATOM     19  C   UNL     1       6.632   5.032  14.778  0.00  0.00    +0.000 A 
ATOM     20  C   UNL     1       5.739   4.119  14.221  0.00  0.00    +0.000 A 
ATOM     21  C   UNL     1       5.952   3.681  12.916  0.00  0.00    +0.000 A 
ATOM     22  C   UNL     1       7.052   4.151  12.210  0.00  0.00    +0.000 A 
ATOM     23  C   UNL     1       7.901   5.043  12.840  0.00  0.00    +0.000 A 
ATOM     24  N   UNL     1       7.720   5.487  14.103  0.00  0.00    +0.000 NA
ENDBRANCH  18  19
ENDBRANCH  17  18
ENDBRANCH  16  17
ENDBRANCH  14  16
TORSDOF 4
ENDMDL
MODEL 3
REMARK VINA RESULT:      -7.6      1.518      4.717
REMARK  Name = 
REMARK  4 active torsions:
REMARK  status: ('A' for Active; 'I' for Inactive)
REMARK    1  A    between atoms: C_14  and  C_15
REMARK    2  A    between atoms: C_15  and  O_16
REMARK    3  A    between atoms: O_16  and  C_17
REMARK    4  A    between atoms: C_17  and  C_18
REMARK                            x       y       z     vdW  Elec       q    Type
REMARK                         _______ _______ _______ _____ _____    ______ ____
ROOT
ATOM      1  O   UNL     1       2.780   8.763  17.162  0.00  0.00    +0.000 OA
ATOM      2  C   UNL     1       3.057   7.809  17.898  0.00  0.00    +0.000 C 
ATOM      3  N   UNL     1       2.377   7.632  19.079  0.00  0.00    +0.000 N 
ATOM      4  C   UNL     1       1.318   8.572  19.429  0.00  0.00    +0.000 C 
ATOM      5  C   UNL     1       1.006   8.284  20.889  0.00  0.00    +0.000 C 
ATOM      6  C   UNL     1       1.245   6.791  20.999  0.00  0.00    +0.000 C 
ATOM      7  C   UNL     1       2.400   6.545  20.040  0.00  0.00    +0.000 C 
ATOM      8  N   UNL     1       4.026   6.917  17.514  0.00  0.00    +0.000 N 
ATOM      9  C   UNL     1       4.673   7.058  16.208  0.00  0.00    +0.000 C 
ATOM     10  C   UNL     1       5.378   5.720  15.927  0.00  0.00    +0.000 C 
ATOM     11  C   UNL     1       6.916   5.727  15.904  0.00  0.00    +0.000 C 
ATOM     12  C   UNL     1       7.368   5.049  17.192  0.00  0.00    +0.000 C 
ATOM     13  C   UNL     1       6.252   4.043  17.475  0.00  0.00    +0.000 C 
ATOM     14  C   UNL     1       4.990   4.828  17.124  0.00  0.00    +0.000 C 
ATOM     15  C   UNL     1       4.657   5.836  18.226  0.00  0.00    +0.000 C 
ENDROOT
BRANCH  14  16
ATOM     16  C   UNL     1       3.733   3.990  16.844  0.00  0.00    +0.000 C 
BRANCH  16  17
ATOM     17  O   UNL     1       3.900   2.628  17.233  0.00  0.00    +0.000 OA
BRANCH  17  18
ATOM     18  C   UNL     1       2.641   2.088  17.667  0.00  0.00    +0.000 C 
BRANCH  18  19
ATOM     19  C   UNL     1       2.336   2.414  19.108  0.00  0.00    +0.000 A 
ATOM     20  C   UNL     1       1.051   2.772  19.509  0.00  0.00    +0.000 A 
ATOM     21  C   UNL     1       0.832   3.117  20.840  0.00  0.00    +0.000 A 
ATOM     22  C   UNL     1       1.900   3.110  21.730  0.00  0.00    +0.000 A 
ATOM     23  C   UNL     1       3.148   2.759  21.250  0.00  0.00    +0.000 A 
ATOM     24  N   UNL     1       3.391   2.418  19.966  0.00  0.00    +0.000 NA
ENDBRANCH  18  19
ENDBRANCH  17  18
ENDBRANCH  16  17
ENDBRANCH  14  16
TORSDOF 4
ENDMDL
MODEL 4
REMARK VINA RESULT:      -7.4      1.959      6.339
REMARK  Name = 
REMARK  4 active torsions:
REMARK  status: ('A' for Active; 'I' for Inactive)
REMARK    1  A    between atoms: C_14  and  C_15
REMARK    2  A    between atoms: C_15  and  O_16
REMARK    3  A    between atoms: O_16  and  C_17
REMARK    4  A    between atoms: C_17  and  C_18
REMARK                            x       y       z     vdW  Elec       q    Type
REMARK                         _______ _______ _______ _____ _____    ______ ____
ROOT
ATOM      1  O   UNL     1       1.273   7.539  21.510  0.00  0.00    +0.000 OA
ATOM      2  C   UNL     1       1.651   7.339  20.350  0.00  0.00    +0.000 C 
ATOM      3  N   UNL     1       1.669   8.373  19.446  0.00  0.00    +0.000 N 
ATOM      4  C   UNL     1       1.259   9.700  19.887  0.00  0.00    +0.000 C 
ATOM      5  C   UNL     1       1.097  10.505  18.607  0.00  0.00    +0.000 C 
ATOM      6  C   UNL     1       2.161   9.917  17.699  0.00  0.00    +0.000 C 
ATOM      7  C   UNL     1       2.189   8.448  18.092  0.00  0.00    +0.000 C 
ATOM      8  N   UNL     1       2.076   6.087  19.984  0.00  0.00    +0.000 N 
ATOM      9  C   UNL     1       2.148   5.017  20.982  0.00  0.00    +0.000 C 
ATOM     10  C   UNL     1       3.017   3.907  20.366  0.00  0.00    +0.000 C 
ATOM     11  C   UNL     1       2.321   2.580  20.021  0.00  0.00    +0.000 C 
ATOM     12  C   UNL     1       2.193   2.543  18.503  0.00  0.00    +0.000 C 
ATOM     13  C   UNL     1       3.412   3.332  18.024  0.00  0.00    +0.000 C 
ATOM     14  C   UNL     1       3.477   4.492  19.014  0.00  0.00    +0.000 C 
ATOM     15  C   UNL     1       2.405   5.536  18.694  0.00  0.00    +0.000 C 
ENDROOT
BRANCH  14  16
ATOM     16  C   UNL     1       4.831   5.210  19.120  0.00  0.00    +0.000 C 
BRANCH  16  17
ATOM     17  O   UNL     1       5.769   4.731  18.159  0.00  0.00    +0.000 OA
BRANCH  17  18
ATOM     18  C   UNL     1       6.062   5.767  17.207  0.00  0.00    +0.000 C 
BRANCH  18  19
ATOM     19  C   UNL     1       6.205   5.238  15.801  0.00  0.00    +0.000 A 
ATOM     20  C   UNL     1       5.211   4.452  15.222  0.00  0.00    +0.000 A 
ATOM     21  C   UNL     1       5.416   3.943  13.943  0.00  0.00    +0.000 A 
ATOM     22  C   UNL     1       6.607   4.218  13.282  0.00  0.00    +0.000 A 
ATOM     23  C   UNL     1       7.551   4.993  13.931  0.00  0.00    +0.000 A 
ATOM     24  N   UNL     1       7.381   5.502  15.170  0.00  0.00    +0.000 NA
ENDBRANCH  18  19
ENDBRANCH  17  18
ENDBRANCH  16  17
ENDBRANCH  14  16
TORSDOF 4
ENDMDL
MODEL 5
REMARK VINA RESULT:      -7.4      1.845      4.793
REMARK  Name = 
REMARK  4 active torsions:
REMARK  status: ('A' for Active; 'I' for Inactive)
REMARK    1  A    between atoms: C_14  and  C_15
REMARK    2  A    between atoms: C_15  and  O_16
REMARK    3  A    between atoms: O_16  and  C_17
REMARK    4  A    between atoms: C_17  and  C_18
REMARK                            x       y       z     vdW  Elec       q    Type
REMARK                         _______ _______ _______ _____ _____    ______ ____
ROOT
ATOM      1  O   UNL     1       4.140   6.094  16.570  0.00  0.00    +0.000 OA
ATOM      2  C   UNL     1       4.461   5.515  17.614  0.00  0.00    +0.000 C 
ATOM      3  N   UNL     1       5.721   5.684  18.134  0.00  0.00    +0.000 N 
ATOM      4  C   UNL     1       6.653   6.570  17.447  0.00  0.00    +0.000 C 
ATOM      5  C   UNL     1       8.004   6.289  18.085  0.00  0.00    +0.000 C 
ATOM      6  C   UNL     1       7.640   5.959  19.519  0.00  0.00    +0.000 C 
ATOM      7  C   UNL     1       6.301   5.248  19.391  0.00  0.00    +0.000 C 
ATOM      8  N   UNL     1       3.542   4.727  18.259  0.00  0.00    +0.000 N 
ATOM      9  C   UNL     1       2.172   4.634  17.751  0.00  0.00    +0.000 C 
ATOM     10  C   UNL     1       1.328   4.030  18.887  0.00  0.00    +0.000 C 
ATOM     11  C   UNL     1       0.758   2.619  18.665  0.00  0.00    +0.000 C 
ATOM     12  C   UNL     1       1.580   1.680  19.539  0.00  0.00    +0.000 C 
ATOM     13  C   UNL     1       1.982   2.558  20.725  0.00  0.00    +0.000 C 
ATOM     14  C   UNL     1       2.318   3.892  20.062  0.00  0.00    +0.000 C 
ATOM     15  C   UNL     1       3.682   3.824  19.373  0.00  0.00    +0.000 C 
ENDROOT
BRANCH  14  16
ATOM     16  C   UNL     1       2.305   5.122  20.983  0.00  0.00    +0.000 C 
BRANCH  16  17
ATOM     17  O   UNL     1       1.221   6.001  20.689  0.00  0.00    +0.000 OA
BRANCH  17  18
ATOM     18  C   UNL     1       1.540   7.330  21.130  0.00  0.00    +0.000 C 
BRANCH  18  19
ATOM     19  C   UNL     1       1.514   8.337  20.006  0.00  0.00    +0.000 A 
ATOM     20  C   UNL     1       2.137   8.072  18.789  0.00  0.00    +0.000 A 
ATOM     21  C   UNL     1       2.132   9.056  17.803  0.00  0.00    +0.000 A 
ATOM     22  C   UNL     1       1.521  10.277  18.061  0.00  0.00    +0.000 A 
ATOM     23  C   UNL     1       0.940  10.467  19.301  0.00  0.00    +0.000 A 
ATOM     24  N   UNL     1       0.926   9.533  20.276  0.00  0.00    +0.000 NA
ENDBRANCH  18  19
ENDBRANCH  17  18
ENDBRANCH  16  17
ENDBRANCH  14  16
TORSDOF 4
ENDMDL
MODEL 6
REMARK VINA RESULT:      -7.3      1.735      6.070
REMARK  Name = 
REMARK  4 active torsions:
REMARK  status: ('A' for Active; 'I' for Inactive)
REMARK    1  A    between atoms: C_14  and  C_15
REMARK    2  A    between atoms: C_15  and  O_16
REMARK    3  A    between atoms: O_16  and  C_17
REMARK    4  A    between atoms: C_17  and  C_18
REMARK                            x       y       z     vdW  Elec       q    Type
REMARK                         _______ _______ _______ _____ _____    ______ ____
ROOT
ATOM      1  O   UNL     1       1.076   7.398  21.486  0.00  0.00    +0.000 OA
ATOM      2  C   UNL     1       1.556   7.258  20.356  0.00  0.00    +0.000 C 
ATOM      3  N   UNL     1       1.605   8.326  19.493  0.00  0.00    +0.000 N 
ATOM      4  C   UNL     1       1.105   9.618  19.944  0.00  0.00    +0.000 C 
ATOM      5  C   UNL     1       1.015  10.465  18.684  0.00  0.00    +0.000 C 
ATOM      6  C   UNL     1       2.173   9.953  17.849  0.00  0.00    +0.000 C 
ATOM      7  C   UNL     1       2.231   8.473  18.191  0.00  0.00    +0.000 C 
ATOM      8  N   UNL     1       2.062   6.038  19.983  0.00  0.00    +0.000 N 
ATOM      9  C   UNL     1       2.097   4.935  20.945  0.00  0.00    +0.000 C 
ATOM     10  C   UNL     1       3.059   3.884  20.366  0.00  0.00    +0.000 C 
ATOM     11  C   UNL     1       2.450   2.545  19.917  0.00  0.00    +0.000 C 
ATOM     12  C   UNL     1       2.450   2.561  18.394  0.00  0.00    +0.000 C 
ATOM     13  C   UNL     1       3.670   3.415  18.047  0.00  0.00    +0.000 C 
ATOM     14  C   UNL     1       3.604   4.538  19.079  0.00  0.00    +0.000 C 
ATOM     15  C   UNL     1       2.519   5.550  18.707  0.00  0.00    +0.000 C 
ENDROOT
BRANCH  14  16
ATOM     16  C   UNL     1       4.913   5.304  19.323  0.00  0.00    +0.000 C 
BRANCH  16  17
ATOM     17  O   UNL     1       6.056   4.456  19.228  0.00  0.00    +0.000 OA
BRANCH  17  18
ATOM     18  C   UNL     1       7.031   5.051  18.356  0.00  0.00    +0.000 C 
BRANCH  18  19
ATOM     19  C   UNL     1       6.579   5.086  16.917  0.00  0.00    +0.000 A 
ATOM     20  C   UNL     1       5.787   6.127  16.437  0.00  0.00    +0.000 A 
ATOM     21  C   UNL     1       5.350   6.085  15.115  0.00  0.00    +0.000 A 
ATOM     22  C   UNL     1       5.700   5.004  14.315  0.00  0.00    +0.000 A 
ATOM     23  C   UNL     1       6.475   4.003  14.872  0.00  0.00    +0.000 A 
ATOM     24  N   UNL     1       6.916   4.016  16.149  0.00  0.00    +0.000 NA
ENDBRANCH  18  19
ENDBRANCH  17  18
ENDBRANCH  16  17
ENDBRANCH  14  16
TORSDOF 4
ENDMDL
MODEL 7
REMARK VINA RESULT:      -7.2      1.545      4.746
REMARK  Name = 
REMARK  4 active torsions:
REMARK  status: ('A' for Active; 'I' for Inactive)
REMARK    1  A    between atoms: C_14  and  C_15
REMARK    2  A    between atoms: C_15  and  O_16
REMARK    3  A    between atoms: O_16  and  C_17
REMARK    4  A    between atoms: C_17  and  C_18
REMARK                            x       y       z     vdW  Elec       q    Type
REMARK                         _______ _______ _______ _____ _____    ______ ____
ROOT
ATOM      1  O   UNL     1       2.676   8.906  17.086  0.00  0.00    +0.000 OA
ATOM      2  C   UNL     1       2.930   8.031  17.921  0.00  0.00    +0.000 C 
ATOM      3  N   UNL     1       2.226   7.981  19.100  0.00  0.00    +0.000 N 
ATOM      4  C   UNL     1       1.168   8.957  19.330  0.00  0.00    +0.000 C 
ATOM      5  C   UNL     1       0.824   8.822  20.805  0.00  0.00    +0.000 C 
ATOM      6  C   UNL     1       1.049   7.346  21.072  0.00  0.00    +0.000 C 
ATOM      7  C   UNL     1       2.221   6.997  20.167  0.00  0.00    +0.000 C 
ATOM      8  N   UNL     1       3.900   7.100  17.650  0.00  0.00    +0.000 N 
ATOM      9  C   UNL     1       4.574   7.102  16.350  0.00  0.00    +0.000 C 
ATOM     10  C   UNL     1       5.274   5.738  16.222  0.00  0.00    +0.000 C 
ATOM     11  C   UNL     1       6.812   5.734  16.231  0.00  0.00    +0.000 C 
ATOM     12  C   UNL     1       7.233   5.188  17.590  0.00  0.00    +0.000 C 
ATOM     13  C   UNL     1       6.103   4.224  17.951  0.00  0.00    +0.000 C 
ATOM     14  C   UNL     1       4.855   4.976  17.496  0.00  0.00    +0.000 C 
ATOM     15  C   UNL     1       4.509   6.093  18.482  0.00  0.00    +0.000 C 
ENDROOT
BRANCH  14  16
ATOM     16  C   UNL     1       3.598   4.120  17.277  0.00  0.00    +0.000 C 
BRANCH  16  17
ATOM     17  O   UNL     1       3.908   2.735  17.144  0.00  0.00    +0.000 OA
BRANCH  17  18
ATOM     18  C   UNL     1       2.868   1.944  17.741  0.00  0.00    +0.000 C 
BRANCH  18  19
ATOM     19  C   UNL     1       2.428   2.479  19.082  0.00  0.00    +0.000 A 
ATOM     20  C   UNL     1       3.242   2.358  20.206  0.00  0.00    +0.000 A 
ATOM     21  C   UNL     1       2.768   2.819  21.432  0.00  0.00    +0.000 A 
ATOM     22  C   UNL     1       1.495   3.372  21.506  0.00  0.00    +0.000 A 
ATOM     23  C   UNL     1       0.744   3.440  20.347  0.00  0.00    +0.000 A 
ATOM     24  N   UNL     1       1.176   3.004  19.145  0.00  0.00    +0.000 NA
ENDBRANCH  18  19
ENDBRANCH  17  18
ENDBRANCH  16  17
ENDBRANCH  14  16
TORSDOF 4
ENDMDL
MODEL 8
REMARK VINA RESULT:      -7.2      1.917      4.975
REMARK  Name = 
REMARK  4 active torsions:
REMARK  status: ('A' for Active; 'I' for Inactive)
REMARK    1  A    between atoms: C_14  and  C_15
REMARK    2  A    between atoms: C_15  and  O_16
REMARK    3  A    between atoms: O_16  and  C_17
REMARK    4  A    between atoms: C_17  and  C_18
REMARK                            x       y       z     vdW  Elec       q    Type
REMARK                         _______ _______ _______ _____ _____    ______ ____
ROOT
ATOM      1  O   UNL     1       3.622   3.635  16.032  0.00  0.00    +0.000 OA
ATOM      2  C   UNL     1       4.100   3.966  17.123  0.00  0.00    +0.000 C 
ATOM      3  N   UNL     1       5.412   4.366  17.204  0.00  0.00    +0.000 N 
ATOM      4  C   UNL     1       6.211   4.411  15.986  0.00  0.00    +0.000 C 
ATOM      5  C   UNL     1       7.645   4.579  16.463  0.00  0.00    +0.000 C 
ATOM      6  C   UNL     1       7.489   5.414  17.720  0.00  0.00    +0.000 C 
ATOM      7  C   UNL     1       6.171   4.930  18.306  0.00  0.00    +0.000 C 
ATOM      8  N   UNL     1       3.305   3.956  18.241  0.00  0.00    +0.000 N 
ATOM      9  C   UNL     1       1.883   3.627  18.125  0.00  0.00    +0.000 C 
ATOM     10  C   UNL     1       1.222   4.092  19.433  0.00  0.00    +0.000 C 
ATOM     11  C   UNL     1       0.677   3.002  20.372  0.00  0.00    +0.000 C 
ATOM     12  C   UNL     1       1.643   2.926  21.549  0.00  0.00    +0.000 C 
ATOM     13  C   UNL     1       2.168   4.357  21.671  0.00  0.00    +0.000 C 
ATOM     14  C   UNL     1       2.365   4.773  20.215  0.00  0.00    +0.000 C 
ATOM     15  C   UNL     1       3.626   4.128  19.635  0.00  0.00    +0.000 C 
ENDROOT
BRANCH  14  16
ATOM     16  C   UNL     1       2.432   6.285  19.951  0.00  0.00    +0.000 C 
BRANCH  16  17
ATOM     17  O   UNL     1       1.517   7.013  20.767  0.00  0.00    +0.000 OA
BRANCH  17  18
ATOM     18  C   UNL     1       1.394   8.358  20.279  0.00  0.00    +0.000 C 
BRANCH  18  19
ATOM     19  C   UNL     1       0.531   9.221  21.167  0.00  0.00    +0.000 A 
ATOM     20  C   UNL     1      -0.086  10.369  20.675  0.00  0.00    +0.000 A 
ATOM     21  C   UNL     1      -0.826  11.162  21.548  0.00  0.00    +0.000 A 
ATOM     22  C   UNL     1      -0.920  10.798  22.886  0.00  0.00    +0.000 A 
ATOM     23  C   UNL     1      -0.264   9.653  23.299  0.00  0.00    +0.000 A 
ATOM     24  N   UNL     1       0.459   8.863  22.477  0.00  0.00    +0.000 NA
ENDBRANCH  18  19
ENDBRANCH  17  18
ENDBRANCH  16  17
ENDBRANCH  14  16
TORSDOF 4
ENDMDL
MODEL 9
REMARK VINA RESULT:      -7.2      1.751      4.841
REMARK  Name = 
REMARK  4 active torsions:
REMARK  status: ('A' for Active; 'I' for Inactive)
REMARK    1  A    between atoms: C_14  and  C_15
REMARK    2  A    between atoms: C_15  and  O_16
REMARK    3  A    between atoms: O_16  and  C_17
REMARK    4  A    between atoms: C_17  and  C_18
REMARK                            x       y       z     vdW  Elec       q    Type
REMARK                         _______ _______ _______ _____ _____    ______ ____
ROOT
ATOM      1  O   UNL     1       3.642   3.308  16.002  0.00  0.00    +0.000 OA
ATOM      2  C   UNL     1       4.093   3.837  17.023  0.00  0.00    +0.000 C 
ATOM      3  N   UNL     1       5.347   4.399  17.010  0.00  0.00    +0.000 N 
ATOM      4  C   UNL     1       6.114   4.378  15.771  0.00  0.00    +0.000 C 
ATOM      5  C   UNL     1       7.524   4.779  16.176  0.00  0.00    +0.000 C 
ATOM      6  C   UNL     1       7.286   5.750  17.316  0.00  0.00    +0.000 C 
ATOM      7  C   UNL     1       6.048   5.193  18.003  0.00  0.00    +0.000 C 
ATOM      8  N   UNL     1       3.323   3.881  18.158  0.00  0.00    +0.000 N 
ATOM      9  C   UNL     1       1.952   3.370  18.132  0.00  0.00    +0.000 C 
ATOM     10  C   UNL     1       1.259   3.923  19.389  0.00  0.00    +0.000 C 
ATOM     11  C   UNL     1       0.869   2.911  20.480  0.00  0.00    +0.000 C 
ATOM     12  C   UNL     1       1.855   3.110  21.624  0.00  0.00    +0.000 C 
ATOM     13  C   UNL     1       2.201   4.597  21.541  0.00  0.00    +0.000 C 
ATOM     14  C   UNL     1       2.321   4.835  20.038  0.00  0.00    +0.000 C 
ATOM     15  C   UNL     1       3.643   4.276  19.507  0.00  0.00    +0.000 C 
ENDROOT
BRANCH  14  16
ATOM     16  C   UNL     1       2.197   6.295  19.576  0.00  0.00    +0.000 C 
BRANCH  16  17
ATOM     17  O   UNL     1       1.775   7.157  20.632  0.00  0.00    +0.000 OA
BRANCH  17  18
ATOM     18  C   UNL     1       1.552   8.480  20.119  0.00  0.00    +0.000 C 
BRANCH  18  19
ATOM     19  C   UNL     1       0.725   9.332  21.052  0.00  0.00    +0.000 A 
ATOM     20  C   UNL     1       0.537   8.967  22.383  0.00  0.00    +0.000 A 
ATOM     21  C   UNL     1      -0.280   9.756  23.188  0.00  0.00    +0.000 A 
ATOM     22  C   UNL     1      -0.895  10.877  22.643  0.00  0.00    +0.000 A 
ATOM     23  C   UNL     1      -0.671  11.162  21.309  0.00  0.00    +0.000 A 
ATOM     24  N   UNL     1       0.117  10.417  20.503  0.00  0.00    +0.000 NA
ENDBRANCH  18  19
ENDBRANCH  17  18
ENDBRANCH  16  17
ENDBRANCH  14  16
TORSDOF 4
ENDMDL
