MODEL 1
REMARK VINA RESULT:      -7.2      0.000      0.000
REMARK  Name = 
REMARK  7 active torsions:
REMARK  status: ('A' for Active; 'I' for Inactive)
REMARK    1  A    between atoms: C_1  and  O_2
REMARK    2  A    between atoms: O_2  and  C_3
REMARK    3  A    between atoms: C_6  and  C_7
REMARK    4  A    between atoms: C_7  and  C_9
REMARK    5  A    between atoms: C_9  and  C_11
REMARK    6  A    between atoms: C_14  and  C_15
REMARK    7  A    between atoms: C_15  and  O_17
REMARK                            x       y       z     vdW  Elec       q    Type
REMARK                         _______ _______ _______ _____ _____    ______ ____
ROOT
ATOM      1  C   UNL     1       2.873   4.111  19.344  0.00  0.00    +0.000 C 
ATOM      2  O   UNL     1       2.014   3.280  19.603  0.00  0.00    +0.000 OA
ENDROOT
BRANCH   1   3
ATOM      3  C   UNL     1       2.537   5.555  19.174  0.00  0.00    +0.000 A 
ATOM      4  C   UNL     1       2.595   6.169  17.920  0.00  0.00    +0.000 A 
ATOM      5  C   UNL     1       2.295   7.526  17.783  0.00  0.00    +0.000 A 
ATOM      6  C   UNL     1       1.938   8.301  18.892  0.00  0.00    +0.000 A 
ATOM      7  C   UNL     1       1.863   7.691  20.153  0.00  0.00    +0.000 A 
ATOM      8  C   UNL     1       2.161   6.322  20.289  0.00  0.00    +0.000 A 
BRANCH   6   9
ATOM      9  C   UNL     1       1.612   9.731  18.638  0.00  0.00    +0.000 C 
ATOM     10  O   UNL     1       1.063  10.433  19.473  0.00  0.00    +0.000 OA
BRANCH   9  11
ATOM     11  O   UNL     1       1.916  10.176  17.403  0.00  0.00    +0.000 OA
ATOM     12  H   UNL     1       2.142   9.499  16.742  0.00  0.00    +0.000 HD
ENDBRANCH   9  11
ENDBRANCH   6   9
ENDBRANCH   1   3
BRANCH   1  13
ATOM     13  C   UNL     1       4.322   3.663  19.222  0.00  0.00    +0.000 C 
ATOM     14  O   UNL     1       4.774   2.933  20.094  0.00  0.00    +0.000 OA
BRANCH  13  18
ATOM     15  C   UNL     1       6.770   4.872  15.893  0.00  0.00    +0.000 A 
ATOM     16  C   UNL     1       7.114   5.209  17.202  0.00  0.00    +0.000 A 
ATOM     17  C   UNL     1       6.317   4.798  18.275  0.00  0.00    +0.000 A 
ATOM     18  C   UNL     1       5.145   4.063  18.047  0.00  0.00    +0.000 A 
ATOM     19  C   UNL     1       4.797   3.731  16.735  0.00  0.00    +0.000 A 
ATOM     20  C   UNL     1       5.605   4.137  15.664  0.00  0.00    +0.000 A 
BRANCH  15  22
ATOM     21  C   UNL     1       7.295   4.949  13.590  0.00  0.00    +0.000 C 
ATOM     22  O   UNL     1       7.609   5.342  14.923  0.00  0.00    +0.000 OA
ENDBRANCH  15  22
ENDBRANCH  13  18
ENDBRANCH   1  13
TORSDOF 6
ENDMDL
MODEL 2
REMARK VINA RESULT:      -7.2      2.609      6.892
REMARK  Name = 
REMARK  7 active torsions:
REMARK  status: ('A' for Active; 'I' for Inactive)
REMARK    1  A    between atoms: C_1  and  O_2
REMARK    2  A    between atoms: O_2  and  C_3
REMARK    3  A    between atoms: C_6  and  C_7
REMARK    4  A    between atoms: C_7  and  C_9
REMARK    5  A    between atoms: C_9  and  C_11
REMARK    6  A    between atoms: C_14  and  C_15
REMARK    7  A    between atoms: C_15  and  O_17
REMARK                            x       y       z     vdW  Elec       q    Type
REMARK                         _______ _______ _______ _____ _____    ______ ____
ROOT
ATOM      1  C   UNL     1       6.989   5.771  16.688  0.00  0.00    +0.000 C 
ATOM      2  O   UNL     1       7.592   6.834  16.645  0.00  0.00    +0.000 OA
ENDROOT
BRANCH   1   3
ATOM      3  C   UNL     1       6.561   5.064  15.445  0.00  0.00    +0.000 A 
ATOM      4  C   UNL     1       5.313   4.441  15.359  0.00  0.00    +0.000 A 
ATOM      5  C   UNL     1       4.938   3.769  14.195  0.00  0.00    +0.000 A 
ATOM      6  C   UNL     1       5.797   3.698  13.093  0.00  0.00    +0.000 A 
ATOM      7  C   UNL     1       7.047   4.333  13.163  0.00  0.00    +0.000 A 
ATOM      8  C   UNL     1       7.422   5.013  14.336  0.00  0.00    +0.000 A 
BRANCH   6   9
ATOM      9  C   UNL     1       5.293   2.981  11.889  0.00  0.00    +0.000 C 
ATOM     10  O   UNL     1       4.344   3.389  11.238  0.00  0.00    +0.000 OA
BRANCH   9  11
ATOM     11  O   UNL     1       5.925   1.825  11.606  0.00  0.00    +0.000 OA
ATOM     12  H   UNL     1       5.649   1.045  12.117  0.00  0.00    +0.000 HD
ENDBRANCH   9  11
ENDBRANCH   6   9
ENDBRANCH   1   3
BRANCH   1  13
ATOM     13  C   UNL     1       6.697   5.141  18.041  0.00  0.00    +0.000 C 
ATOM     14  O   UNL     1       7.645   4.776  18.724  0.00  0.00    +0.000 OA
BRANCH  13  18
ATOM     15  C   UNL     1       2.672   4.691  19.502  0.00  0.00    +0.000 A 
ATOM     16  C   UNL     1       3.586   3.639  19.570  0.00  0.00    +0.000 A 
ATOM     17  C   UNL     1       4.894   3.804  19.103  0.00  0.00    +0.000 A 
ATOM     18  C   UNL     1       5.298   5.021  18.538  0.00  0.00    +0.000 A 
ATOM     19  C   UNL     1       4.379   6.073  18.465  0.00  0.00    +0.000 A 
ATOM     20  C   UNL     1       3.073   5.906  18.943  0.00  0.00    +0.000 A 
BRANCH  15  22
ATOM     21  C   UNL     1       1.330   3.347  20.909  0.00  0.00    +0.000 C 
ATOM     22  O   UNL     1       1.418   4.414  19.969  0.00  0.00    +0.000 OA
ENDBRANCH  15  22
ENDBRANCH  13  18
ENDBRANCH   1  13
TORSDOF 6
ENDMDL
MODEL 3
REMARK VINA RESULT:      -7.2      1.640      2.397
REMARK  Name = 
REMARK  7 active torsions:
REMARK  status: ('A' for Active; 'I' for Inactive)
REMARK    1  A    between atoms: C_1  and  O_2
REMARK    2  A    between atoms: O_2  and  C_3
REMARK    3  A    between atoms: C_6  and  C_7
REMARK    4  A    between atoms: C_7  and  C_9
REMARK    5  A    between atoms: C_9  and  C_11
REMARK    6  A    between atoms: C_14  and  C_15
REMARK    7  A    between atoms: C_15  and  O_17
REMARK                            x       y       z     vdW  Elec       q    Type
REMARK                         _______ _______ _______ _____ _____    ______ ____
ROOT
ATOM      1  C   UNL     1       2.346   3.604  18.126  0.00  0.00    +0.000 C 
ATOM      2  O   UNL     1       1.421   2.867  17.815  0.00  0.00    +0.000 OA
ENDROOT
BRANCH   1   3
ATOM      3  C   UNL     1       2.112   4.888  18.850  0.00  0.00    +0.000 A 
ATOM      4  C   UNL     1       2.315   6.120  18.222  0.00  0.00    +0.000 A 
ATOM      5  C   UNL     1       2.109   7.311  18.921  0.00  0.00    +0.000 A 
ATOM      6  C   UNL     1       1.704   7.302  20.260  0.00  0.00    +0.000 A 
ATOM      7  C   UNL     1       1.485   6.070  20.896  0.00  0.00    +0.000 A 
ATOM      8  C   UNL     1       1.688   4.870  20.189  0.00  0.00    +0.000 A 
BRANCH   6   9
ATOM      9  C   UNL     1       1.487   8.624  20.909  0.00  0.00    +0.000 C 
ATOM     10  O   UNL     1       1.066   9.591  20.292  0.00  0.00    +0.000 OA
BRANCH   9  11
ATOM     11  O   UNL     1       1.841   8.689  22.207  0.00  0.00    +0.000 OA
ATOM     12  H   UNL     1       2.001   9.578  22.568  0.00  0.00    +0.000 HD
ENDBRANCH   9  11
ENDBRANCH   6   9
ENDBRANCH   1   3
BRANCH   1  13
ATOM     13  C   UNL     1       3.769   3.185  17.792  0.00  0.00    +0.000 C 
ATOM     14  O   UNL     1       4.001   1.992  17.650  0.00  0.00    +0.000 OA
BRANCH  13  18
ATOM     15  C   UNL     1       6.825   6.140  17.107  0.00  0.00    +0.000 A 
ATOM     16  C   UNL     1       6.001   5.700  16.070  0.00  0.00    +0.000 A 
ATOM     17  C   UNL     1       5.004   4.749  16.310  0.00  0.00    +0.000 A 
ATOM     18  C   UNL     1       4.835   4.206  17.592  0.00  0.00    +0.000 A 
ATOM     19  C   UNL     1       5.665   4.643  18.628  0.00  0.00    +0.000 A 
ATOM     20  C   UNL     1       6.656   5.603  18.384  0.00  0.00    +0.000 A 
BRANCH  15  22
ATOM     21  C   UNL     1       7.904   8.179  17.622  0.00  0.00    +0.000 C 
ATOM     22  O   UNL     1       7.777   7.055  16.755  0.00  0.00    +0.000 OA
ENDBRANCH  15  22
ENDBRANCH  13  18
ENDBRANCH   1  13
TORSDOF 6
ENDMDL
MODEL 4
REMARK VINA RESULT:      -7.2      1.618      2.541
REMARK  Name = 
REMARK  7 active torsions:
REMARK  status: ('A' for Active; 'I' for Inactive)
REMARK    1  A    between atoms: C_1  and  O_2
REMARK    2  A    between atoms: O_2  and  C_3
REMARK    3  A    between atoms: C_6  and  C_7
REMARK    4  A    between atoms: C_7  and  C_9
REMARK    5  A    between atoms: C_9  and  C_11
REMARK    6  A    between atoms: C_14  and  C_15
REMARK    7  A    between atoms: C_15  and  O_17
REMARK                            x       y       z     vdW  Elec       q    Type
REMARK                         _______ _______ _______ _____ _____    ______ ____
ROOT
ATOM      1  C   UNL     1       2.276   3.504  18.231  0.00  0.00    +0.000 C 
ATOM      2  O   UNL     1       1.330   2.767  17.991  0.00  0.00    +0.000 OA
ENDROOT
BRANCH   1   3
ATOM      3  C   UNL     1       2.089   4.822  18.906  0.00  0.00    +0.000 A 
ATOM      4  C   UNL     1       1.703   4.900  20.247  0.00  0.00    +0.000 A 
ATOM      5  C   UNL     1       1.516   6.141  20.857  0.00  0.00    +0.000 A 
ATOM      6  C   UNL     1       1.702   7.331  20.144  0.00  0.00    +0.000 A 
ATOM      7  C   UNL     1       2.103   7.264  18.801  0.00  0.00    +0.000 A 
ATOM      8  C   UNL     1       2.296   6.012  18.189  0.00  0.00    +0.000 A 
BRANCH   6   9
ATOM      9  C   UNL     1       1.502   8.603  20.892  0.00  0.00    +0.000 C 
ATOM     10  O   UNL     1       1.084   9.616  20.353  0.00  0.00    +0.000 OA
BRANCH   9  11
ATOM     11  O   UNL     1       1.870   8.568  22.187  0.00  0.00    +0.000 OA
ATOM     12  H   UNL     1       1.484   9.249  22.765  0.00  0.00    +0.000 HD
ENDBRANCH   9  11
ENDBRANCH   6   9
ENDBRANCH   1   3
BRANCH   1  13
ATOM     13  C   UNL     1       3.680   3.050  17.857  0.00  0.00    +0.000 C 
ATOM     14  O   UNL     1       3.876   1.852  17.704  0.00  0.00    +0.000 OA
BRANCH  13  18
ATOM     15  C   UNL     1       6.793   5.928  17.108  0.00  0.00    +0.000 A 
ATOM     16  C   UNL     1       5.948   5.496  16.086  0.00  0.00    +0.000 A 
ATOM     17  C   UNL     1       4.932   4.571  16.346  0.00  0.00    +0.000 A 
ATOM     18  C   UNL     1       4.766   4.045  17.635  0.00  0.00    +0.000 A 
ATOM     19  C   UNL     1       5.617   4.473  18.658  0.00  0.00    +0.000 A 
ATOM     20  C   UNL     1       6.627   5.408  18.393  0.00  0.00    +0.000 A 
BRANCH  15  22
ATOM     21  C   UNL     1       7.835   8.011  17.512  0.00  0.00    +0.000 C 
ATOM     22  O   UNL     1       7.762   6.818  16.737  0.00  0.00    +0.000 OA
ENDBRANCH  15  22
ENDBRANCH  13  18
ENDBRANCH   1  13
TORSDOF 6
ENDMDL
MODEL 5
REMARK VINA RESULT:      -7.2      2.594      6.909
REMARK  Name = 
REMARK  7 active torsions:
REMARK  status: ('A' for Active; 'I' for Inactive)
REMARK    1  A    between atoms: C_1  and  O_2
REMARK    2  A    between atoms: O_2  and  C_3
REMARK    3  A    between atoms: C_6  and  C_7
REMARK    4  A    between atoms: C_7  and  C_9
REMARK    5  A    between atoms: C_9  and  C_11
REMARK    6  A    between atoms: C_14  and  C_15
REMARK    7  A    between atoms: C_15  and  O_17
REMARK                            x       y       z     vdW  Elec       q    Type
REMARK                         _______ _______ _______ _____ _____    ______ ____
ROOT
ATOM      1  C   UNL     1       7.087   5.780  16.650  0.00  0.00    +0.000 C 
ATOM      2  O   UNL     1       7.648   6.865  16.594  0.00  0.00    +0.000 OA
ENDROOT
BRANCH   1   3
ATOM      3  C   UNL     1       6.653   5.061  15.416  0.00  0.00    +0.000 A 
ATOM      4  C   UNL     1       5.482   4.299  15.397  0.00  0.00    +0.000 A 
ATOM      5  C   UNL     1       5.101   3.618  14.239  0.00  0.00    +0.000 A 
ATOM      6  C   UNL     1       5.881   3.675  13.079  0.00  0.00    +0.000 A 
ATOM      7  C   UNL     1       7.052   4.448  13.083  0.00  0.00    +0.000 A 
ATOM      8  C   UNL     1       7.432   5.138  14.250  0.00  0.00    +0.000 A 
BRANCH   6   9
ATOM      9  C   UNL     1       5.376   2.935  11.890  0.00  0.00    +0.000 C 
ATOM     10  O   UNL     1       4.369   3.278  11.288  0.00  0.00    +0.000 OA
BRANCH   9  11
ATOM     11  O   UNL     1       6.077   1.832  11.562  0.00  0.00    +0.000 OA
ATOM     12  H   UNL     1       6.952   1.738  11.975  0.00  0.00    +0.000 HD
ENDBRANCH   9  11
ENDBRANCH   6   9
ENDBRANCH   1   3
BRANCH   1  13
ATOM     13  C   UNL     1       6.855   5.137  18.009  0.00  0.00    +0.000 C 
ATOM     14  O   UNL     1       7.833   4.834  18.678  0.00  0.00    +0.000 OA
BRANCH  13  18
ATOM     15  C   UNL     1       2.838   4.650  19.482  0.00  0.00    +0.000 A 
ATOM     16  C   UNL     1       3.271   5.867  18.954  0.00  0.00    +0.000 A 
ATOM     17  C   UNL     1       4.575   6.007  18.466  0.00  0.00    +0.000 A 
ATOM     18  C   UNL     1       5.473   4.932  18.526  0.00  0.00    +0.000 A 
ATOM     19  C   UNL     1       5.041   3.716  19.062  0.00  0.00    +0.000 A 
ATOM     20  C   UNL     1       3.731   3.578  19.539  0.00  0.00    +0.000 A 
BRANCH  15  22
ATOM     21  C   UNL     1       1.255   3.619  20.902  0.00  0.00    +0.000 C 
ATOM     22  O   UNL     1       1.553   4.632  19.947  0.00  0.00    +0.000 OA
ENDBRANCH  15  22
ENDBRANCH  13  18
ENDBRANCH   1  13
TORSDOF 6
ENDMDL
MODEL 6
REMARK VINA RESULT:      -7.1      0.934      6.301
REMARK  Name = 
REMARK  7 active torsions:
REMARK  status: ('A' for Active; 'I' for Inactive)
REMARK    1  A    between atoms: C_1  and  O_2
REMARK    2  A    between atoms: O_2  and  C_3
REMARK    3  A    between atoms: C_6  and  C_7
REMARK    4  A    between atoms: C_7  and  C_9
REMARK    5  A    between atoms: C_9  and  C_11
REMARK    6  A    between atoms: C_14  and  C_15
REMARK    7  A    between atoms: C_15  and  O_17
REMARK                            x       y       z     vdW  Elec       q    Type
REMARK                         _______ _______ _______ _____ _____    ______ ____
ROOT
ATOM      1  C   UNL     1       4.348   3.657  19.060  0.00  0.00    +0.000 C 
ATOM      2  O   UNL     1       4.876   3.059  19.986  0.00  0.00    +0.000 OA
ENDROOT
BRANCH   1   3
ATOM      3  C   UNL     1       5.093   3.973  17.806  0.00  0.00    +0.000 A 
ATOM      4  C   UNL     1       4.517   3.768  16.549  0.00  0.00    +0.000 A 
ATOM      5  C   UNL     1       5.236   4.052  15.388  0.00  0.00    +0.000 A 
ATOM      6  C   UNL     1       6.546   4.541  15.451  0.00  0.00    +0.000 A 
ATOM      7  C   UNL     1       7.129   4.765  16.707  0.00  0.00    +0.000 A 
ATOM      8  C   UNL     1       6.401   4.481  17.878  0.00  0.00    +0.000 A 
BRANCH   6   9
ATOM      9  C   UNL     1       7.218   4.838  14.156  0.00  0.00    +0.000 C 
ATOM     10  O   UNL     1       8.114   5.663  14.061  0.00  0.00    +0.000 OA
BRANCH   9  11
ATOM     11  O   UNL     1       6.729   4.173  13.092  0.00  0.00    +0.000 OA
ATOM     12  H   UNL     1       6.815   3.204  13.110  0.00  0.00    +0.000 HD
ENDBRANCH   9  11
ENDBRANCH   6   9
ENDBRANCH   1   3
BRANCH   1  13
ATOM     13  C   UNL     1       2.885   4.060  19.178  0.00  0.00    +0.000 C 
ATOM     14  O   UNL     1       2.043   3.172  19.200  0.00  0.00    +0.000 OA
BRANCH  13  18
ATOM     15  C   UNL     1       1.734   8.178  19.680  0.00  0.00    +0.000 A 
ATOM     16  C   UNL     1       1.548   7.247  20.702  0.00  0.00    +0.000 A 
ATOM     17  C   UNL     1       1.939   5.915  20.530  0.00  0.00    +0.000 A 
ATOM     18  C   UNL     1       2.500   5.492  19.317  0.00  0.00    +0.000 A 
ATOM     19  C   UNL     1       2.680   6.425  18.292  0.00  0.00    +0.000 A 
ATOM     20  C   UNL     1       2.296   7.760  18.473  0.00  0.00    +0.000 A 
BRANCH  15  22
ATOM     21  C   UNL     1       0.694   9.632  21.226  0.00  0.00    +0.000 C 
ATOM     22  O   UNL     1       1.298   9.445  19.950  0.00  0.00    +0.000 OA
ENDBRANCH  15  22
ENDBRANCH  13  18
ENDBRANCH   1  13
TORSDOF 6
ENDMDL
MODEL 7
REMARK VINA RESULT:      -7.1      0.170      1.493
REMARK  Name = 
REMARK  7 active torsions:
REMARK  status: ('A' for Active; 'I' for Inactive)
REMARK    1  A    between atoms: C_1  and  O_2
REMARK    2  A    between atoms: O_2  and  C_3
REMARK    3  A    between atoms: C_6  and  C_7
REMARK    4  A    between atoms: C_7  and  C_9
REMARK    5  A    between atoms: C_9  and  C_11
REMARK    6  A    between atoms: C_14  and  C_15
REMARK    7  A    between atoms: C_15  and  O_17
REMARK                            x       y       z     vdW  Elec       q    Type
REMARK                         _______ _______ _______ _____ _____    ______ ____
ROOT
ATOM      1  C   UNL     1       2.943   4.107  19.280  0.00  0.00    +0.000 C 
ATOM      2  O   UNL     1       2.076   3.277  19.515  0.00  0.00    +0.000 OA
ENDROOT
BRANCH   1   3
ATOM      3  C   UNL     1       2.614   5.553  19.109  0.00  0.00    +0.000 A 
ATOM      4  C   UNL     1       2.268   6.351  20.202  0.00  0.00    +0.000 A 
ATOM      5  C   UNL     1       1.947   7.697  20.020  0.00  0.00    +0.000 A 
ATOM      6  C   UNL     1       1.956   8.276  18.746  0.00  0.00    +0.000 A 
ATOM      7  C   UNL     1       2.316   7.487  17.643  0.00  0.00    +0.000 A 
ATOM      8  C   UNL     1       2.644   6.131  17.829  0.00  0.00    +0.000 A 
BRANCH   6   9
ATOM      9  C   UNL     1       1.624   9.725  18.660  0.00  0.00    +0.000 C 
ATOM     10  O   UNL     1       1.125  10.335  19.594  0.00  0.00    +0.000 OA
BRANCH   9  11
ATOM     11  O   UNL     1       1.861  10.295  17.463  0.00  0.00    +0.000 OA
ATOM     12  H   UNL     1       1.106  10.738  17.038  0.00  0.00    +0.000 HD
ENDBRANCH   9  11
ENDBRANCH   6   9
ENDBRANCH   1   3
BRANCH   1  13
ATOM     13  C   UNL     1       4.393   3.657  19.191  0.00  0.00    +0.000 C 
ATOM     14  O   UNL     1       4.796   2.843  20.012  0.00  0.00    +0.000 OA
BRANCH  13  18
ATOM     15  C   UNL     1       6.898   5.034  15.971  0.00  0.00    +0.000 A 
ATOM     16  C   UNL     1       5.861   4.128  15.742  0.00  0.00    +0.000 A 
ATOM     17  C   UNL     1       5.047   3.700  16.796  0.00  0.00    +0.000 A 
ATOM     18  C   UNL     1       5.278   4.155  18.102  0.00  0.00    +0.000 A 
ATOM     19  C   UNL     1       6.321   5.058  18.330  0.00  0.00    +0.000 A 
ATOM     20  C   UNL     1       7.127   5.492  17.270  0.00  0.00    +0.000 A 
BRANCH  15  22
ATOM     21  C   UNL     1       7.190   4.832  13.634  0.00  0.00    +0.000 C 
ATOM     22  O   UNL     1       7.641   5.369  14.874  0.00  0.00    +0.000 OA
ENDBRANCH  15  22
ENDBRANCH  13  18
ENDBRANCH   1  13
TORSDOF 6
ENDMDL
MODEL 8
REMARK VINA RESULT:      -7.1      0.338      1.098
REMARK  Name = 
REMARK  7 active torsions:
REMARK  status: ('A' for Active; 'I' for Inactive)
REMARK    1  A    between atoms: C_1  and  O_2
REMARK    2  A    between atoms: O_2  and  C_3
REMARK    3  A    between atoms: C_6  and  C_7
REMARK    4  A    between atoms: C_7  and  C_9
REMARK    5  A    between atoms: C_9  and  C_11
REMARK    6  A    between atoms: C_14  and  C_15
REMARK    7  A    between atoms: C_15  and  O_17
REMARK                            x       y       z     vdW  Elec       q    Type
REMARK                         _______ _______ _______ _____ _____    ______ ____
ROOT
ATOM      1  C   UNL     1       2.750   4.142  19.606  0.00  0.00    +0.000 C 
ATOM      2  O   UNL     1       1.881   3.343  19.922  0.00  0.00    +0.000 OA
ENDROOT
BRANCH   1   3
ATOM      3  C   UNL     1       2.437   5.582  19.367  0.00  0.00    +0.000 A 
ATOM      4  C   UNL     1       2.487   6.131  18.082  0.00  0.00    +0.000 A 
ATOM      5  C   UNL     1       2.209   7.484  17.881  0.00  0.00    +0.000 A 
ATOM      6  C   UNL     1       1.883   8.321  18.953  0.00  0.00    +0.000 A 
ATOM      7  C   UNL     1       1.815   7.778  20.245  0.00  0.00    +0.000 A 
ATOM      8  C   UNL     1       2.091   6.412  20.446  0.00  0.00    +0.000 A 
BRANCH   6   9
ATOM      9  C   UNL     1       1.578   9.742  18.630  0.00  0.00    +0.000 C 
ATOM     10  O   UNL     1       1.014  10.483  19.421  0.00  0.00    +0.000 OA
BRANCH   9  11
ATOM     11  O   UNL     1       1.919  10.132  17.387  0.00  0.00    +0.000 OA
ATOM     12  H   UNL     1       2.601   9.602  16.939  0.00  0.00    +0.000 HD
ENDBRANCH   9  11
ENDBRANCH   6   9
ENDBRANCH   1   3
BRANCH   1  13
ATOM     13  C   UNL     1       4.188   3.662  19.482  0.00  0.00    +0.000 C 
ATOM     14  O   UNL     1       4.572   2.791  20.252  0.00  0.00    +0.000 OA
BRANCH  13  18
ATOM     15  C   UNL     1       6.719   5.157  16.336  0.00  0.00    +0.000 A 
ATOM     16  C   UNL     1       5.701   4.241  16.070  0.00  0.00    +0.000 A 
ATOM     17  C   UNL     1       4.878   3.774  17.100  0.00  0.00    +0.000 A 
ATOM     18  C   UNL     1       5.081   4.201  18.420  0.00  0.00    +0.000 A 
ATOM     19  C   UNL     1       6.105   5.114  18.686  0.00  0.00    +0.000 A 
ATOM     20  C   UNL     1       6.921   5.587  17.650  0.00  0.00    +0.000 A 
BRANCH  15  22
ATOM     21  C   UNL     1       7.137   4.907  14.024  0.00  0.00    +0.000 C 
ATOM     22  O   UNL     1       7.473   5.531  15.260  0.00  0.00    +0.000 OA
ENDBRANCH  15  22
ENDBRANCH  13  18
ENDBRANCH   1  13
TORSDOF 6
ENDMDL
MODEL 9
REMARK VINA RESULT:      -7.1      3.021      4.408
REMARK  Name = 
REMARK  7 active torsions:
REMARK  status: ('A' for Active; 'I' for Inactive)
REMARK    1  A    between atoms: C_1  and  O_2
REMARK    2  A    between atoms: O_2  and  C_3
REMARK    3  A    between atoms: C_6  and  C_7
REMARK    4  A    between atoms: C_7  and  C_9
REMARK    5  A    between atoms: C_9  and  C_11
REMARK    6  A    between atoms: C_14  and  C_15
REMARK    7  A    between atoms: C_15  and  O_17
REMARK                            x       y       z     vdW  Elec       q    Type
REMARK                         _______ _______ _______ _____ _____    ______ ____
ROOT
ATOM      1  C   UNL     1       6.374   5.401  19.132  0.00  0.00    +0.000 C 
ATOM      2  O   UNL     1       7.192   5.431  20.040  0.00  0.00    +0.000 OA
ENDROOT
BRANCH   1   3
ATOM      3  C   UNL     1       5.044   4.746  19.299  0.00  0.00    +0.000 A 
ATOM      4  C   UNL     1       3.890   5.499  19.534  0.00  0.00    +0.000 A 
ATOM      5  C   UNL     1       2.657   4.868  19.706  0.00  0.00    +0.000 A 
ATOM      6  C   UNL     1       2.546   3.475  19.654  0.00  0.00    +0.000 A 
ATOM      7  C   UNL     1       3.695   2.709  19.404  0.00  0.00    +0.000 A 
ATOM      8  C   UNL     1       4.937   3.347  19.226  0.00  0.00    +0.000 A 
BRANCH   6   9
ATOM      9  C   UNL     1       1.183   2.899  19.823  0.00  0.00    +0.000 C 
ATOM     10  O   UNL     1       0.534   2.474  18.880  0.00  0.00    +0.000 OA
BRANCH   9  11
ATOM     11  O   UNL     1       0.700   2.935  21.080  0.00  0.00    +0.000 OA
ATOM     12  H   UNL     1      -0.201   2.591  21.207  0.00  0.00    +0.000 HD
ENDBRANCH   9  11
ENDBRANCH   6   9
ENDBRANCH   1   3
BRANCH   1  13
ATOM     13  C   UNL     1       6.713   6.074  17.810  0.00  0.00    +0.000 C 
ATOM     14  O   UNL     1       7.316   7.138  17.843  0.00  0.00    +0.000 OA
BRANCH  13  18
ATOM     15  C   UNL     1       5.812   4.190  14.044  0.00  0.00    +0.000 A 
ATOM     16  C   UNL     1       7.130   4.392  14.454  0.00  0.00    +0.000 A 
ATOM     17  C   UNL     1       7.408   4.992  15.686  0.00  0.00    +0.000 A 
ATOM     18  C   UNL     1       6.364   5.425  16.515  0.00  0.00    +0.000 A 
ATOM     19  C   UNL     1       5.043   5.229  16.101  0.00  0.00    +0.000 A 
ATOM     20  C   UNL     1       4.770   4.617  14.871  0.00  0.00    +0.000 A 
BRANCH  15  22
ATOM     21  C   UNL     1       6.829   3.555  12.008  0.00  0.00    +0.000 C 
ATOM     22  O   UNL     1       5.657   3.613  12.816  0.00  0.00    +0.000 OA
ENDBRANCH  15  22
ENDBRANCH  13  18
ENDBRANCH   1  13
TORSDOF 6
ENDMDL
