MODEL 1
REMARK VINA RESULT:      -8.1      0.000      0.000
REMARK  Name = 
REMARK  16 active torsions:
REMARK  status: ('A' for Active; 'I' for Inactive)
REMARK    1  A    between atoms: C_1  and  C_2
REMARK    2  A    between atoms: C_2  and  C_3
REMARK    3  A    between atoms: C_3  and  C_4
REMARK    4  A    between atoms: C_3  and  C_5
REMARK    5  A    between atoms: C_5  and  C_6
REMARK    6  A    between atoms: C_6  and  C_7
REMARK    7  A    between atoms: C_6  and  C_8
REMARK    8  A    between atoms: C_9  and  C_10
REMARK    9  A    between atoms: C_9  and  C_11
REMARK   10  A    between atoms: C_12  and  C_13
REMARK   11  A    between atoms: C_14  and  C_15
REMARK   12  A    between atoms: C_15  and  C_17
REMARK   13  A    between atoms: C_18  and  O_19
REMARK   14  A    between atoms: C_20  and  C_21
REMARK   15  A    between atoms: C_21  and  O_22
REMARK   16  A    between atoms: C_25  and  O_26
REMARK                            x       y       z     vdW  Elec       q    Type
REMARK                         _______ _______ _______ _____ _____    ______ ____
ROOT
ATOM      1  C   UNL     1       6.361   5.698  17.862  0.00  0.00    +0.000 A 
ATOM      2  C   UNL     1       5.660   4.876  18.691  0.00  0.00    +0.000 A 
ATOM      3  C   UNL     1       4.359   4.309  18.315  0.00  0.00    +0.000 A 
ATOM      4  C   UNL     1       3.995   4.420  17.016  0.00  0.00    +0.000 A 
ATOM      5  N   UNL     1       4.720   5.165  16.132  0.00  0.00    +0.000 N 
ATOM      6  C   UNL     1       5.805   5.921  16.488  0.00  0.00    +0.000 A 
ATOM      7  O   UNL     1       6.266   6.734  15.693  0.00  0.00    +0.000 OA
ATOM      8  H   UNL     1       4.321   5.396  15.232  0.00  0.00    +0.000 HD
ENDROOT
BRANCH   3   9
ATOM      9  C   UNL     1       3.252   4.048  19.349  0.00  0.00    +0.000 C 
ATOM     10  C   UNL     1       3.612   2.682  19.976  0.00  0.00    +0.000 C 
ATOM     11  C   UNL     1       2.928   2.465  21.303  0.00  0.00    +0.000 C 
ATOM     12  C   UNL     1       1.414   2.583  21.170  0.00  0.00    +0.000 C 
ATOM     13  C   UNL     1       0.949   3.814  20.375  0.00  0.00    +0.000 C 
ATOM     14  C   UNL     1       1.738   4.027  19.047  0.00  0.00    +0.000 C 
BRANCH   9  15
ATOM     15  O   UNL     1       3.382   5.068  20.379  0.00  0.00    +0.000 OA
ATOM     16  H   UNL     1       2.472   5.288  20.658  0.00  0.00    +0.000 HD
ENDBRANCH   9  15
BRANCH  12  17
ATOM     17  O   UNL     1       0.840   2.603  22.475  0.00  0.00    +0.000 OA
ATOM     18  H   UNL     1       0.673   1.681  22.743  0.00  0.00    +0.000 HD
ENDBRANCH  12  17
ENDBRANCH   3   9
BRANCH   1  19
ATOM     19  C   UNL     1       7.585   6.388  18.351  0.00  0.00    +0.000 C 
ATOM     20  O   UNL     1       8.442   5.779  19.008  0.00  0.00    +0.000 OA
BRANCH  19  22
ATOM     21  C   UNL     1       8.580   8.667  18.639  0.00  0.00    +0.000 C 
ATOM     22  C   UNL     1       7.771   7.819  17.986  0.00  0.00    +0.000 C 
BRANCH  21  24
ATOM     23  C   UNL     1       9.599  10.951  18.638  0.00  0.00    +0.000 C 
ATOM     24  C   UNL     1       8.710  10.045  18.194  0.00  0.00    +0.000 C 
BRANCH  23  26
ATOM     25  C   UNL     1       8.878  13.270  18.303  0.00  0.00    +0.000 C 
ATOM     26  C   UNL     1       9.784  12.291  18.057  0.00  0.00    +0.000 C 
ATOM     27  C   UNL     1      11.035  12.531  17.243  0.00  0.00    +0.000 C 
BRANCH  25  28
ATOM     28  C   UNL     1       9.064  14.744  17.971  0.00  0.00    +0.000 C 
ATOM     29  C   UNL     1      10.066  15.389  18.937  0.00  0.00    +0.000 C 
BRANCH  28  30
ATOM     30  C   UNL     1       7.728  15.521  17.926  0.00  0.00    +0.000 C 
BRANCH  30  31
ATOM     31  C   UNL     1       6.556  14.873  18.714  0.00  0.00    +0.000 C 
ATOM     32  C   UNL     1       5.317  14.796  17.809  0.00  0.00    +0.000 C 
BRANCH  31  34
ATOM     33  C   UNL     1       6.661  17.103  19.994  0.00  0.00    +0.000 C 
ATOM     34  C   UNL     1       6.252  15.635  20.021  0.00  0.00    +0.000 C 
ENDBRANCH  31  34
ENDBRANCH  30  31
ENDBRANCH  28  30
ENDBRANCH  25  28
ENDBRANCH  23  26
ENDBRANCH  21  24
ENDBRANCH  19  22
ENDBRANCH   1  19
BRANCH   2  35
ATOM     35  O   UNL     1       6.055   4.558  19.978  0.00  0.00    +0.000 OA
ATOM     36  H   UNL     1       7.040   4.597  20.020  0.00  0.00    +0.000 HD
ENDBRANCH   2  35
TORSDOF 12
ENDMDL
MODEL 2
REMARK VINA RESULT:      -7.9      1.254      1.840
REMARK  Name = 
REMARK  16 active torsions:
REMARK  status: ('A' for Active; 'I' for Inactive)
REMARK    1  A    between atoms: C_1  and  C_2
REMARK    2  A    between atoms: C_2  and  C_3
REMARK    3  A    between atoms: C_3  and  C_4
REMARK    4  A    between atoms: C_3  and  C_5
REMARK    5  A    between atoms: C_5  and  C_6
REMARK    6  A    between atoms: C_6  and  C_7
REMARK    7  A    between atoms: C_6  and  C_8
REMARK    8  A    between atoms: C_9  and  C_10
REMARK    9  A    between atoms: C_9  and  C_11
REMARK   10  A    between atoms: C_12  and  C_13
REMARK   11  A    between atoms: C_14  and  C_15
REMARK   12  A    between atoms: C_15  and  C_17
REMARK   13  A    between atoms: C_18  and  O_19
REMARK   14  A    between atoms: C_20  and  C_21
REMARK   15  A    between atoms: C_21  and  O_22
REMARK   16  A    between atoms: C_25  and  O_26
REMARK                            x       y       z     vdW  Elec       q    Type
REMARK                         _______ _______ _______ _____ _____    ______ ____
ROOT
ATOM      1  C   UNL     1       6.246   5.239  17.395  0.00  0.00    +0.000 A 
ATOM      2  C   UNL     1       5.556   4.498  18.304  0.00  0.00    +0.000 A 
ATOM      3  C   UNL     1       4.233   3.930  18.011  0.00  0.00    +0.000 A 
ATOM      4  C   UNL     1       3.833   3.948  16.717  0.00  0.00    +0.000 A 
ATOM      5  N   UNL     1       4.544   4.609  15.758  0.00  0.00    +0.000 N 
ATOM      6  C   UNL     1       5.653   5.367  16.024  0.00  0.00    +0.000 A 
ATOM      7  O   UNL     1       6.104   6.108  15.156  0.00  0.00    +0.000 OA
ATOM      8  H   UNL     1       4.123   4.777  14.855  0.00  0.00    +0.000 HD
ENDROOT
BRANCH   3   9
ATOM      9  C   UNL     1       3.154   3.771  19.093  0.00  0.00    +0.000 C 
ATOM     10  C   UNL     1       3.509   2.451  19.814  0.00  0.00    +0.000 C 
ATOM     11  C   UNL     1       2.862   2.351  21.173  0.00  0.00    +0.000 C 
ATOM     12  C   UNL     1       1.346   2.486  21.074  0.00  0.00    +0.000 C 
ATOM     13  C   UNL     1       0.878   3.661  20.198  0.00  0.00    +0.000 C 
ATOM     14  C   UNL     1       1.632   3.755  18.836  0.00  0.00    +0.000 C 
BRANCH   9  15
ATOM     15  O   UNL     1       3.332   4.865  20.036  0.00  0.00    +0.000 OA
ATOM     16  H   UNL     1       3.547   5.652  19.498  0.00  0.00    +0.000 HD
ENDBRANCH   9  15
BRANCH  12  17
ATOM     17  O   UNL     1       0.812   2.619  22.389  0.00  0.00    +0.000 OA
ATOM     18  H   UNL     1       1.547   2.842  22.989  0.00  0.00    +0.000 HD
ENDBRANCH  12  17
ENDBRANCH   3   9
BRANCH   1  19
ATOM     19  C   UNL     1       7.496   5.940  17.794  0.00  0.00    +0.000 C 
ATOM     20  O   UNL     1       8.515   5.304  18.101  0.00  0.00    +0.000 OA
BRANCH  19  22
ATOM     21  C   UNL     1       8.405   8.195  18.393  0.00  0.00    +0.000 C 
ATOM     22  C   UNL     1       7.499   7.428  17.766  0.00  0.00    +0.000 C 
BRANCH  21  24
ATOM     23  C   UNL     1       9.376  10.489  18.180  0.00  0.00    +0.000 C 
ATOM     24  C   UNL     1       8.337   9.643  18.291  0.00  0.00    +0.000 C 
BRANCH  23  26
ATOM     25  C   UNL     1      10.240  12.779  18.317  0.00  0.00    +0.000 C 
ATOM     26  C   UNL     1       9.248  11.936  17.937  0.00  0.00    +0.000 C 
ATOM     27  C   UNL     1       8.015  12.414  17.204  0.00  0.00    +0.000 C 
BRANCH  25  28
ATOM     28  C   UNL     1      10.349  14.245  17.919  0.00  0.00    +0.000 C 
ATOM     29  C   UNL     1      11.439  14.432  16.855  0.00  0.00    +0.000 C 
BRANCH  28  30
ATOM     30  C   UNL     1      10.564  15.180  19.132  0.00  0.00    +0.000 C 
BRANCH  30  31
ATOM     31  C   UNL     1       9.783  16.523  19.082  0.00  0.00    +0.000 C 
ATOM     32  C   UNL     1       8.529  16.348  18.213  0.00  0.00    +0.000 C 
BRANCH  31  34
ATOM     33  C   UNL     1       9.984  18.574  17.540  0.00  0.00    +0.000 C 
ATOM     34  C   UNL     1      10.666  17.682  18.571  0.00  0.00    +0.000 C 
ENDBRANCH  31  34
ENDBRANCH  30  31
ENDBRANCH  28  30
ENDBRANCH  25  28
ENDBRANCH  23  26
ENDBRANCH  21  24
ENDBRANCH  19  22
ENDBRANCH   1  19
BRANCH   2  35
ATOM     35  O   UNL     1       5.983   4.271  19.600  0.00  0.00    +0.000 OA
ATOM     36  H   UNL     1       6.304   3.340  19.663  0.00  0.00    +0.000 HD
ENDBRANCH   2  35
TORSDOF 12
ENDMDL
MODEL 3
REMARK VINA RESULT:      -7.8      1.482      1.775
REMARK  Name = 
REMARK  16 active torsions:
REMARK  status: ('A' for Active; 'I' for Inactive)
REMARK    1  A    between atoms: C_1  and  C_2
REMARK    2  A    between atoms: C_2  and  C_3
REMARK    3  A    between atoms: C_3  and  C_4
REMARK    4  A    between atoms: C_3  and  C_5
REMARK    5  A    between atoms: C_5  and  C_6
REMARK    6  A    between atoms: C_6  and  C_7
REMARK    7  A    between atoms: C_6  and  C_8
REMARK    8  A    between atoms: C_9  and  C_10
REMARK    9  A    between atoms: C_9  and  C_11
REMARK   10  A    between atoms: C_12  and  C_13
REMARK   11  A    between atoms: C_14  and  C_15
REMARK   12  A    between atoms: C_15  and  C_17
REMARK   13  A    between atoms: C_18  and  O_19
REMARK   14  A    between atoms: C_20  and  C_21
REMARK   15  A    between atoms: C_21  and  O_22
REMARK   16  A    between atoms: C_25  and  O_26
REMARK                            x       y       z     vdW  Elec       q    Type
REMARK                         _______ _______ _______ _____ _____    ______ ____
ROOT
ATOM      1  C   UNL     1       6.716   5.094  17.503  0.00  0.00    +0.000 A 
ATOM      2  C   UNL     1       5.837   4.187  18.012  0.00  0.00    +0.000 A 
ATOM      3  C   UNL     1       4.774   3.583  17.198  0.00  0.00    +0.000 A 
ATOM      4  C   UNL     1       4.855   3.761  15.858  0.00  0.00    +0.000 A 
ATOM      5  N   UNL     1       5.780   4.596  15.302  0.00  0.00    +0.000 N 
ATOM      6  C   UNL     1       6.633   5.378  16.034  0.00  0.00    +0.000 A 
ATOM      7  O   UNL     1       7.275   6.262  15.477  0.00  0.00    +0.000 OA
ATOM      8  H   UNL     1       5.688   4.864  14.332  0.00  0.00    +0.000 HD
ENDROOT
BRANCH   3   9
ATOM      9  C   UNL     1       3.408   3.203  17.789  0.00  0.00    +0.000 C 
ATOM     10  C   UNL     1       3.036   4.383  18.716  0.00  0.00    +0.000 C 
ATOM     11  C   UNL     1       1.560   4.421  19.026  0.00  0.00    +0.000 C 
ATOM     12  C   UNL     1       1.093   3.113  19.654  0.00  0.00    +0.000 C 
ATOM     13  C   UNL     1       1.586   1.855  18.919  0.00  0.00    +0.000 C 
ATOM     14  C   UNL     1       3.103   1.902  18.562  0.00  0.00    +0.000 C 
BRANCH   9  15
ATOM     15  O   UNL     1       2.459   3.177  16.686  0.00  0.00    +0.000 OA
ATOM     16  H   UNL     1       1.571   3.151  17.094  0.00  0.00    +0.000 HD
ENDBRANCH   9  15
BRANCH  12  17
ATOM     17  O   UNL     1      -0.332   3.115  19.709  0.00  0.00    +0.000 OA
ATOM     18  H   UNL     1      -0.639   2.203  19.550  0.00  0.00    +0.000 HD
ENDBRANCH  12  17
ENDBRANCH   3   9
BRANCH   1  19
ATOM     19  C   UNL     1       7.659   5.809  18.405  0.00  0.00    +0.000 C 
ATOM     20  O   UNL     1       8.182   5.233  19.370  0.00  0.00    +0.000 OA
BRANCH  19  22
ATOM     21  C   UNL     1       8.462   8.111  18.973  0.00  0.00    +0.000 C 
ATOM     22  C   UNL     1       7.993   7.223  18.082  0.00  0.00    +0.000 C 
BRANCH  21  24
ATOM     23  C   UNL     1       9.364  10.420  19.305  0.00  0.00    +0.000 C 
ATOM     24  C   UNL     1       8.779   9.468  18.557  0.00  0.00    +0.000 C 
BRANCH  23  26
ATOM     25  C   UNL     1       9.487  12.862  19.482  0.00  0.00    +0.000 C 
ATOM     26  C   UNL     1       9.792  11.733  18.795  0.00  0.00    +0.000 C 
ATOM     27  C   UNL     1      10.621  11.754  17.531  0.00  0.00    +0.000 C 
BRANCH  25  28
ATOM     28  C   UNL     1      10.062  14.244  19.203  0.00  0.00    +0.000 C 
ATOM     29  C   UNL     1      10.342  14.983  20.519  0.00  0.00    +0.000 C 
BRANCH  28  30
ATOM     30  C   UNL     1       9.176  15.081  18.252  0.00  0.00    +0.000 C 
BRANCH  30  31
ATOM     31  C   UNL     1       7.693  15.237  18.691  0.00  0.00    +0.000 C 
ATOM     32  C   UNL     1       6.783  14.564  17.653  0.00  0.00    +0.000 C 
BRANCH  31  34
ATOM     33  C   UNL     1       8.411  17.703  18.530  0.00  0.00    +0.000 C 
ATOM     34  C   UNL     1       7.309  16.717  18.900  0.00  0.00    +0.000 C 
ENDBRANCH  31  34
ENDBRANCH  30  31
ENDBRANCH  28  30
ENDBRANCH  25  28
ENDBRANCH  23  26
ENDBRANCH  21  24
ENDBRANCH  19  22
ENDBRANCH   1  19
BRANCH   2  35
ATOM     35  O   UNL     1       5.803   3.805  19.342  0.00  0.00    +0.000 OA
ATOM     36  H   UNL     1       5.128   3.093  19.443  0.00  0.00    +0.000 HD
ENDBRANCH   2  35
TORSDOF 12
ENDMDL
MODEL 4
REMARK VINA RESULT:      -7.7      6.422     10.477
REMARK  Name = 
REMARK  16 active torsions:
REMARK  status: ('A' for Active; 'I' for Inactive)
REMARK    1  A    between atoms: C_1  and  C_2
REMARK    2  A    between atoms: C_2  and  C_3
REMARK    3  A    between atoms: C_3  and  C_4
REMARK    4  A    between atoms: C_3  and  C_5
REMARK    5  A    between atoms: C_5  and  C_6
REMARK    6  A    between atoms: C_6  and  C_7
REMARK    7  A    between atoms: C_6  and  C_8
REMARK    8  A    between atoms: C_9  and  C_10
REMARK    9  A    between atoms: C_9  and  C_11
REMARK   10  A    between atoms: C_12  and  C_13
REMARK   11  A    between atoms: C_14  and  C_15
REMARK   12  A    between atoms: C_15  and  C_17
REMARK   13  A    between atoms: C_18  and  O_19
REMARK   14  A    between atoms: C_20  and  C_21
REMARK   15  A    between atoms: C_21  and  O_22
REMARK   16  A    between atoms: C_25  and  O_26
REMARK                            x       y       z     vdW  Elec       q    Type
REMARK                         _______ _______ _______ _____ _____    ______ ____
ROOT
ATOM      1  C   UNL     1      -0.118  10.543  21.180  0.00  0.00    +0.000 A 
ATOM      2  C   UNL     1      -0.250  10.740  19.840  0.00  0.00    +0.000 A 
ATOM      3  C   UNL     1      -1.341  11.541  19.269  0.00  0.00    +0.000 A 
ATOM      4  C   UNL     1      -2.065  12.292  20.133  0.00  0.00    +0.000 A 
ATOM      5  N   UNL     1      -1.901  12.185  21.483  0.00  0.00    +0.000 N 
ATOM      6  C   UNL     1      -1.073  11.270  22.077  0.00  0.00    +0.000 A 
ATOM      7  O   UNL     1      -1.145  11.082  23.287  0.00  0.00    +0.000 OA
ATOM      8  H   UNL     1      -2.585  12.600  22.101  0.00  0.00    +0.000 HD
ENDROOT
BRANCH   3   9
ATOM      9  C   UNL     1      -1.968  11.214  17.905  0.00  0.00    +0.000 C 
ATOM     10  C   UNL     1      -3.493  11.335  18.132  0.00  0.00    +0.000 C 
ATOM     11  C   UNL     1      -4.250  11.502  16.838  0.00  0.00    +0.000 C 
ATOM     12  C   UNL     1      -3.966  10.352  15.879  0.00  0.00    +0.000 C 
ATOM     13  C   UNL     1      -2.474  10.009  15.736  0.00  0.00    +0.000 C 
ATOM     14  C   UNL     1      -1.727   9.918  17.102  0.00  0.00    +0.000 C 
BRANCH   9  15
ATOM     15  O   UNL     1      -1.562  12.267  16.986  0.00  0.00    +0.000 OA
ATOM     16  H   UNL     1      -1.984  12.056  16.130  0.00  0.00    +0.000 HD
ENDBRANCH   9  15
BRANCH  12  17
ATOM     17  O   UNL     1      -4.514  10.675  14.602  0.00  0.00    +0.000 OA
ATOM     18  H   UNL     1      -3.800  11.053  14.058  0.00  0.00    +0.000 HD
ENDBRANCH  12  17
ENDBRANCH   3   9
BRANCH   1  19
ATOM     19  C   UNL     1       0.894   9.583  21.699  0.00  0.00    +0.000 C 
ATOM     20  O   UNL     1       1.367   9.708  22.838  0.00  0.00    +0.000 OA
BRANCH  19  22
ATOM     21  C   UNL     1       1.439   7.180  21.257  0.00  0.00    +0.000 C 
ATOM     22  C   UNL     1       1.283   8.442  20.827  0.00  0.00    +0.000 C 
BRANCH  21  24
ATOM     23  C   UNL     1       1.218   4.923  20.203  0.00  0.00    +0.000 C 
ATOM     24  C   UNL     1       1.803   6.128  20.323  0.00  0.00    +0.000 C 
BRANCH  23  26
ATOM     25  C   UNL     1       2.622   4.121  18.361  0.00  0.00    +0.000 C 
ATOM     26  C   UNL     1       1.531   3.946  19.147  0.00  0.00    +0.000 C 
ATOM     27  C   UNL     1       0.633   2.736  19.029  0.00  0.00    +0.000 C 
BRANCH  25  28
ATOM     28  C   UNL     1       3.193   3.083  17.405  0.00  0.00    +0.000 C 
ATOM     29  C   UNL     1       3.703   1.862  18.182  0.00  0.00    +0.000 C 
BRANCH  28  30
ATOM     30  C   UNL     1       4.279   3.663  16.469  0.00  0.00    +0.000 C 
BRANCH  30  31
ATOM     31  C   UNL     1       4.931   4.989  16.951  0.00  0.00    +0.000 C 
ATOM     32  C   UNL     1       5.253   5.867  15.732  0.00  0.00    +0.000 C 
BRANCH  31  34
ATOM     33  C   UNL     1       6.116   5.324  19.211  0.00  0.00    +0.000 C 
ATOM     34  C   UNL     1       6.189   4.732  17.808  0.00  0.00    +0.000 C 
ENDBRANCH  31  34
ENDBRANCH  30  31
ENDBRANCH  28  30
ENDBRANCH  25  28
ENDBRANCH  23  26
ENDBRANCH  21  24
ENDBRANCH  19  22
ENDBRANCH   1  19
BRANCH   2  35
ATOM     35  O   UNL     1       0.567  10.156  18.888  0.00  0.00    +0.000 OA
ATOM     36  H   UNL     1       1.150  10.856  18.508  0.00  0.00    +0.000 HD
ENDBRANCH   2  35
TORSDOF 12
ENDMDL
MODEL 5
REMARK VINA RESULT:      -7.7      1.264      1.832
REMARK  Name = 
REMARK  16 active torsions:
REMARK  status: ('A' for Active; 'I' for Inactive)
REMARK    1  A    between atoms: C_1  and  C_2
REMARK    2  A    between atoms: C_2  and  C_3
REMARK    3  A    between atoms: C_3  and  C_4
REMARK    4  A    between atoms: C_3  and  C_5
REMARK    5  A    between atoms: C_5  and  C_6
REMARK    6  A    between atoms: C_6  and  C_7
REMARK    7  A    between atoms: C_6  and  C_8
REMARK    8  A    between atoms: C_9  and  C_10
REMARK    9  A    between atoms: C_9  and  C_11
REMARK   10  A    between atoms: C_12  and  C_13
REMARK   11  A    between atoms: C_14  and  C_15
REMARK   12  A    between atoms: C_15  and  C_17
REMARK   13  A    between atoms: C_18  and  O_19
REMARK   14  A    between atoms: C_20  and  C_21
REMARK   15  A    between atoms: C_21  and  O_22
REMARK   16  A    between atoms: C_25  and  O_26
REMARK                            x       y       z     vdW  Elec       q    Type
REMARK                         _______ _______ _______ _____ _____    ______ ____
ROOT
ATOM      1  C   UNL     1       6.157   4.770  17.177  0.00  0.00    +0.000 A 
ATOM      2  C   UNL     1       5.452   4.099  18.129  0.00  0.00    +0.000 A 
ATOM      3  C   UNL     1       4.048   3.711  17.937  0.00  0.00    +0.000 A 
ATOM      4  C   UNL     1       3.551   3.813  16.682  0.00  0.00    +0.000 A 
ATOM      5  N   UNL     1       4.263   4.402  15.678  0.00  0.00    +0.000 N 
ATOM      6  C   UNL     1       5.478   5.007  15.862  0.00  0.00    +0.000 A 
ATOM      7  O   UNL     1       5.949   5.706  14.971  0.00  0.00    +0.000 OA
ATOM      8  H   UNL     1       3.797   4.646  14.814  0.00  0.00    +0.000 HD
ENDROOT
BRANCH   3   9
ATOM      9  C   UNL     1       3.047   3.663  19.102  0.00  0.00    +0.000 C 
ATOM     10  C   UNL     1       3.351   2.333  19.830  0.00  0.00    +0.000 C 
ATOM     11  C   UNL     1       2.806   2.315  21.236  0.00  0.00    +0.000 C 
ATOM     12  C   UNL     1       1.303   2.571  21.248  0.00  0.00    +0.000 C 
ATOM     13  C   UNL     1       0.863   3.762  20.380  0.00  0.00    +0.000 C 
ATOM     14  C   UNL     1       1.513   3.766  18.963  0.00  0.00    +0.000 C 
BRANCH   9  15
ATOM     15  O   UNL     1       3.385   4.758  19.999  0.00  0.00    +0.000 OA
ATOM     16  H   UNL     1       4.141   5.220  19.588  0.00  0.00    +0.000 HD
ENDBRANCH   9  15
BRANCH  12  17
ATOM     17  O   UNL     1       0.885   2.774  22.597  0.00  0.00    +0.000 OA
ATOM     18  H   UNL     1       0.691   1.901  22.984  0.00  0.00    +0.000 HD
ENDBRANCH  12  17
ENDBRANCH   3   9
BRANCH   1  19
ATOM     19  C   UNL     1       7.515   5.297  17.483  0.00  0.00    +0.000 C 
ATOM     20  O   UNL     1       8.468   4.529  17.679  0.00  0.00    +0.000 OA
BRANCH  19  22
ATOM     21  C   UNL     1       8.208   7.461  18.533  0.00  0.00    +0.000 C 
ATOM     22  C   UNL     1       7.702   6.773  17.497  0.00  0.00    +0.000 C 
BRANCH  21  24
ATOM     23  C   UNL     1       9.178   9.666  19.202  0.00  0.00    +0.000 C 
ATOM     24  C   UNL     1       8.370   8.902  18.445  0.00  0.00    +0.000 C 
BRANCH  23  26
ATOM     25  C   UNL     1       9.179  11.992  19.977  0.00  0.00    +0.000 C 
ATOM     26  C   UNL     1       9.413  11.103  18.980  0.00  0.00    +0.000 C 
ATOM     27  C   UNL     1       9.974  11.518  17.639  0.00  0.00    +0.000 C 
BRANCH  25  28
ATOM     28  C   UNL     1       9.600  13.455  19.968  0.00  0.00    +0.000 C 
ATOM     29  C   UNL     1      10.119  13.873  21.350  0.00  0.00    +0.000 C 
BRANCH  28  30
ATOM     30  C   UNL     1       8.481  14.398  19.466  0.00  0.00    +0.000 C 
BRANCH  30  31
ATOM     31  C   UNL     1       8.918  15.866  19.202  0.00  0.00    +0.000 C 
ATOM     32  C   UNL     1       7.887  16.820  19.823  0.00  0.00    +0.000 C 
BRANCH  31  34
ATOM     33  C   UNL     1      10.562  16.364  17.286  0.00  0.00    +0.000 C 
ATOM     34  C   UNL     1       9.110  16.146  17.697  0.00  0.00    +0.000 C 
ENDBRANCH  31  34
ENDBRANCH  30  31
ENDBRANCH  28  30
ENDBRANCH  25  28
ENDBRANCH  23  26
ENDBRANCH  21  24
ENDBRANCH  19  22
ENDBRANCH   1  19
BRANCH   2  35
ATOM     35  O   UNL     1       5.948   3.787  19.382  0.00  0.00    +0.000 OA
ATOM     36  H   UNL     1       6.564   3.022  19.290  0.00  0.00    +0.000 HD
ENDBRANCH   2  35
TORSDOF 12
ENDMDL
MODEL 6
REMARK VINA RESULT:      -7.7      1.371      1.704
REMARK  Name = 
REMARK  16 active torsions:
REMARK  status: ('A' for Active; 'I' for Inactive)
REMARK    1  A    between atoms: C_1  and  C_2
REMARK    2  A    between atoms: C_2  and  C_3
REMARK    3  A    between atoms: C_3  and  C_4
REMARK    4  A    between atoms: C_3  and  C_5
REMARK    5  A    between atoms: C_5  and  C_6
REMARK    6  A    between atoms: C_6  and  C_7
REMARK    7  A    between atoms: C_6  and  C_8
REMARK    8  A    between atoms: C_9  and  C_10
REMARK    9  A    between atoms: C_9  and  C_11
REMARK   10  A    between atoms: C_12  and  C_13
REMARK   11  A    between atoms: C_14  and  C_15
REMARK   12  A    between atoms: C_15  and  C_17
REMARK   13  A    between atoms: C_18  and  O_19
REMARK   14  A    between atoms: C_20  and  C_21
REMARK   15  A    between atoms: C_21  and  O_22
REMARK   16  A    between atoms: C_25  and  O_26
REMARK                            x       y       z     vdW  Elec       q    Type
REMARK                         _______ _______ _______ _____ _____    ______ ____
ROOT
ATOM      1  C   UNL     1       6.814   5.137  17.567  0.00  0.00    +0.000 A 
ATOM      2  C   UNL     1       5.938   4.257  18.124  0.00  0.00    +0.000 A 
ATOM      3  C   UNL     1       4.943   3.529  17.324  0.00  0.00    +0.000 A 
ATOM      4  C   UNL     1       5.094   3.565  15.979  0.00  0.00    +0.000 A 
ATOM      5  N   UNL     1       6.022   4.371  15.386  0.00  0.00    +0.000 N 
ATOM      6  C   UNL     1       6.806   5.259  16.073  0.00  0.00    +0.000 A 
ATOM      7  O   UNL     1       7.450   6.102  15.458  0.00  0.00    +0.000 OA
ATOM      8  H   UNL     1       5.977   4.530  14.389  0.00  0.00    +0.000 HD
ENDROOT
BRANCH   3   9
ATOM      9  C   UNL     1       3.558   3.162  17.880  0.00  0.00    +0.000 C 
ATOM     10  C   UNL     1       3.129   4.391  18.713  0.00  0.00    +0.000 C 
ATOM     11  C   UNL     1       1.640   4.423  18.957  0.00  0.00    +0.000 C 
ATOM     12  C   UNL     1       1.166   3.148  19.646  0.00  0.00    +0.000 C 
ATOM     13  C   UNL     1       1.709   1.855  19.014  0.00  0.00    +0.000 C 
ATOM     14  C   UNL     1       3.240   1.907  18.720  0.00  0.00    +0.000 C 
BRANCH   9  15
ATOM     15  O   UNL     1       2.659   3.050  16.741  0.00  0.00    +0.000 OA
ATOM     16  H   UNL     1       3.190   3.282  15.954  0.00  0.00    +0.000 HD
ENDBRANCH   9  15
BRANCH  12  17
ATOM     17  O   UNL     1      -0.260   3.128  19.641  0.00  0.00    +0.000 OA
ATOM     18  H   UNL     1      -0.546   2.196  19.650  0.00  0.00    +0.000 HD
ENDBRANCH  12  17
ENDBRANCH   3   9
BRANCH   1  19
ATOM     19  C   UNL     1       7.682   5.980  18.434  0.00  0.00    +0.000 C 
ATOM     20  O   UNL     1       8.309   5.486  19.382  0.00  0.00    +0.000 OA
BRANCH  19  22
ATOM     21  C   UNL     1       8.557   8.298  18.788  0.00  0.00    +0.000 C 
ATOM     22  C   UNL     1       7.809   7.424  18.096  0.00  0.00    +0.000 C 
BRANCH  21  24
ATOM     23  C   UNL     1       9.589  10.574  18.702  0.00  0.00    +0.000 C 
ATOM     24  C   UNL     1       8.634   9.688  18.368  0.00  0.00    +0.000 C 
BRANCH  23  26
ATOM     25  C   UNL     1       8.721  12.843  18.363  0.00  0.00    +0.000 C 
ATOM     26  C   UNL     1       9.699  11.931  18.138  0.00  0.00    +0.000 C 
ATOM     27  C   UNL     1      10.956  12.264  17.367  0.00  0.00    +0.000 C 
BRANCH  25  28
ATOM     28  C   UNL     1       8.816  14.330  18.050  0.00  0.00    +0.000 C 
ATOM     29  C   UNL     1       9.767  15.025  19.034  0.00  0.00    +0.000 C 
BRANCH  28  30
ATOM     30  C   UNL     1       7.434  15.021  18.002  0.00  0.00    +0.000 C 
BRANCH  30  31
ATOM     31  C   UNL     1       7.067  15.860  19.258  0.00  0.00    +0.000 C 
ATOM     32  C   UNL     1       6.338  14.965  20.271  0.00  0.00    +0.000 C 
BRANCH  31  34
ATOM     33  C   UNL     1       4.898  17.192  19.640  0.00  0.00    +0.000 C 
ATOM     34  C   UNL     1       6.223  17.100  18.893  0.00  0.00    +0.000 C 
ENDBRANCH  31  34
ENDBRANCH  30  31
ENDBRANCH  28  30
ENDBRANCH  25  28
ENDBRANCH  23  26
ENDBRANCH  21  24
ENDBRANCH  19  22
ENDBRANCH   1  19
BRANCH   2  35
ATOM     35  O   UNL     1       5.840   4.018  19.483  0.00  0.00    +0.000 OA
ATOM     36  H   UNL     1       6.533   3.362  19.733  0.00  0.00    +0.000 HD
ENDBRANCH   2  35
TORSDOF 12
ENDMDL
MODEL 7
REMARK VINA RESULT:      -7.6      5.069      9.608
REMARK  Name = 
REMARK  16 active torsions:
REMARK  status: ('A' for Active; 'I' for Inactive)
REMARK    1  A    between atoms: C_1  and  C_2
REMARK    2  A    between atoms: C_2  and  C_3
REMARK    3  A    between atoms: C_3  and  C_4
REMARK    4  A    between atoms: C_3  and  C_5
REMARK    5  A    between atoms: C_5  and  C_6
REMARK    6  A    between atoms: C_6  and  C_7
REMARK    7  A    between atoms: C_6  and  C_8
REMARK    8  A    between atoms: C_9  and  C_10
REMARK    9  A    between atoms: C_9  and  C_11
REMARK   10  A    between atoms: C_12  and  C_13
REMARK   11  A    between atoms: C_14  and  C_15
REMARK   12  A    between atoms: C_15  and  C_17
REMARK   13  A    between atoms: C_18  and  O_19
REMARK   14  A    between atoms: C_20  and  C_21
REMARK   15  A    between atoms: C_21  and  O_22
REMARK   16  A    between atoms: C_25  and  O_26
REMARK                            x       y       z     vdW  Elec       q    Type
REMARK                         _______ _______ _______ _____ _____    ______ ____
ROOT
ATOM      1  C   UNL     1       9.100  12.330  20.710  0.00  0.00    +0.000 A 
ATOM      2  C   UNL     1       8.587  12.006  21.929  0.00  0.00    +0.000 A 
ATOM      3  C   UNL     1       7.980  13.008  22.815  0.00  0.00    +0.000 A 
ATOM      4  C   UNL     1       7.711  14.220  22.274  0.00  0.00    +0.000 A 
ATOM      5  N   UNL     1       8.135  14.553  21.020  0.00  0.00    +0.000 N 
ATOM      6  C   UNL     1       8.924  13.744  20.246  0.00  0.00    +0.000 A 
ATOM      7  O   UNL     1       9.447  14.196  19.233  0.00  0.00    +0.000 OA
ATOM      8  H   UNL     1       8.100  15.519  20.724  0.00  0.00    +0.000 HD
ENDROOT
BRANCH   3   9
ATOM      9  C   UNL     1       8.077  12.912  24.346  0.00  0.00    +0.000 C 
ATOM     10  C   UNL     1       6.759  12.232  24.783  0.00  0.00    +0.000 C 
ATOM     11  C   UNL     1       6.854  11.641  26.167  0.00  0.00    +0.000 C 
ATOM     12  C   UNL     1       7.248  12.698  27.193  0.00  0.00    +0.000 C 
ATOM     13  C   UNL     1       8.434  13.577  26.763  0.00  0.00    +0.000 C 
ATOM     14  C   UNL     1       8.314  14.102  25.299  0.00  0.00    +0.000 C 
BRANCH   9  15
ATOM     15  O   UNL     1       9.175  12.006  24.647  0.00  0.00    +0.000 OA
ATOM     16  H   UNL     1       8.797  11.301  25.209  0.00  0.00    +0.000 HD
ENDBRANCH   9  15
BRANCH  12  17
ATOM     17  O   UNL     1       7.549  12.048  28.427  0.00  0.00    +0.000 OA
ATOM     18  H   UNL     1       7.132  11.167  28.410  0.00  0.00    +0.000 HD
ENDBRANCH  12  17
ENDBRANCH   3   9
BRANCH   1  19
ATOM     19  C   UNL     1       9.862  11.320  19.927  0.00  0.00    +0.000 C 
ATOM     20  O   UNL     1      11.076  11.457  19.718  0.00  0.00    +0.000 OA
BRANCH  19  22
ATOM     21  C   UNL     1       8.583  10.004  18.224  0.00  0.00    +0.000 C 
ATOM     22  C   UNL     1       9.130  10.117  19.444  0.00  0.00    +0.000 C 
BRANCH  21  24
ATOM     23  C   UNL     1       8.208   7.532  18.236  0.00  0.00    +0.000 C 
ATOM     24  C   UNL     1       7.903   8.779  17.836  0.00  0.00    +0.000 C 
BRANCH  23  26
ATOM     25  C   UNL     1       6.499   6.370  16.917  0.00  0.00    +0.000 C 
ATOM     26  C   UNL     1       7.402   6.338  17.928  0.00  0.00    +0.000 C 
ATOM     27  C   UNL     1       7.670   5.089  18.736  0.00  0.00    +0.000 C 
BRANCH  25  28
ATOM     28  C   UNL     1       5.781   5.157  16.340  0.00  0.00    +0.000 C 
ATOM     29  C   UNL     1       5.815   5.194  14.806  0.00  0.00    +0.000 C 
BRANCH  28  30
ATOM     30  C   UNL     1       4.340   5.002  16.880  0.00  0.00    +0.000 C 
BRANCH  30  31
ATOM     31  C   UNL     1       4.080   5.639  18.273  0.00  0.00    +0.000 C 
ATOM     32  C   UNL     1       3.758   4.530  19.286  0.00  0.00    +0.000 C 
BRANCH  31  34
ATOM     33  C   UNL     1       2.365   7.043  19.581  0.00  0.00    +0.000 C 
ATOM     34  C   UNL     1       2.958   6.697  18.220  0.00  0.00    +0.000 C 
ENDBRANCH  31  34
ENDBRANCH  30  31
ENDBRANCH  28  30
ENDBRANCH  25  28
ENDBRANCH  23  26
ENDBRANCH  21  24
ENDBRANCH  19  22
ENDBRANCH   1  19
BRANCH   2  35
ATOM     35  O   UNL     1       8.652  10.741  22.484  0.00  0.00    +0.000 OA
ATOM     36  H   UNL     1       8.118  10.128  21.925  0.00  0.00    +0.000 HD
ENDBRANCH   2  35
TORSDOF 12
ENDMDL
MODEL 8
REMARK VINA RESULT:      -7.5      5.792      8.632
REMARK  Name = 
REMARK  16 active torsions:
REMARK  status: ('A' for Active; 'I' for Inactive)
REMARK    1  A    between atoms: C_1  and  C_2
REMARK    2  A    between atoms: C_2  and  C_3
REMARK    3  A    between atoms: C_3  and  C_4
REMARK    4  A    between atoms: C_3  and  C_5
REMARK    5  A    between atoms: C_5  and  C_6
REMARK    6  A    between atoms: C_6  and  C_7
REMARK    7  A    between atoms: C_6  and  C_8
REMARK    8  A    between atoms: C_9  and  C_10
REMARK    9  A    between atoms: C_9  and  C_11
REMARK   10  A    between atoms: C_12  and  C_13
REMARK   11  A    between atoms: C_14  and  C_15
REMARK   12  A    between atoms: C_15  and  C_17
REMARK   13  A    between atoms: C_18  and  O_19
REMARK   14  A    between atoms: C_20  and  C_21
REMARK   15  A    between atoms: C_21  and  O_22
REMARK   16  A    between atoms: C_25  and  O_26
REMARK                            x       y       z     vdW  Elec       q    Type
REMARK                         _______ _______ _______ _____ _____    ______ ____
ROOT
ATOM      1  C   UNL     1       2.249   4.455  19.466  0.00  0.00    +0.000 A 
ATOM      2  C   UNL     1       2.976   5.150  18.548  0.00  0.00    +0.000 A 
ATOM      3  C   UNL     1       3.480   4.531  17.316  0.00  0.00    +0.000 A 
ATOM      4  C   UNL     1       2.981   3.314  16.994  0.00  0.00    +0.000 A 
ATOM      5  N   UNL     1       2.177   2.622  17.852  0.00  0.00    +0.000 N 
ATOM      6  C   UNL     1       1.880   3.044  19.121  0.00  0.00    +0.000 A 
ATOM      7  O   UNL     1       1.342   2.272  19.907  0.00  0.00    +0.000 OA
ATOM      8  H   UNL     1       1.988   1.644  17.677  0.00  0.00    +0.000 HD
ENDROOT
BRANCH   3   9
ATOM      9  C   UNL     1       4.814   4.950  16.676  0.00  0.00    +0.000 C 
ATOM     10  C   UNL     1       4.926   4.088  15.398  0.00  0.00    +0.000 C 
ATOM     11  C   UNL     1       5.911   4.661  14.409  0.00  0.00    +0.000 C 
ATOM     12  C   UNL     1       7.291   4.826  15.037  0.00  0.00    +0.000 C 
ATOM     13  C   UNL     1       7.273   5.494  16.422  0.00  0.00    +0.000 C 
ATOM     14  C   UNL     1       6.188   4.909  17.377  0.00  0.00    +0.000 C 
BRANCH   9  15
ATOM     15  O   UNL     1       4.674   6.341  16.275  0.00  0.00    +0.000 OA
ATOM     16  H   UNL     1       4.017   6.734  16.883  0.00  0.00    +0.000 HD
ENDBRANCH   9  15
BRANCH  12  17
ATOM     17  O   UNL     1       8.112   5.578  14.146  0.00  0.00    +0.000 OA
ATOM     18  H   UNL     1       7.871   6.518  14.239  0.00  0.00    +0.000 HD
ENDBRANCH  12  17
ENDBRANCH   3   9
BRANCH   1  19
ATOM     19  C   UNL     1       1.912   5.072  20.777  0.00  0.00    +0.000 C 
ATOM     20  O   UNL     1       2.400   4.640  21.831  0.00  0.00    +0.000 OA
BRANCH  19  22
ATOM     21  C   UNL     1       1.383   7.491  21.147  0.00  0.00    +0.000 C 
ATOM     22  C   UNL     1       1.010   6.256  20.778  0.00  0.00    +0.000 C 
BRANCH  21  24
ATOM     23  C   UNL     1       0.255   9.541  22.030  0.00  0.00    +0.000 C 
ATOM     24  C   UNL     1       0.432   8.589  21.096  0.00  0.00    +0.000 C 
BRANCH  23  26
ATOM     25  C   UNL     1      -1.337  11.178  22.921  0.00  0.00    +0.000 C 
ATOM     26  C   UNL     1      -0.621  10.713  21.868  0.00  0.00    +0.000 C 
ATOM     27  C   UNL     1      -0.634  11.393  20.517  0.00  0.00    +0.000 C 
BRANCH  25  28
ATOM     28  C   UNL     1      -2.086  12.503  22.960  0.00  0.00    +0.000 C 
ATOM     29  C   UNL     1      -1.154  13.632  23.421  0.00  0.00    +0.000 C 
BRANCH  28  30
ATOM     30  C   UNL     1      -3.375  12.439  23.813  0.00  0.00    +0.000 C 
BRANCH  30  31
ATOM     31  C   UNL     1      -4.562  13.292  23.288  0.00  0.00    +0.000 C 
ATOM     32  C   UNL     1      -5.866  12.798  23.932  0.00  0.00    +0.000 C 
BRANCH  31  34
ATOM     33  C   UNL     1      -4.347  14.606  21.085  0.00  0.00    +0.000 C 
ATOM     34  C   UNL     1      -4.651  13.267  21.747  0.00  0.00    +0.000 C 
ENDBRANCH  31  34
ENDBRANCH  30  31
ENDBRANCH  28  30
ENDBRANCH  25  28
ENDBRANCH  23  26
ENDBRANCH  21  24
ENDBRANCH  19  22
ENDBRANCH   1  19
BRANCH   2  35
ATOM     35  O   UNL     1       3.375   6.465  18.713  0.00  0.00    +0.000 OA
ATOM     36  H   UNL     1       2.799   7.036  18.152  0.00  0.00    +0.000 HD
ENDBRANCH   2  35
TORSDOF 12
ENDMDL
MODEL 9
REMARK VINA RESULT:      -7.5      2.344      3.202
REMARK  Name = 
REMARK  16 active torsions:
REMARK  status: ('A' for Active; 'I' for Inactive)
REMARK    1  A    between atoms: C_1  and  C_2
REMARK    2  A    between atoms: C_2  and  C_3
REMARK    3  A    between atoms: C_3  and  C_4
REMARK    4  A    between atoms: C_3  and  C_5
REMARK    5  A    between atoms: C_5  and  C_6
REMARK    6  A    between atoms: C_6  and  C_7
REMARK    7  A    between atoms: C_6  and  C_8
REMARK    8  A    between atoms: C_9  and  C_10
REMARK    9  A    between atoms: C_9  and  C_11
REMARK   10  A    between atoms: C_12  and  C_13
REMARK   11  A    between atoms: C_14  and  C_15
REMARK   12  A    between atoms: C_15  and  C_17
REMARK   13  A    between atoms: C_18  and  O_19
REMARK   14  A    between atoms: C_20  and  C_21
REMARK   15  A    between atoms: C_21  and  O_22
REMARK   16  A    between atoms: C_25  and  O_26
REMARK                            x       y       z     vdW  Elec       q    Type
REMARK                         _______ _______ _______ _____ _____    ______ ____
ROOT
ATOM      1  C   UNL     1       6.113   4.581  17.521  0.00  0.00    +0.000 A 
ATOM      2  C   UNL     1       5.203   4.854  18.496  0.00  0.00    +0.000 A 
ATOM      3  C   UNL     1       3.756   4.744  18.270  0.00  0.00    +0.000 A 
ATOM      4  C   UNL     1       3.358   4.114  17.140  0.00  0.00    +0.000 A 
ATOM      5  N   UNL     1       4.252   3.746  16.176  0.00  0.00    +0.000 N 
ATOM      6  C   UNL     1       5.586   4.050  16.222  0.00  0.00    +0.000 A 
ATOM      7  O   UNL     1       6.281   3.886  15.224  0.00  0.00    +0.000 OA
ATOM      8  H   UNL     1       3.913   3.466  15.265  0.00  0.00    +0.000 HD
ENDROOT
BRANCH   3   9
ATOM      9  C   UNL     1       2.748   5.675  18.963  0.00  0.00    +0.000 C 
ATOM     10  C   UNL     1       3.200   7.102  18.579  0.00  0.00    +0.000 C 
ATOM     11  C   UNL     1       2.101   8.119  18.771  0.00  0.00    +0.000 C 
ATOM     12  C   UNL     1       1.590   8.115  20.207  0.00  0.00    +0.000 C 
ATOM     13  C   UNL     1       1.301   6.711  20.765  0.00  0.00    +0.000 C 
ATOM     14  C   UNL     1       2.440   5.685  20.476  0.00  0.00    +0.000 C 
BRANCH   9  15
ATOM     15  O   UNL     1       1.451   5.430  18.350  0.00  0.00    +0.000 OA
ATOM     16  H   UNL     1       0.824   6.035  18.794  0.00  0.00    +0.000 HD
ENDBRANCH   9  15
BRANCH  12  17
ATOM     17  O   UNL     1       0.411   8.915  20.275  0.00  0.00    +0.000 OA
ATOM     18  H   UNL     1      -0.357   8.315  20.291  0.00  0.00    +0.000 HD
ENDBRANCH  12  17
ENDBRANCH   3   9
BRANCH   1  19
ATOM     19  C   UNL     1       7.555   4.875  17.739  0.00  0.00    +0.000 C 
ATOM     20  O   UNL     1       8.428   4.046  17.442  0.00  0.00    +0.000 OA
BRANCH  19  22
ATOM     21  C   UNL     1       7.647   7.375  17.665  0.00  0.00    +0.000 C 
ATOM     22  C   UNL     1       7.919   6.213  18.279  0.00  0.00    +0.000 C 
BRANCH  21  24
ATOM     23  C   UNL     1       8.864   9.557  17.773  0.00  0.00    +0.000 C 
ATOM     24  C   UNL     1       8.027   8.636  18.281  0.00  0.00    +0.000 C 
BRANCH  23  26
ATOM     25  C   UNL     1       9.874  10.996  19.482  0.00  0.00    +0.000 C 
ATOM     26  C   UNL     1       9.106  10.881  18.371  0.00  0.00    +0.000 C 
ATOM     27  C   UNL     1       8.521  12.082  17.663  0.00  0.00    +0.000 C 
BRANCH  25  28
ATOM     28  C   UNL     1      10.398  12.304  20.059  0.00  0.00    +0.000 C 
ATOM     29  C   UNL     1      11.926  12.374  19.926  0.00  0.00    +0.000 C 
BRANCH  28  30
ATOM     30  C   UNL     1       9.937  12.544  21.515  0.00  0.00    +0.000 C 
BRANCH  30  31
ATOM     31  C   UNL     1       9.048  13.800  21.731  0.00  0.00    +0.000 C 
ATOM     32  C   UNL     1       7.750  13.387  22.440  0.00  0.00    +0.000 C 
BRANCH  31  34
ATOM     33  C   UNL     1       7.276  14.797  20.153  0.00  0.00    +0.000 C 
ATOM     34  C   UNL     1       8.756  14.533  20.404  0.00  0.00    +0.000 C 
ENDBRANCH  31  34
ENDBRANCH  30  31
ENDBRANCH  28  30
ENDBRANCH  25  28
ENDBRANCH  23  26
ENDBRANCH  21  24
ENDBRANCH  19  22
ENDBRANCH   1  19
BRANCH   2  35
ATOM     35  O   UNL     1       5.535   5.329  19.752  0.00  0.00    +0.000 OA
ATOM     36  H   UNL     1       5.284   4.645  20.418  0.00  0.00    +0.000 HD
ENDBRANCH   2  35
TORSDOF 12
ENDMDL
