MODEL 1
REMARK VINA RESULT:      -8.3      0.000      0.000
REMARK  Name = 
REMARK  7 active torsions:
REMARK  status: ('A' for Active; 'I' for Inactive)
REMARK    1  A    between atoms: C_1  and  O_2
REMARK    2  A    between atoms: O_2  and  C_3
REMARK    3  A    between atoms: C_3  and  C_4
REMARK    4  A    between atoms: C_4  and  N_5
REMARK    5  A    between atoms: C_6  and  C_8
REMARK    6  A    between atoms: C_12  and  C_13
REMARK    7  A    between atoms: C_21  and  C_22
REMARK                            x       y       z     vdW  Elec       q    Type
REMARK                         _______ _______ _______ _____ _____    ______ ____
ROOT
ATOM      1  C   UNL     1       5.378   5.409  16.034  0.00  0.00    +0.000 A 
ATOM      2  C   UNL     1       4.858   6.708  16.209  0.00  0.00    +0.000 A 
ATOM      3  C   UNL     1       4.034   6.639  17.308  0.00  0.00    +0.000 A 
ATOM      4  N   UNL     1       3.271   7.594  17.923  0.00  0.00    +0.000 NA
ATOM      5  C   UNL     1       2.588   7.225  18.970  0.00  0.00    +0.000 A 
ATOM      6  C   UNL     1       2.638   5.844  19.547  0.00  0.00    +0.000 A 
ATOM      7  C   UNL     1       3.385   4.932  18.890  0.00  0.00    +0.000 A 
ATOM      8  N   UNL     1       4.090   5.313  17.756  0.00  0.00    +0.000 N 
ATOM      9  N   UNL     1       4.894   4.564  16.961  0.00  0.00    +0.000 NA
ENDROOT
BRANCH   5  10
ATOM     10  C   UNL     1       1.704   8.217  19.660  0.00  0.00    +0.000 A 
ATOM     11  C   UNL     1       1.238   9.373  19.012  0.00  0.00    +0.000 A 
ATOM     12  C   UNL     1       0.416  10.279  19.689  0.00  0.00    +0.000 A 
ATOM     13  C   UNL     1       0.072  10.039  21.014  0.00  0.00    +0.000 A 
ATOM     14  F   UNL     1      -0.711  10.913  21.660  0.00  0.00    +0.000 F 
ATOM     15  C   UNL     1       0.539   8.912  21.679  0.00  0.00    +0.000 A 
ATOM     16  C   UNL     1       1.360   8.001  21.004  0.00  0.00    +0.000 A 
ENDBRANCH   5  10
BRANCH   1  18
ATOM     17  N   UNL     1       5.791   4.130  14.053  0.00  0.00    +0.000 N 
ATOM     18  C   UNL     1       6.333   4.972  15.001  0.00  0.00    +0.000 C 
ATOM     19  O   UNL     1       7.508   5.329  14.994  0.00  0.00    +0.000 OA
ATOM     20  H   UNL     1       4.775   4.056  14.048  0.00  0.00    +0.000 HD
BRANCH  17  21
ATOM     21  C   UNL     1       6.551   3.698  12.898  0.00  0.00    +0.000 C 
BRANCH  21  22
ATOM     22  C   UNL     1       5.696   2.959  11.869  0.00  0.00    +0.000 C 
BRANCH  22  24
ATOM     23  C   UNL     1       3.645   3.174  10.723  0.00  0.00    +0.000 C 
ATOM     24  O   UNL     1       4.354   3.452  11.924  0.00  0.00    +0.000 OA
ENDBRANCH  22  24
ENDBRANCH  21  22
ENDBRANCH  17  21
ENDBRANCH   1  18
BRANCH   7  25
ATOM     25  C   UNL     1       3.475   3.531  19.368  0.00  0.00    +0.000 C 
ATOM     26  F   UNL     1       3.098   2.564  18.500  0.00  0.00    +0.000 F 
ATOM     27  F   UNL     1       4.750   3.234  19.742  0.00  0.00    +0.000 F 
ATOM     28  F   UNL     1       2.715   3.363  20.485  0.00  0.00    +0.000 F 
ENDBRANCH   7  25
TORSDOF 6
ENDMDL
MODEL 2
REMARK VINA RESULT:      -8.1      0.609      1.260
REMARK  Name = 
REMARK  7 active torsions:
REMARK  status: ('A' for Active; 'I' for Inactive)
REMARK    1  A    between atoms: C_1  and  O_2
REMARK    2  A    between atoms: O_2  and  C_3
REMARK    3  A    between atoms: C_3  and  C_4
REMARK    4  A    between atoms: C_4  and  N_5
REMARK    5  A    between atoms: C_6  and  C_8
REMARK    6  A    between atoms: C_12  and  C_13
REMARK    7  A    between atoms: C_21  and  C_22
REMARK                            x       y       z     vdW  Elec       q    Type
REMARK                         _______ _______ _______ _____ _____    ______ ____
ROOT
ATOM      1  C   UNL     1       5.283   5.228  16.119  0.00  0.00    +0.000 A 
ATOM      2  C   UNL     1       4.785   6.536  16.282  0.00  0.00    +0.000 A 
ATOM      3  C   UNL     1       3.986   6.500  17.400  0.00  0.00    +0.000 A 
ATOM      4  N   UNL     1       3.251   7.476  18.014  0.00  0.00    +0.000 NA
ATOM      5  C   UNL     1       2.586   7.137  19.083  0.00  0.00    +0.000 A 
ATOM      6  C   UNL     1       2.630   5.766  19.684  0.00  0.00    +0.000 A 
ATOM      7  C   UNL     1       3.348   4.831  19.028  0.00  0.00    +0.000 A 
ATOM      8  N   UNL     1       4.033   5.182  17.871  0.00  0.00    +0.000 N 
ATOM      9  N   UNL     1       4.808   4.407  17.073  0.00  0.00    +0.000 NA
ENDROOT
BRANCH   5  10
ATOM     10  C   UNL     1       1.732   8.154  19.775  0.00  0.00    +0.000 A 
ATOM     11  C   UNL     1       1.334   8.001  21.113  0.00  0.00    +0.000 A 
ATOM     12  C   UNL     1       0.533   8.970  21.726  0.00  0.00    +0.000 A 
ATOM     13  C   UNL     1       0.119  10.081  21.000  0.00  0.00    +0.000 A 
ATOM     14  F   UNL     1      -0.654  11.002  21.589  0.00  0.00    +0.000 F 
ATOM     15  C   UNL     1       0.484  10.239  19.669  0.00  0.00    +0.000 A 
ATOM     16  C   UNL     1       1.288   9.273  19.053  0.00  0.00    +0.000 A 
ENDBRANCH   5  10
BRANCH   1  18
ATOM     17  N   UNL     1       5.602   4.024  14.075  0.00  0.00    +0.000 N 
ATOM     18  C   UNL     1       6.208   4.758  15.073  0.00  0.00    +0.000 C 
ATOM     19  O   UNL     1       7.411   5.000  15.098  0.00  0.00    +0.000 OA
ATOM     20  H   UNL     1       4.585   4.047  14.056  0.00  0.00    +0.000 HD
BRANCH  17  21
ATOM     21  C   UNL     1       6.336   3.585  12.906  0.00  0.00    +0.000 C 
BRANCH  21  22
ATOM     22  C   UNL     1       5.421   3.152  11.761  0.00  0.00    +0.000 C 
BRANCH  22  24
ATOM     23  C   UNL     1       6.967   1.519  11.049  0.00  0.00    +0.000 C 
ATOM     24  O   UNL     1       5.634   1.766  11.480  0.00  0.00    +0.000 OA
ENDBRANCH  22  24
ENDBRANCH  21  22
ENDBRANCH  17  21
ENDBRANCH   1  18
BRANCH   7  25
ATOM     25  C   UNL     1       3.429   3.438  19.529  0.00  0.00    +0.000 C 
ATOM     26  F   UNL     1       3.009   2.462  18.692  0.00  0.00    +0.000 F 
ATOM     27  F   UNL     1       4.710   3.125  19.869  0.00  0.00    +0.000 F 
ATOM     28  F   UNL     1       2.702   3.304  20.672  0.00  0.00    +0.000 F 
ENDBRANCH   7  25
TORSDOF 6
ENDMDL
MODEL 3
REMARK VINA RESULT:      -8.0      0.338      1.212
REMARK  Name = 
REMARK  7 active torsions:
REMARK  status: ('A' for Active; 'I' for Inactive)
REMARK    1  A    between atoms: C_1  and  O_2
REMARK    2  A    between atoms: O_2  and  C_3
REMARK    3  A    between atoms: C_3  and  C_4
REMARK    4  A    between atoms: C_4  and  N_5
REMARK    5  A    between atoms: C_6  and  C_8
REMARK    6  A    between atoms: C_12  and  C_13
REMARK    7  A    between atoms: C_21  and  C_22
REMARK                            x       y       z     vdW  Elec       q    Type
REMARK                         _______ _______ _______ _____ _____    ______ ____
ROOT
ATOM      1  C   UNL     1       5.454   5.376  15.928  0.00  0.00    +0.000 A 
ATOM      2  C   UNL     1       5.033   6.688  16.225  0.00  0.00    +0.000 A 
ATOM      3  C   UNL     1       4.145   6.573  17.269  0.00  0.00    +0.000 A 
ATOM      4  N   UNL     1       3.431   7.519  17.951  0.00  0.00    +0.000 NA
ATOM      5  C   UNL     1       2.660   7.100  18.916  0.00  0.00    +0.000 A 
ATOM      6  C   UNL     1       2.563   5.665  19.333  0.00  0.00    +0.000 A 
ATOM      7  C   UNL     1       3.267   4.767  18.613  0.00  0.00    +0.000 A 
ATOM      8  N   UNL     1       4.066   5.207  17.565  0.00  0.00    +0.000 N 
ATOM      9  N   UNL     1       4.849   4.481  16.729  0.00  0.00    +0.000 NA
ENDROOT
BRANCH   5  10
ATOM     10  C   UNL     1       1.823   8.085  19.672  0.00  0.00    +0.000 A 
ATOM     11  C   UNL     1       1.437   7.862  21.004  0.00  0.00    +0.000 A 
ATOM     12  C   UNL     1       0.652   8.803  21.678  0.00  0.00    +0.000 A 
ATOM     13  C   UNL     1       0.241   9.955  21.019  0.00  0.00    +0.000 A 
ATOM     14  F   UNL     1      -0.516  10.850  21.667  0.00  0.00    +0.000 F 
ATOM     15  C   UNL     1       0.594  10.184  19.695  0.00  0.00    +0.000 A 
ATOM     16  C   UNL     1       1.383   9.246  19.018  0.00  0.00    +0.000 A 
ENDBRANCH   5  10
BRANCH   1  18
ATOM     17  N   UNL     1       5.930   4.073  13.977  0.00  0.00    +0.000 N 
ATOM     18  C   UNL     1       6.427   4.971  14.898  0.00  0.00    +0.000 C 
ATOM     19  O   UNL     1       7.577   5.399  14.873  0.00  0.00    +0.000 OA
ATOM     20  H   UNL     1       4.922   3.936  13.983  0.00  0.00    +0.000 HD
BRANCH  17  21
ATOM     21  C   UNL     1       6.708   3.659  12.827  0.00  0.00    +0.000 C 
BRANCH  21  22
ATOM     22  C   UNL     1       5.849   3.420  11.586  0.00  0.00    +0.000 C 
BRANCH  22  24
ATOM     23  C   UNL     1       3.624   3.181  10.838  0.00  0.00    +0.000 C 
ATOM     24  O   UNL     1       4.467   3.425  11.957  0.00  0.00    +0.000 OA
ENDBRANCH  22  24
ENDBRANCH  21  22
ENDBRANCH  17  21
ENDBRANCH   1  18
BRANCH   7  25
ATOM     25  C   UNL     1       3.213   3.321  18.932  0.00  0.00    +0.000 C 
ATOM     26  F   UNL     1       4.392   2.707  19.186  0.00  0.00    +0.000 F 
ATOM     27  F   UNL     1       2.425   3.099  20.020  0.00  0.00    +0.000 F 
ATOM     28  F   UNL     1       2.634   2.632  17.911  0.00  0.00    +0.000 F 
ENDBRANCH   7  25
TORSDOF 6
ENDMDL
MODEL 4
REMARK VINA RESULT:      -7.9      0.864      1.178
REMARK  Name = 
REMARK  7 active torsions:
REMARK  status: ('A' for Active; 'I' for Inactive)
REMARK    1  A    between atoms: C_1  and  O_2
REMARK    2  A    between atoms: O_2  and  C_3
REMARK    3  A    between atoms: C_3  and  C_4
REMARK    4  A    between atoms: C_4  and  N_5
REMARK    5  A    between atoms: C_6  and  C_8
REMARK    6  A    between atoms: C_12  and  C_13
REMARK    7  A    between atoms: C_21  and  C_22
REMARK                            x       y       z     vdW  Elec       q    Type
REMARK                         _______ _______ _______ _____ _____    ______ ____
ROOT
ATOM      1  C   UNL     1       5.324   5.121  16.473  0.00  0.00    +0.000 A 
ATOM      2  C   UNL     1       4.822   6.436  16.558  0.00  0.00    +0.000 A 
ATOM      3  C   UNL     1       3.968   6.445  17.635  0.00  0.00    +0.000 A 
ATOM      4  N   UNL     1       3.206   7.446  18.172  0.00  0.00    +0.000 NA
ATOM      5  C   UNL     1       2.487   7.150  19.219  0.00  0.00    +0.000 A 
ATOM      6  C   UNL     1       2.496   5.804  19.875  0.00  0.00    +0.000 A 
ATOM      7  C   UNL     1       3.244   4.843  19.293  0.00  0.00    +0.000 A 
ATOM      8  N   UNL     1       3.987   5.146  18.160  0.00  0.00    +0.000 N 
ATOM      9  N   UNL     1       4.799   4.339  17.433  0.00  0.00    +0.000 NA
ENDROOT
BRANCH   5  10
ATOM     10  C   UNL     1       1.602   8.194  19.825  0.00  0.00    +0.000 A 
ATOM     11  C   UNL     1       1.189   9.327  19.104  0.00  0.00    +0.000 A 
ATOM     12  C   UNL     1       0.365  10.284  19.704  0.00  0.00    +0.000 A 
ATOM     13  C   UNL     1      -0.034  10.118  21.025  0.00  0.00    +0.000 A 
ATOM     14  F   UNL     1      -0.818  11.041  21.597  0.00  0.00    +0.000 F 
ATOM     15  C   UNL     1       0.382   9.016  21.762  0.00  0.00    +0.000 A 
ATOM     16  C   UNL     1       1.204   8.054  21.164  0.00  0.00    +0.000 A 
ENDBRANCH   5  10
BRANCH   1  18
ATOM     17  N   UNL     1       5.768   4.368  14.244  0.00  0.00    +0.000 N 
ATOM     18  C   UNL     1       6.299   4.609  15.494  0.00  0.00    +0.000 C 
ATOM     19  O   UNL     1       7.478   4.414  15.776  0.00  0.00    +0.000 OA
ATOM     20  H   UNL     1       4.836   4.741  14.073  0.00  0.00    +0.000 HD
BRANCH  17  21
ATOM     21  C   UNL     1       6.604   3.977  13.128  0.00  0.00    +0.000 C 
BRANCH  21  22
ATOM     22  C   UNL     1       5.882   3.060  12.141  0.00  0.00    +0.000 C 
BRANCH  22  24
ATOM     23  C   UNL     1       6.274   0.993  11.075  0.00  0.00    +0.000 C 
ATOM     24  O   UNL     1       6.840   2.236  11.470  0.00  0.00    +0.000 OA
ENDBRANCH  22  24
ENDBRANCH  21  22
ENDBRANCH  17  21
ENDBRANCH   1  18
BRANCH   7  25
ATOM     25  C   UNL     1       3.295   3.471  19.853  0.00  0.00    +0.000 C 
ATOM     26  F   UNL     1       4.523   2.949  20.078  0.00  0.00    +0.000 F 
ATOM     27  F   UNL     1       2.632   3.414  21.041  0.00  0.00    +0.000 F 
ATOM     28  F   UNL     1       2.652   2.599  19.029  0.00  0.00    +0.000 F 
ENDBRANCH   7  25
TORSDOF 6
ENDMDL
MODEL 5
REMARK VINA RESULT:      -7.6      1.525      2.335
REMARK  Name = 
REMARK  7 active torsions:
REMARK  status: ('A' for Active; 'I' for Inactive)
REMARK    1  A    between atoms: C_1  and  O_2
REMARK    2  A    between atoms: O_2  and  C_3
REMARK    3  A    between atoms: C_3  and  C_4
REMARK    4  A    between atoms: C_4  and  N_5
REMARK    5  A    between atoms: C_6  and  C_8
REMARK    6  A    between atoms: C_12  and  C_13
REMARK    7  A    between atoms: C_21  and  C_22
REMARK                            x       y       z     vdW  Elec       q    Type
REMARK                         _______ _______ _______ _____ _____    ______ ____
ROOT
ATOM      1  C   UNL     1       4.053   6.515  17.352  0.00  0.00    +0.000 A 
ATOM      2  C   UNL     1       3.567   7.815  17.604  0.00  0.00    +0.000 A 
ATOM      3  C   UNL     1       2.740   7.704  18.697  0.00  0.00    +0.000 A 
ATOM      4  N   UNL     1       2.003   8.641  19.367  0.00  0.00    +0.000 NA
ATOM      5  C   UNL     1       1.307   8.229  20.390  0.00  0.00    +0.000 A 
ATOM      6  C   UNL     1       1.320   6.816  20.884  0.00  0.00    +0.000 A 
ATOM      7  C   UNL     1       2.042   5.924  20.175  0.00  0.00    +0.000 A 
ATOM      8  N   UNL     1       2.760   6.353  19.065  0.00  0.00    +0.000 N 
ATOM      9  N   UNL     1       3.544   5.630  18.228  0.00  0.00    +0.000 NA
ENDROOT
BRANCH   5  10
ATOM     10  C   UNL     1       0.449   9.202  21.138  0.00  0.00    +0.000 A 
ATOM     11  C   UNL     1      -0.137  10.312  20.507  0.00  0.00    +0.000 A 
ATOM     12  C   UNL     1      -0.930  11.202  21.238  0.00  0.00    +0.000 A 
ATOM     13  C   UNL     1      -1.126  10.992  22.598  0.00  0.00    +0.000 A 
ATOM     14  F   UNL     1      -1.882  11.851  23.294  0.00  0.00    +0.000 F 
ATOM     15  C   UNL     1      -0.538   9.912  23.244  0.00  0.00    +0.000 A 
ATOM     16  C   UNL     1       0.254   9.017  22.516  0.00  0.00    +0.000 A 
ENDBRANCH   5  10
BRANCH   1  18
ATOM     17  N   UNL     1       5.727   4.982  16.592  0.00  0.00    +0.000 N 
ATOM     18  C   UNL     1       4.997   6.114  16.295  0.00  0.00    +0.000 C 
ATOM     19  O   UNL     1       5.120   6.741  15.247  0.00  0.00    +0.000 OA
ATOM     20  H   UNL     1       5.411   4.444  17.396  0.00  0.00    +0.000 HD
BRANCH  17  21
ATOM     21  C   UNL     1       6.615   4.377  15.621  0.00  0.00    +0.000 C 
BRANCH  21  22
ATOM     22  C   UNL     1       5.865   3.647  14.507  0.00  0.00    +0.000 C 
BRANCH  22  24
ATOM     23  C   UNL     1       5.831   3.264  12.179  0.00  0.00    +0.000 C 
ATOM     24  O   UNL     1       6.479   3.941  13.249  0.00  0.00    +0.000 OA
ENDBRANCH  22  24
ENDBRANCH  21  22
ENDBRANCH  17  21
ENDBRANCH   1  18
BRANCH   7  25
ATOM     25  C   UNL     1       2.093   4.496  20.569  0.00  0.00    +0.000 C 
ATOM     26  F   UNL     1       3.024   3.727  19.958  0.00  0.00    +0.000 F 
ATOM     27  F   UNL     1       2.317   4.376  21.907  0.00  0.00    +0.000 F 
ATOM     28  F   UNL     1       0.891   3.898  20.341  0.00  0.00    +0.000 F 
ENDBRANCH   7  25
TORSDOF 6
ENDMDL
MODEL 6
REMARK VINA RESULT:      -7.5      1.518      2.514
REMARK  Name = 
REMARK  7 active torsions:
REMARK  status: ('A' for Active; 'I' for Inactive)
REMARK    1  A    between atoms: C_1  and  O_2
REMARK    2  A    between atoms: O_2  and  C_3
REMARK    3  A    between atoms: C_3  and  C_4
REMARK    4  A    between atoms: C_4  and  N_5
REMARK    5  A    between atoms: C_6  and  C_8
REMARK    6  A    between atoms: C_12  and  C_13
REMARK    7  A    between atoms: C_21  and  C_22
REMARK                            x       y       z     vdW  Elec       q    Type
REMARK                         _______ _______ _______ _____ _____    ______ ____
ROOT
ATOM      1  C   UNL     1       4.118   6.591  17.242  0.00  0.00    +0.000 A 
ATOM      2  C   UNL     1       3.622   7.877  17.536  0.00  0.00    +0.000 A 
ATOM      3  C   UNL     1       2.809   7.727  18.634  0.00  0.00    +0.000 A 
ATOM      4  N   UNL     1       2.069   8.637  19.338  0.00  0.00    +0.000 NA
ATOM      5  C   UNL     1       1.390   8.191  20.358  0.00  0.00    +0.000 A 
ATOM      6  C   UNL     1       1.423   6.764  20.813  0.00  0.00    +0.000 A 
ATOM      7  C   UNL     1       2.147   5.900  20.070  0.00  0.00    +0.000 A 
ATOM      8  N   UNL     1       2.847   6.367  18.965  0.00  0.00    +0.000 N 
ATOM      9  N   UNL     1       3.629   5.676  18.099  0.00  0.00    +0.000 NA
ENDROOT
BRANCH   5  10
ATOM     10  C   UNL     1       0.531   9.133  21.141  0.00  0.00    +0.000 A 
ATOM     11  C   UNL     1       0.285   8.948  22.512  0.00  0.00    +0.000 A 
ATOM     12  C   UNL     1      -0.526   9.847  23.212  0.00  0.00    +0.000 A 
ATOM     13  C   UNL     1      -1.102  10.919  22.542  0.00  0.00    +0.000 A 
ATOM     14  F   UNL     1      -1.883  11.774  23.215  0.00  0.00    +0.000 F 
ATOM     15  C   UNL     1      -0.889  11.108  21.182  0.00  0.00    +0.000 A 
ATOM     16  C   UNL     1      -0.075  10.212  20.479  0.00  0.00    +0.000 A 
ENDBRANCH   5  10
BRANCH   1  18
ATOM     17  N   UNL     1       5.842   5.133  16.446  0.00  0.00    +0.000 N 
ATOM     18  C   UNL     1       5.054   6.229  16.164  0.00  0.00    +0.000 C 
ATOM     19  O   UNL     1       5.123   6.857  15.111  0.00  0.00    +0.000 OA
ATOM     20  H   UNL     1       5.571   4.583  17.259  0.00  0.00    +0.000 HD
BRANCH  17  21
ATOM     21  C   UNL     1       6.733   4.565  15.456  0.00  0.00    +0.000 C 
BRANCH  21  22
ATOM     22  C   UNL     1       5.995   3.752  14.392  0.00  0.00    +0.000 C 
BRANCH  22  24
ATOM     23  C   UNL     1       6.052   3.143  12.114  0.00  0.00    +0.000 C 
ATOM     24  O   UNL     1       6.567   4.019  13.109  0.00  0.00    +0.000 OA
ENDBRANCH  22  24
ENDBRANCH  21  22
ENDBRANCH  17  21
ENDBRANCH   1  18
BRANCH   7  25
ATOM     25  C   UNL     1       2.218   4.462  20.425  0.00  0.00    +0.000 C 
ATOM     26  F   UNL     1       1.783   4.115  21.658  0.00  0.00    +0.000 F 
ATOM     27  F   UNL     1       1.500   3.715  19.542  0.00  0.00    +0.000 F 
ATOM     28  F   UNL     1       3.500   4.015  20.330  0.00  0.00    +0.000 F 
ENDBRANCH   7  25
TORSDOF 6
ENDMDL
MODEL 7
REMARK VINA RESULT:      -7.5      1.550      2.099
REMARK  Name = 
REMARK  7 active torsions:
REMARK  status: ('A' for Active; 'I' for Inactive)
REMARK    1  A    between atoms: C_1  and  O_2
REMARK    2  A    between atoms: O_2  and  C_3
REMARK    3  A    between atoms: C_3  and  C_4
REMARK    4  A    between atoms: C_4  and  N_5
REMARK    5  A    between atoms: C_6  and  C_8
REMARK    6  A    between atoms: C_12  and  C_13
REMARK    7  A    between atoms: C_21  and  C_22
REMARK                            x       y       z     vdW  Elec       q    Type
REMARK                         _______ _______ _______ _____ _____    ______ ____
ROOT
ATOM      1  C   UNL     1       4.325   5.114  17.625  0.00  0.00    +0.000 A 
ATOM      2  C   UNL     1       3.997   6.485  17.666  0.00  0.00    +0.000 A 
ATOM      3  C   UNL     1       3.105   6.629  18.703  0.00  0.00    +0.000 A 
ATOM      4  N   UNL     1       2.460   7.733  19.188  0.00  0.00    +0.000 NA
ATOM      5  C   UNL     1       1.663   7.557  20.205  0.00  0.00    +0.000 A 
ATOM      6  C   UNL     1       1.467   6.235  20.882  0.00  0.00    +0.000 A 
ATOM      7  C   UNL     1       2.105   5.172  20.351  0.00  0.00    +0.000 A 
ATOM      8  N   UNL     1       2.931   5.351  19.248  0.00  0.00    +0.000 N 
ATOM      9  N   UNL     1       3.660   4.429  18.572  0.00  0.00    +0.000 NA
ENDROOT
BRANCH   5  10
ATOM     10  C   UNL     1       0.898   8.721  20.753  0.00  0.00    +0.000 A 
ATOM     11  C   UNL     1       0.464   9.776  19.934  0.00  0.00    +0.000 A 
ATOM     12  C   UNL     1      -0.246  10.849  20.481  0.00  0.00    +0.000 A 
ATOM     13  C   UNL     1      -0.508  10.876  21.846  0.00  0.00    +0.000 A 
ATOM     14  F   UNL     1      -1.182  11.909  22.367  0.00  0.00    +0.000 F 
ATOM     15  C   UNL     1      -0.068   9.853  22.677  0.00  0.00    +0.000 A 
ATOM     16  C   UNL     1       0.639   8.775  22.132  0.00  0.00    +0.000 A 
ENDBRANCH   5  10
BRANCH   1  18
ATOM     17  N   UNL     1       6.139   5.324  16.078  0.00  0.00    +0.000 N 
ATOM     18  C   UNL     1       5.265   4.458  16.700  0.00  0.00    +0.000 C 
ATOM     19  O   UNL     1       5.262   3.246  16.505  0.00  0.00    +0.000 OA
ATOM     20  H   UNL     1       6.178   6.269  16.454  0.00  0.00    +0.000 HD
BRANCH  17  21
ATOM     21  C   UNL     1       7.209   4.841  15.229  0.00  0.00    +0.000 C 
BRANCH  21  22
ATOM     22  C   UNL     1       6.816   4.792  13.752  0.00  0.00    +0.000 C 
BRANCH  22  24
ATOM     23  C   UNL     1       6.148   3.239  12.107  0.00  0.00    +0.000 C 
ATOM     24  O   UNL     1       6.114   3.573  13.488  0.00  0.00    +0.000 OA
ENDBRANCH  22  24
ENDBRANCH  21  22
ENDBRANCH  17  21
ENDBRANCH   1  18
BRANCH   7  25
ATOM     25  C   UNL     1       1.951   3.818  20.935  0.00  0.00    +0.000 C 
ATOM     26  F   UNL     1       2.695   2.829  20.387  0.00  0.00    +0.000 F 
ATOM     27  F   UNL     1       2.252   3.832  22.263  0.00  0.00    +0.000 F 
ATOM     28  F   UNL     1       0.654   3.413  20.854  0.00  0.00    +0.000 F 
ENDBRANCH   7  25
TORSDOF 6
ENDMDL
MODEL 8
REMARK VINA RESULT:      -7.5      4.106      8.271
REMARK  Name = 
REMARK  7 active torsions:
REMARK  status: ('A' for Active; 'I' for Inactive)
REMARK    1  A    between atoms: C_1  and  O_2
REMARK    2  A    between atoms: O_2  and  C_3
REMARK    3  A    between atoms: C_3  and  C_4
REMARK    4  A    between atoms: C_4  and  N_5
REMARK    5  A    between atoms: C_6  and  C_8
REMARK    6  A    between atoms: C_12  and  C_13
REMARK    7  A    between atoms: C_21  and  C_22
REMARK                            x       y       z     vdW  Elec       q    Type
REMARK                         _______ _______ _______ _____ _____    ______ ____
ROOT
ATOM      1  C   UNL     1       1.092   7.835  20.806  0.00  0.00    +0.000 A 
ATOM      2  C   UNL     1       1.806   8.186  19.642  0.00  0.00    +0.000 A 
ATOM      3  C   UNL     1       2.429   7.035  19.219  0.00  0.00    +0.000 A 
ATOM      4  N   UNL     1       3.249   6.795  18.152  0.00  0.00    +0.000 NA
ATOM      5  C   UNL     1       3.689   5.577  18.002  0.00  0.00    +0.000 A 
ATOM      6  C   UNL     1       3.303   4.442  18.900  0.00  0.00    +0.000 A 
ATOM      7  C   UNL     1       2.512   4.734  19.954  0.00  0.00    +0.000 A 
ATOM      8  N   UNL     1       2.067   6.038  20.134  0.00  0.00    +0.000 N 
ATOM      9  N   UNL     1       1.270   6.537  21.110  0.00  0.00    +0.000 NA
ENDROOT
BRANCH   5  10
ATOM     10  C   UNL     1       4.623   5.263  16.876  0.00  0.00    +0.000 A 
ATOM     11  C   UNL     1       5.153   6.268  16.049  0.00  0.00    +0.000 A 
ATOM     12  C   UNL     1       6.021   5.938  15.003  0.00  0.00    +0.000 A 
ATOM     13  C   UNL     1       6.347   4.606  14.775  0.00  0.00    +0.000 A 
ATOM     14  F   UNL     1       7.174   4.294  13.768  0.00  0.00    +0.000 F 
ATOM     15  C   UNL     1       5.817   3.596  15.567  0.00  0.00    +0.000 A 
ATOM     16  C   UNL     1       4.951   3.923  16.617  0.00  0.00    +0.000 A 
ENDBRANCH   5  10
BRANCH   1  18
ATOM     17  N   UNL     1       0.690  10.022  21.693  0.00  0.00    +0.000 N 
ATOM     18  C   UNL     1       0.241   8.720  21.621  0.00  0.00    +0.000 C 
ATOM     19  O   UNL     1      -0.775   8.323  22.185  0.00  0.00    +0.000 OA
ATOM     20  H   UNL     1       1.427  10.279  21.040  0.00  0.00    +0.000 HD
BRANCH  17  21
ATOM     21  C   UNL     1      -0.084  11.055  22.351  0.00  0.00    +0.000 C 
BRANCH  21  22
ATOM     22  C   UNL     1      -0.104  12.368  21.569  0.00  0.00    +0.000 C 
BRANCH  22  24
ATOM     23  C   UNL     1       1.485  13.237  20.058  0.00  0.00    +0.000 C 
ATOM     24  O   UNL     1       1.236  12.840  21.401  0.00  0.00    +0.000 OA
ENDBRANCH  22  24
ENDBRANCH  21  22
ENDBRANCH  17  21
ENDBRANCH   1  18
BRANCH   7  25
ATOM     25  C   UNL     1       2.099   3.683  20.914  0.00  0.00    +0.000 C 
ATOM     26  F   UNL     1       2.386   3.901  22.218  0.00  0.00    +0.000 F 
ATOM     27  F   UNL     1       0.755   3.475  20.848  0.00  0.00    +0.000 F 
ATOM     28  F   UNL     1       2.673   2.492  20.588  0.00  0.00    +0.000 F 
ENDBRANCH   7  25
TORSDOF 6
ENDMDL
MODEL 9
REMARK VINA RESULT:      -7.4      1.447      2.077
REMARK  Name = 
REMARK  7 active torsions:
REMARK  status: ('A' for Active; 'I' for Inactive)
REMARK    1  A    between atoms: C_1  and  O_2
REMARK    2  A    between atoms: O_2  and  C_3
REMARK    3  A    between atoms: C_3  and  C_4
REMARK    4  A    between atoms: C_4  and  N_5
REMARK    5  A    between atoms: C_6  and  C_8
REMARK    6  A    between atoms: C_12  and  C_13
REMARK    7  A    between atoms: C_21  and  C_22
REMARK                            x       y       z     vdW  Elec       q    Type
REMARK                         _______ _______ _______ _____ _____    ______ ____
ROOT
ATOM      1  C   UNL     1       4.430   5.041  17.278  0.00  0.00    +0.000 A 
ATOM      2  C   UNL     1       4.111   6.410  17.384  0.00  0.00    +0.000 A 
ATOM      3  C   UNL     1       3.260   6.519  18.458  0.00  0.00    +0.000 A 
ATOM      4  N   UNL     1       2.639   7.606  19.009  0.00  0.00    +0.000 NA
ATOM      5  C   UNL     1       1.882   7.395  20.049  0.00  0.00    +0.000 A 
ATOM      6  C   UNL     1       1.705   6.050  20.684  0.00  0.00    +0.000 A 
ATOM      7  C   UNL     1       2.317   5.005  20.088  0.00  0.00    +0.000 A 
ATOM      8  N   UNL     1       3.101   5.222  18.962  0.00  0.00    +0.000 N 
ATOM      9  N   UNL     1       3.798   4.323  18.225  0.00  0.00    +0.000 NA
ENDROOT
BRANCH   5  10
ATOM     10  C   UNL     1       1.145   8.540  20.670  0.00  0.00    +0.000 A 
ATOM     11  C   UNL     1       0.859   8.581  22.045  0.00  0.00    +0.000 A 
ATOM     12  C   UNL     1       0.165   9.666  22.590  0.00  0.00    +0.000 A 
ATOM     13  C   UNL     1      -0.255  10.700  21.762  0.00  0.00    +0.000 A 
ATOM     14  F   UNL     1      -0.924  11.734  22.288  0.00  0.00    +0.000 F 
ATOM     15  C   UNL     1      -0.000  10.669  20.396  0.00  0.00    +0.000 A 
ATOM     16  C   UNL     1       0.697   9.586  19.847  0.00  0.00    +0.000 A 
ENDBRANCH   5  10
BRANCH   1  18
ATOM     17  N   UNL     1       6.161   5.307  15.647  0.00  0.00    +0.000 N 
ATOM     18  C   UNL     1       5.330   4.416  16.294  0.00  0.00    +0.000 C 
ATOM     19  O   UNL     1       5.332   3.209  16.074  0.00  0.00    +0.000 OA
ATOM     20  H   UNL     1       6.206   6.245  16.040  0.00  0.00    +0.000 HD
BRANCH  17  21
ATOM     21  C   UNL     1       7.192   4.856  14.735  0.00  0.00    +0.000 C 
BRANCH  21  22
ATOM     22  C   UNL     1       6.706   4.767  13.289  0.00  0.00    +0.000 C 
BRANCH  22  24
ATOM     23  C   UNL     1       5.333   3.280  12.078  0.00  0.00    +0.000 C 
ATOM     24  O   UNL     1       6.443   3.401  12.959  0.00  0.00    +0.000 OA
ENDBRANCH  22  24
ENDBRANCH  21  22
ENDBRANCH  17  21
ENDBRANCH   1  18
BRANCH   7  25
ATOM     25  C   UNL     1       2.179   3.631  20.627  0.00  0.00    +0.000 C 
ATOM     26  F   UNL     1       3.318   2.918  20.781  0.00  0.00    +0.000 F 
ATOM     27  F   UNL     1       1.574   3.653  21.847  0.00  0.00    +0.000 F 
ATOM     28  F   UNL     1       1.366   2.888  19.826  0.00  0.00    +0.000 F 
ENDBRANCH   7  25
TORSDOF 6
ENDMDL
