MODEL 1
REMARK VINA RESULT:      -7.6      0.000      0.000
REMARK  Name = 
REMARK  6 active torsions:
REMARK  status: ('A' for Active; 'I' for Inactive)
REMARK    1  A    between atoms: C_2  and  C_15
REMARK    2  A    between atoms: N_3  and  C_4
REMARK    3  A    between atoms: C_4  and  C_5
REMARK    4  A    between atoms: C_5  and  C_6
REMARK    5  A    between atoms: C_6  and  N_7
REMARK    6  A    between atoms: C_8  and  C_10
REMARK                            x       y       z     vdW  Elec       q    Type
REMARK                         _______ _______ _______ _____ _____    ______ ____
ROOT
ATOM      1  C   UNL     1       7.532   4.752  18.116  0.00  0.00    +0.000 C 
ENDROOT
BRANCH   1   4
ATOM      2  O   UNL     1       5.345   4.949  16.334  0.00  0.00    +0.000 OA
ATOM      3  C   UNL     1       5.183   4.420  17.426  0.00  0.00    +0.000 C 
ATOM      4  N   UNL     1       6.188   4.265  18.359  0.00  0.00    +0.000 N 
ATOM      5  H   UNL     1       6.024   3.702  19.184  0.00  0.00    +0.000 HD
BRANCH   3   6
ATOM      6  C   UNL     1       3.848   3.881  17.798  0.00  0.00    +0.000 A 
ATOM      7  C   UNL     1       3.758   2.537  18.186  0.00  0.00    +0.000 A 
ATOM      8  C   UNL     1       2.519   1.982  18.510  0.00  0.00    +0.000 A 
ATOM      9  C   UNL     1       1.375   2.769  18.432  0.00  0.00    +0.000 A 
ATOM     10  F   UNL     1       0.185   2.234  18.729  0.00  0.00    +0.000 F 
ATOM     11  C   UNL     1       1.448   4.102  18.039  0.00  0.00    +0.000 A 
ATOM     12  C   UNL     1       2.686   4.664  17.719  0.00  0.00    +0.000 A 
ENDBRANCH   3   6
ENDBRANCH   1   4
BRANCH   1  13
ATOM     13  C   UNL     1       7.882   5.967  18.973  0.00  0.00    +0.000 C 
BRANCH  13  14
ATOM     14  C   UNL     1       7.911   7.254  18.154  0.00  0.00    +0.000 C 
BRANCH  14  15
ATOM     15  N   UNL     1       8.667   8.295  18.811  0.00  0.00    +0.000 N 
ATOM     16  C   UNL     1       8.582   9.624  18.447  0.00  0.00    +0.000 C 
ATOM     17  O   UNL     1       7.858  10.011  17.531  0.00  0.00    +0.000 OA
ATOM     18  H   UNL     1       9.232   8.076  19.624  0.00  0.00    +0.000 HD
BRANCH  16  19
ATOM     19  C   UNL     1       9.422  10.505  19.231  0.00  0.00    +0.000 A 
ATOM     20  C   UNL     1      10.617  11.127  18.927  0.00  0.00    +0.000 A 
ATOM     21  C   UNL     1      11.002  11.862  20.073  0.00  0.00    +0.000 A 
ATOM     22  C   UNL     1      10.021  11.645  21.011  0.00  0.00    +0.000 A 
ATOM     23  O   UNL     1       9.057  10.827  20.515  0.00  0.00    +0.000 OA
ENDBRANCH  16  19
ENDBRANCH  14  15
ENDBRANCH  13  14
ENDBRANCH   1  13
TORSDOF 6
ENDMDL
MODEL 2
REMARK VINA RESULT:      -7.5      3.677      5.751
REMARK  Name = 
REMARK  6 active torsions:
REMARK  status: ('A' for Active; 'I' for Inactive)
REMARK    1  A    between atoms: C_2  and  C_15
REMARK    2  A    between atoms: N_3  and  C_4
REMARK    3  A    between atoms: C_4  and  C_5
REMARK    4  A    between atoms: C_5  and  C_6
REMARK    5  A    between atoms: C_6  and  N_7
REMARK    6  A    between atoms: C_8  and  C_10
REMARK                            x       y       z     vdW  Elec       q    Type
REMARK                         _______ _______ _______ _____ _____    ______ ____
ROOT
ATOM      1  C   UNL     1       6.852   5.427  19.560  0.00  0.00    +0.000 C 
ENDROOT
BRANCH   1   4
ATOM      2  O   UNL     1       4.185   6.354  19.411  0.00  0.00    +0.000 OA
ATOM      3  C   UNL     1       4.413   5.160  19.269  0.00  0.00    +0.000 C 
ATOM      4  N   UNL     1       5.678   4.611  19.313  0.00  0.00    +0.000 N 
ATOM      5  H   UNL     1       5.814   3.642  19.055  0.00  0.00    +0.000 HD
BRANCH   3   6
ATOM      6  C   UNL     1       3.293   4.217  19.012  0.00  0.00    +0.000 A 
ATOM      7  C   UNL     1       2.105   4.381  19.740  0.00  0.00    +0.000 A 
ATOM      8  C   UNL     1       1.041   3.498  19.556  0.00  0.00    +0.000 A 
ATOM      9  C   UNL     1       1.173   2.448  18.654  0.00  0.00    +0.000 A 
ATOM     10  F   UNL     1       0.157   1.592  18.486  0.00  0.00    +0.000 F 
ATOM     11  C   UNL     1       2.348   2.266  17.930  0.00  0.00    +0.000 A 
ATOM     12  C   UNL     1       3.415   3.151  18.108  0.00  0.00    +0.000 A 
ENDBRANCH   3   6
ENDBRANCH   1   4
BRANCH   1  13
ATOM     13  C   UNL     1       7.795   5.479  18.359  0.00  0.00    +0.000 C 
BRANCH  13  14
ATOM     14  C   UNL     1       7.275   6.408  17.266  0.00  0.00    +0.000 C 
BRANCH  14  15
ATOM     15  N   UNL     1       7.306   5.780  15.965  0.00  0.00    +0.000 N 
ATOM     16  C   UNL     1       6.181   5.254  15.363  0.00  0.00    +0.000 C 
ATOM     17  O   UNL     1       5.074   5.280  15.898  0.00  0.00    +0.000 OA
ATOM     18  H   UNL     1       8.161   5.782  15.420  0.00  0.00    +0.000 HD
BRANCH  16  19
ATOM     19  C   UNL     1       6.428   4.670  14.061  0.00  0.00    +0.000 A 
ATOM     20  C   UNL     1       7.429   4.902  13.138  0.00  0.00    +0.000 A 
ATOM     21  C   UNL     1       7.171   4.059  12.031  0.00  0.00    +0.000 A 
ATOM     22  C   UNL     1       6.027   3.363  12.341  0.00  0.00    +0.000 A 
ATOM     23  O   UNL     1       5.567   3.721  13.567  0.00  0.00    +0.000 OA
ENDBRANCH  16  19
ENDBRANCH  14  15
ENDBRANCH  13  14
ENDBRANCH   1  13
TORSDOF 6
ENDMDL
MODEL 3
REMARK VINA RESULT:      -7.3      3.491      5.575
REMARK  Name = 
REMARK  6 active torsions:
REMARK  status: ('A' for Active; 'I' for Inactive)
REMARK    1  A    between atoms: C_2  and  C_15
REMARK    2  A    between atoms: N_3  and  C_4
REMARK    3  A    between atoms: C_4  and  C_5
REMARK    4  A    between atoms: C_5  and  C_6
REMARK    5  A    between atoms: C_6  and  N_7
REMARK    6  A    between atoms: C_8  and  C_10
REMARK                            x       y       z     vdW  Elec       q    Type
REMARK                         _______ _______ _______ _____ _____    ______ ____
ROOT
ATOM      1  C   UNL     1       7.644   4.575  18.074  0.00  0.00    +0.000 C 
ENDROOT
BRANCH   1   4
ATOM      2  O   UNL     1       5.656   4.910  20.057  0.00  0.00    +0.000 OA
ATOM      3  C   UNL     1       5.393   4.272  19.046  0.00  0.00    +0.000 C 
ATOM      4  N   UNL     1       6.288   4.062  18.018  0.00  0.00    +0.000 N 
ATOM      5  H   UNL     1       5.970   3.643  17.154  0.00  0.00    +0.000 HD
BRANCH   3   6
ATOM      6  C   UNL     1       4.036   3.690  18.869  0.00  0.00    +0.000 A 
ATOM      7  C   UNL     1       3.030   4.064  19.772  0.00  0.00    +0.000 A 
ATOM      8  C   UNL     1       1.751   3.515  19.665  0.00  0.00    +0.000 A 
ATOM      9  C   UNL     1       1.487   2.588  18.662  0.00  0.00    +0.000 A 
ATOM     10  F   UNL     1       0.264   2.052  18.566  0.00  0.00    +0.000 F 
ATOM     11  C   UNL     1       2.477   2.201  17.764  0.00  0.00    +0.000 A 
ATOM     12  C   UNL     1       3.758   2.751  17.865  0.00  0.00    +0.000 A 
ENDBRANCH   3   6
ENDBRANCH   1   4
BRANCH   1  13
ATOM     13  C   UNL     1       7.693   6.068  18.396  0.00  0.00    +0.000 C 
BRANCH  13  14
ATOM     14  C   UNL     1       7.354   6.925  17.179  0.00  0.00    +0.000 C 
BRANCH  14  15
ATOM     15  N   UNL     1       7.350   6.151  15.959  0.00  0.00    +0.000 N 
ATOM     16  C   UNL     1       6.189   5.700  15.364  0.00  0.00    +0.000 C 
ATOM     17  O   UNL     1       5.076   5.923  15.838  0.00  0.00    +0.000 OA
ATOM     18  H   UNL     1       8.217   5.985  15.461  0.00  0.00    +0.000 HD
BRANCH  16  19
ATOM     19  C   UNL     1       6.405   4.943  14.149  0.00  0.00    +0.000 A 
ATOM     20  C   UNL     1       5.739   3.849  13.631  0.00  0.00    +0.000 A 
ATOM     21  C   UNL     1       6.387   3.509  12.419  0.00  0.00    +0.000 A 
ATOM     22  C   UNL     1       7.411   4.414  12.268  0.00  0.00    +0.000 A 
ATOM     23  O   UNL     1       7.433   5.288  13.306  0.00  0.00    +0.000 OA
ENDBRANCH  16  19
ENDBRANCH  14  15
ENDBRANCH  13  14
ENDBRANCH   1  13
TORSDOF 6
ENDMDL
MODEL 4
REMARK VINA RESULT:      -7.3      4.849      6.717
REMARK  Name = 
REMARK  6 active torsions:
REMARK  status: ('A' for Active; 'I' for Inactive)
REMARK    1  A    between atoms: C_2  and  C_15
REMARK    2  A    between atoms: N_3  and  C_4
REMARK    3  A    between atoms: C_4  and  C_5
REMARK    4  A    between atoms: C_5  and  C_6
REMARK    5  A    between atoms: C_6  and  N_7
REMARK    6  A    between atoms: C_8  and  C_10
REMARK                            x       y       z     vdW  Elec       q    Type
REMARK                         _______ _______ _______ _____ _____    ______ ____
ROOT
ATOM      1  C   UNL     1       3.557   4.541  17.835  0.00  0.00    +0.000 C 
ENDROOT
BRANCH   1   4
ATOM      2  O   UNL     1       4.005   7.305  17.446  0.00  0.00    +0.000 OA
ATOM      3  C   UNL     1       3.053   6.942  18.124  0.00  0.00    +0.000 C 
ATOM      4  N   UNL     1       2.743   5.619  18.364  0.00  0.00    +0.000 N 
ATOM      5  H   UNL     1       1.870   5.383  18.818  0.00  0.00    +0.000 HD
BRANCH   3   6
ATOM      6  C   UNL     1       2.143   7.953  18.726  0.00  0.00    +0.000 A 
ATOM      7  C   UNL     1       1.624   8.958  17.895  0.00  0.00    +0.000 A 
ATOM      8  C   UNL     1       0.794   9.947  18.425  0.00  0.00    +0.000 A 
ATOM      9  C   UNL     1       0.498   9.934  19.784  0.00  0.00    +0.000 A 
ATOM     10  F   UNL     1      -0.287  10.891  20.296  0.00  0.00    +0.000 F 
ATOM     11  C   UNL     1       1.013   8.950  20.622  0.00  0.00    +0.000 A 
ATOM     12  C   UNL     1       1.840   7.954  20.095  0.00  0.00    +0.000 A 
ENDBRANCH   3   6
ENDBRANCH   1   4
BRANCH   1  13
ATOM     13  C   UNL     1       4.650   4.099  18.806  0.00  0.00    +0.000 C 
BRANCH  13  14
ATOM     14  C   UNL     1       6.040   4.499  18.320  0.00  0.00    +0.000 C 
BRANCH  14  15
ATOM     15  N   UNL     1       6.191   4.303  16.896  0.00  0.00    +0.000 N 
ATOM     16  C   UNL     1       6.819   5.220  16.078  0.00  0.00    +0.000 C 
ATOM     17  O   UNL     1       7.289   6.272  16.506  0.00  0.00    +0.000 OA
ATOM     18  H   UNL     1       5.898   3.430  16.470  0.00  0.00    +0.000 HD
BRANCH  16  19
ATOM     19  C   UNL     1       6.863   4.832  14.683  0.00  0.00    +0.000 A 
ATOM     20  C   UNL     1       6.077   3.955  13.960  0.00  0.00    +0.000 A 
ATOM     21  C   UNL     1       6.577   3.951  12.636  0.00  0.00    +0.000 A 
ATOM     22  C   UNL     1       7.639   4.824  12.628  0.00  0.00    +0.000 A 
ATOM     23  O   UNL     1       7.823   5.366  13.859  0.00  0.00    +0.000 OA
ENDBRANCH  16  19
ENDBRANCH  14  15
ENDBRANCH  13  14
ENDBRANCH   1  13
TORSDOF 6
ENDMDL
MODEL 5
REMARK VINA RESULT:      -7.1      3.755      9.470
REMARK  Name = 
REMARK  6 active torsions:
REMARK  status: ('A' for Active; 'I' for Inactive)
REMARK    1  A    between atoms: C_2  and  C_15
REMARK    2  A    between atoms: N_3  and  C_4
REMARK    3  A    between atoms: C_4  and  C_5
REMARK    4  A    between atoms: C_5  and  C_6
REMARK    5  A    between atoms: C_6  and  N_7
REMARK    6  A    between atoms: C_8  and  C_10
REMARK                            x       y       z     vdW  Elec       q    Type
REMARK                         _______ _______ _______ _____ _____    ______ ____
ROOT
ATOM      1  C   UNL     1       7.756   7.212  18.094  0.00  0.00    +0.000 C 
ENDROOT
BRANCH   1   4
ATOM      2  O   UNL     1       7.540   9.969  17.507  0.00  0.00    +0.000 OA
ATOM      3  C   UNL     1       8.454   9.578  18.221  0.00  0.00    +0.000 C 
ATOM      4  N   UNL     1       8.639   8.258  18.574  0.00  0.00    +0.000 N 
ATOM      5  H   UNL     1       9.331   8.018  19.273  0.00  0.00    +0.000 HD
BRANCH   3   6
ATOM      6  C   UNL     1       9.431  10.554  18.775  0.00  0.00    +0.000 A 
ATOM      7  C   UNL     1      10.331  11.167  17.892  0.00  0.00    +0.000 A 
ATOM      8  C   UNL     1      11.287  12.062  18.374  0.00  0.00    +0.000 A 
ATOM      9  C   UNL     1      11.346  12.331  19.737  0.00  0.00    +0.000 A 
ATOM     10  F   UNL     1      12.271  13.180  20.203  0.00  0.00    +0.000 F 
ATOM     11  C   UNL     1      10.465  11.723  20.627  0.00  0.00    +0.000 A 
ATOM     12  C   UNL     1       9.503  10.830  20.148  0.00  0.00    +0.000 A 
ENDBRANCH   3   6
ENDBRANCH   1   4
BRANCH   1  13
ATOM     13  C   UNL     1       7.866   5.928  18.915  0.00  0.00    +0.000 C 
BRANCH  13  14
ATOM     14  C   UNL     1       7.574   4.688  18.075  0.00  0.00    +0.000 C 
BRANCH  14  15
ATOM     15  N   UNL     1       6.351   4.036  18.482  0.00  0.00    +0.000 N 
ATOM     16  C   UNL     1       5.134   4.285  17.880  0.00  0.00    +0.000 C 
ATOM     17  O   UNL     1       5.009   5.088  16.957  0.00  0.00    +0.000 OA
ATOM     18  H   UNL     1       6.375   3.305  19.186  0.00  0.00    +0.000 HD
BRANCH  16  19
ATOM     19  C   UNL     1       4.033   3.528  18.439  0.00  0.00    +0.000 A 
ATOM     20  C   UNL     1       3.422   3.595  19.676  0.00  0.00    +0.000 A 
ATOM     21  C   UNL     1       2.406   2.610  19.686  0.00  0.00    +0.000 A 
ATOM     22  C   UNL     1       2.458   1.997  18.457  0.00  0.00    +0.000 A 
ATOM     23  O   UNL     1       3.436   2.544  17.691  0.00  0.00    +0.000 OA
ENDBRANCH  16  19
ENDBRANCH  14  15
ENDBRANCH  13  14
ENDBRANCH   1  13
TORSDOF 6
ENDMDL
MODEL 6
REMARK VINA RESULT:      -7.1      4.191      6.764
REMARK  Name = 
REMARK  6 active torsions:
REMARK  status: ('A' for Active; 'I' for Inactive)
REMARK    1  A    between atoms: C_2  and  C_15
REMARK    2  A    between atoms: N_3  and  C_4
REMARK    3  A    between atoms: C_4  and  C_5
REMARK    4  A    between atoms: C_5  and  C_6
REMARK    5  A    between atoms: C_6  and  N_7
REMARK    6  A    between atoms: C_8  and  C_10
REMARK                            x       y       z     vdW  Elec       q    Type
REMARK                         _______ _______ _______ _____ _____    ______ ____
ROOT
ATOM      1  C   UNL     1       7.235   5.260  18.456  0.00  0.00    +0.000 C 
ENDROOT
BRANCH   1   4
ATOM      2  O   UNL     1       4.552   6.133  18.273  0.00  0.00    +0.000 OA
ATOM      3  C   UNL     1       4.827   5.192  19.005  0.00  0.00    +0.000 C 
ATOM      4  N   UNL     1       6.101   4.684  19.155  0.00  0.00    +0.000 N 
ATOM      5  H   UNL     1       6.241   3.824  19.669  0.00  0.00    +0.000 HD
BRANCH   3   6
ATOM      6  C   UNL     1       3.751   4.516  19.779  0.00  0.00    +0.000 A 
ATOM      7  C   UNL     1       3.935   3.173  20.140  0.00  0.00    +0.000 A 
ATOM      8  C   UNL     1       2.936   2.491  20.836  0.00  0.00    +0.000 A 
ATOM      9  C   UNL     1       1.755   3.150  21.158  0.00  0.00    +0.000 A 
ATOM     10  F   UNL     1       0.791   2.492  21.814  0.00  0.00    +0.000 F 
ATOM     11  C   UNL     1       1.555   4.480  20.799  0.00  0.00    +0.000 A 
ATOM     12  C   UNL     1       2.554   5.169  20.106  0.00  0.00    +0.000 A 
ENDBRANCH   3   6
ENDBRANCH   1   4
BRANCH   1  13
ATOM     13  C   UNL     1       7.436   4.657  17.067  0.00  0.00    +0.000 C 
BRANCH  13  14
ATOM     14  C   UNL     1       6.741   5.477  15.984  0.00  0.00    +0.000 C 
BRANCH  14  15
ATOM     15  N   UNL     1       6.231   4.643  14.920  0.00  0.00    +0.000 N 
ATOM     16  C   UNL     1       6.779   4.629  13.653  0.00  0.00    +0.000 C 
ATOM     17  O   UNL     1       7.738   5.333  13.343  0.00  0.00    +0.000 OA
ATOM     18  H   UNL     1       5.489   3.977  15.108  0.00  0.00    +0.000 HD
BRANCH  16  19
ATOM     19  C   UNL     1       6.119   3.724  12.735  0.00  0.00    +0.000 A 
ATOM     20  C   UNL     1       6.605   2.654  12.008  0.00  0.00    +0.000 A 
ATOM     21  C   UNL     1       5.520   2.136  11.263  0.00  0.00    +0.000 A 
ATOM     22  C   UNL     1       4.435   2.919  11.577  0.00  0.00    +0.000 A 
ATOM     23  O   UNL     1       4.781   3.883  12.468  0.00  0.00    +0.000 OA
ENDBRANCH  16  19
ENDBRANCH  14  15
ENDBRANCH  13  14
ENDBRANCH   1  13
TORSDOF 6
ENDMDL
MODEL 7
REMARK VINA RESULT:      -7.1      4.219      6.371
REMARK  Name = 
REMARK  6 active torsions:
REMARK  status: ('A' for Active; 'I' for Inactive)
REMARK    1  A    between atoms: C_2  and  C_15
REMARK    2  A    between atoms: N_3  and  C_4
REMARK    3  A    between atoms: C_4  and  C_5
REMARK    4  A    between atoms: C_5  and  C_6
REMARK    5  A    between atoms: C_6  and  N_7
REMARK    6  A    between atoms: C_8  and  C_10
REMARK                            x       y       z     vdW  Elec       q    Type
REMARK                         _______ _______ _______ _____ _____    ______ ____
ROOT
ATOM      1  C   UNL     1       6.591   4.291  17.550  0.00  0.00    +0.000 C 
ENDROOT
BRANCH   1   4
ATOM      2  O   UNL     1       3.836   3.908  17.038  0.00  0.00    +0.000 OA
ATOM      3  C   UNL     1       4.260   3.765  18.178  0.00  0.00    +0.000 C 
ATOM      4  N   UNL     1       5.586   3.918  18.528  0.00  0.00    +0.000 N 
ATOM      5  H   UNL     1       5.893   3.656  19.456  0.00  0.00    +0.000 HD
BRANCH   3   6
ATOM      6  C   UNL     1       3.327   3.385  19.273  0.00  0.00    +0.000 A 
ATOM      7  C   UNL     1       1.977   3.743  19.149  0.00  0.00    +0.000 A 
ATOM      8  C   UNL     1       1.074   3.438  20.169  0.00  0.00    +0.000 A 
ATOM      9  C   UNL     1       1.528   2.787  21.311  0.00  0.00    +0.000 A 
ATOM     10  F   UNL     1       0.665   2.505  22.295  0.00  0.00    +0.000 F 
ATOM     11  C   UNL     1       2.866   2.433  21.452  0.00  0.00    +0.000 A 
ATOM     12  C   UNL     1       3.773   2.733  20.432  0.00  0.00    +0.000 A 
ENDBRANCH   3   6
ENDBRANCH   1   4
BRANCH   1  13
ATOM     13  C   UNL     1       6.831   5.799  17.501  0.00  0.00    +0.000 C 
BRANCH  13  14
ATOM     14  C   UNL     1       6.076   6.459  16.351  0.00  0.00    +0.000 C 
BRANCH  14  15
ATOM     15  N   UNL     1       5.862   5.546  15.251  0.00  0.00    +0.000 N 
ATOM     16  C   UNL     1       6.860   5.201  14.363  0.00  0.00    +0.000 C 
ATOM     17  O   UNL     1       8.001   5.653  14.444  0.00  0.00    +0.000 OA
ATOM     18  H   UNL     1       4.973   5.069  15.153  0.00  0.00    +0.000 HD
BRANCH  16  19
ATOM     19  C   UNL     1       6.438   4.273  13.334  0.00  0.00    +0.000 A 
ATOM     20  C   UNL     1       5.246   3.599  13.155  0.00  0.00    +0.000 A 
ATOM     21  C   UNL     1       5.389   2.813  11.986  0.00  0.00    +0.000 A 
ATOM     22  C   UNL     1       6.661   3.051  11.522  0.00  0.00    +0.000 A 
ATOM     23  O   UNL     1       7.306   3.934  12.326  0.00  0.00    +0.000 OA
ENDBRANCH  16  19
ENDBRANCH  14  15
ENDBRANCH  13  14
ENDBRANCH   1  13
TORSDOF 6
ENDMDL
MODEL 8
REMARK VINA RESULT:      -7.1      5.218      6.712
REMARK  Name = 
REMARK  6 active torsions:
REMARK  status: ('A' for Active; 'I' for Inactive)
REMARK    1  A    between atoms: C_2  and  C_15
REMARK    2  A    between atoms: N_3  and  C_4
REMARK    3  A    between atoms: C_4  and  C_5
REMARK    4  A    between atoms: C_5  and  C_6
REMARK    5  A    between atoms: C_6  and  N_7
REMARK    6  A    between atoms: C_8  and  C_10
REMARK                            x       y       z     vdW  Elec       q    Type
REMARK                         _______ _______ _______ _____ _____    ______ ____
ROOT
ATOM      1  C   UNL     1       2.496   3.959  18.760  0.00  0.00    +0.000 C 
ENDROOT
BRANCH   1   4
ATOM      2  O   UNL     1       3.678   6.342  17.800  0.00  0.00    +0.000 OA
ATOM      3  C   UNL     1       2.681   6.410  18.507  0.00  0.00    +0.000 C 
ATOM      4  N   UNL     1       2.025   5.308  19.016  0.00  0.00    +0.000 N 
ATOM      5  H   UNL     1       1.134   5.425  19.480  0.00  0.00    +0.000 HD
BRANCH   3   6
ATOM      6  C   UNL     1       2.102   7.738  18.845  0.00  0.00    +0.000 A 
ATOM      7  C   UNL     1       1.651   7.952  20.155  0.00  0.00    +0.000 A 
ATOM      8  C   UNL     1       1.069   9.171  20.506  0.00  0.00    +0.000 A 
ATOM      9  C   UNL     1       0.929  10.165  19.543  0.00  0.00    +0.000 A 
ATOM     10  F   UNL     1       0.359  11.329  19.876  0.00  0.00    +0.000 F 
ATOM     11  C   UNL     1       1.364   9.963  18.236  0.00  0.00    +0.000 A 
ATOM     12  C   UNL     1       1.952   8.746  17.881  0.00  0.00    +0.000 A 
ENDBRANCH   3   6
ENDBRANCH   1   4
BRANCH   1  13
ATOM     13  C   UNL     1       3.261   3.370  19.944  0.00  0.00    +0.000 C 
BRANCH  13  14
ATOM     14  C   UNL     1       4.731   3.132  19.611  0.00  0.00    +0.000 C 
BRANCH  14  15
ATOM     15  N   UNL     1       5.028   3.440  18.231  0.00  0.00    +0.000 N 
ATOM     16  C   UNL     1       6.127   4.184  17.852  0.00  0.00    +0.000 C 
ATOM     17  O   UNL     1       6.927   4.641  18.666  0.00  0.00    +0.000 OA
ATOM     18  H   UNL     1       4.464   3.041  17.489  0.00  0.00    +0.000 HD
BRANCH  16  19
ATOM     19  C   UNL     1       6.242   4.378  16.421  0.00  0.00    +0.000 A 
ATOM     20  C   UNL     1       5.301   4.279  15.414  0.00  0.00    +0.000 A 
ATOM     21  C   UNL     1       5.969   4.561  14.199  0.00  0.00    +0.000 A 
ATOM     22  C   UNL     1       7.278   4.813  14.534  0.00  0.00    +0.000 A 
ATOM     23  O   UNL     1       7.457   4.708  15.875  0.00  0.00    +0.000 OA
ENDBRANCH  16  19
ENDBRANCH  14  15
ENDBRANCH  13  14
ENDBRANCH   1  13
TORSDOF 6
ENDMDL
MODEL 9
REMARK VINA RESULT:      -7.1      4.226      6.292
REMARK  Name = 
REMARK  6 active torsions:
REMARK  status: ('A' for Active; 'I' for Inactive)
REMARK    1  A    between atoms: C_2  and  C_15
REMARK    2  A    between atoms: N_3  and  C_4
REMARK    3  A    between atoms: C_4  and  C_5
REMARK    4  A    between atoms: C_5  and  C_6
REMARK    5  A    between atoms: C_6  and  N_7
REMARK    6  A    between atoms: C_8  and  C_10
REMARK                            x       y       z     vdW  Elec       q    Type
REMARK                         _______ _______ _______ _____ _____    ______ ____
ROOT
ATOM      1  C   UNL     1       6.566   4.232  17.602  0.00  0.00    +0.000 C 
ENDROOT
BRANCH   1   4
ATOM      2  O   UNL     1       3.775   4.482  17.226  0.00  0.00    +0.000 OA
ATOM      3  C   UNL     1       4.201   4.059  18.293  0.00  0.00    +0.000 C 
ATOM      4  N   UNL     1       5.541   3.890  18.570  0.00  0.00    +0.000 N 
ATOM      5  H   UNL     1       5.822   3.412  19.417  0.00  0.00    +0.000 HD
BRANCH   3   6
ATOM      6  C   UNL     1       3.250   3.676  19.370  0.00  0.00    +0.000 A 
ATOM      7  C   UNL     1       3.728   2.895  20.433  0.00  0.00    +0.000 A 
ATOM      8  C   UNL     1       2.863   2.483  21.447  0.00  0.00    +0.000 A 
ATOM      9  C   UNL     1       1.521   2.844  21.388  0.00  0.00    +0.000 A 
ATOM     10  F   UNL     1       0.687   2.438  22.354  0.00  0.00    +0.000 F 
ATOM     11  C   UNL     1       1.029   3.611  20.336  0.00  0.00    +0.000 A 
ATOM     12  C   UNL     1       1.893   4.029  19.320  0.00  0.00    +0.000 A 
ENDBRANCH   3   6
ENDBRANCH   1   4
BRANCH   1  13
ATOM     13  C   UNL     1       6.943   5.712  17.644  0.00  0.00    +0.000 C 
BRANCH  13  14
ATOM     14  C   UNL     1       6.464   6.458  16.402  0.00  0.00    +0.000 C 
BRANCH  14  15
ATOM     15  N   UNL     1       6.110   5.554  15.332  0.00  0.00    +0.000 N 
ATOM     16  C   UNL     1       6.982   5.223  14.315  0.00  0.00    +0.000 C 
ATOM     17  O   UNL     1       8.121   5.682  14.248  0.00  0.00    +0.000 OA
ATOM     18  H   UNL     1       5.218   5.071  15.349  0.00  0.00    +0.000 HD
BRANCH  16  19
ATOM     19  C   UNL     1       6.432   4.301  13.343  0.00  0.00    +0.000 A 
ATOM     20  C   UNL     1       5.157   3.788  13.200  0.00  0.00    +0.000 A 
ATOM     21  C   UNL     1       5.186   2.920  12.083  0.00  0.00    +0.000 A 
ATOM     22  C   UNL     1       6.476   2.952  11.610  0.00  0.00    +0.000 A 
ATOM     23  O   UNL     1       7.241   3.785  12.361  0.00  0.00    +0.000 OA
ENDBRANCH  16  19
ENDBRANCH  14  15
ENDBRANCH  13  14
ENDBRANCH   1  13
TORSDOF 6
ENDMDL
