MODEL 1
REMARK VINA RESULT:      -8.3      0.000      0.000
REMARK  Name = 
REMARK  7 active torsions:
REMARK  status: ('A' for Active; 'I' for Inactive)
REMARK    1  A    between atoms: C_1  and  C_2
REMARK    2  A    between atoms: C_2  and  N_3
REMARK    3  A    between atoms: N_3  and  C_4
REMARK    4  A    between atoms: N_3  and  S_10
REMARK    5  A    between atoms: S_10  and  C_13
REMARK    6  A    between atoms: C_16  and  C_17
REMARK    7  A    between atoms: C_23  and  C_24
REMARK                            x       y       z     vdW  Elec       q    Type
REMARK                         _______ _______ _______ _____ _____    ______ ____
ROOT
ATOM      1  C   UNL     1      -1.335  12.315  19.934  0.00  0.00    +0.000 A 
ATOM      2  C   UNL     1      -1.760  11.123  19.354  0.00  0.00    +0.000 A 
ATOM      3  C   UNL     1      -0.808  10.208  18.902  0.00  0.00    +0.000 A 
ATOM      4  C   UNL     1       0.570  10.480  19.011  0.00  0.00    +0.000 A 
ATOM      5  C   UNL     1       0.976  11.729  19.509  0.00  0.00    +0.000 A 
ATOM      6  C   UNL     1       0.024  12.649  19.973  0.00  0.00    +0.000 A 
ENDROOT
BRANCH   4   7
ATOM      7  C   UNL     1       1.518   9.385  18.613  0.00  0.00    +0.000 C 
ATOM      8  O   UNL     1       2.038   9.444  17.506  0.00  0.00    +0.000 OA
ATOM      9  N   UNL     1       1.664   8.348  19.507  0.00  0.00    +0.000 N 
ATOM     10  C   UNL     1       2.409   7.237  19.231  0.00  0.00    +0.000 A 
ATOM     11  N   UNL     1       2.456   6.142  19.960  0.00  0.00    +0.000 NA
ATOM     12  N   UNL     1       3.334   5.287  19.324  0.00  0.00    +0.000 NA
ATOM     13  C   UNL     1       3.779   5.930  18.263  0.00  0.00    +0.000 A 
ATOM     14  O   UNL     1       3.220   7.175  18.132  0.00  0.00    +0.000 OA
ATOM     15  H   UNL     1       1.135   8.285  20.358  0.00  0.00    +0.000 HD
BRANCH  13  16
ATOM     16  C   UNL     1       4.803   5.541  17.300  0.00  0.00    +0.000 A 
ATOM     17  C   UNL     1       6.007   6.268  17.242  0.00  0.00    +0.000 A 
ATOM     18  C   UNL     1       6.971   5.986  16.270  0.00  0.00    +0.000 A 
ATOM     19  C   UNL     1       6.737   4.971  15.351  0.00  0.00    +0.000 A 
ATOM     20  F   UNL     1       7.644   4.722  14.398  0.00  0.00    +0.000 F 
ATOM     21  C   UNL     1       5.570   4.219  15.403  0.00  0.00    +0.000 A 
ATOM     22  C   UNL     1       4.606   4.499  16.378  0.00  0.00    +0.000 A 
ENDBRANCH  13  16
ENDBRANCH   4   7
BRANCH   1  23
ATOM     23  S   UNL     1      -2.557  13.414  20.626  0.00  0.00    +0.000 S 
ATOM     24  O   UNL     1      -3.777  13.088  19.920  0.00  0.00    +0.000 OA
ATOM     25  O   UNL     1      -1.987  14.746  20.598  0.00  0.00    +0.000 OA
BRANCH  23  26
ATOM     26  N   UNL     1      -2.691  12.944  22.276  0.00  0.00    +0.000 NA
BRANCH  26  27
ATOM     27  C   UNL     1      -3.571  13.770  23.212  0.00  0.00    +0.000 C 
ATOM     28  C   UNL     1      -4.819  14.411  22.581  0.00  0.00    +0.000 C 
ATOM     29  C   UNL     1      -6.089  13.569  22.636  0.00  0.00    +0.000 C 
ATOM     30  C   UNL     1      -6.372  13.021  24.028  0.00  0.00    +0.000 C 
ATOM     31  C   UNL     1      -5.174  12.286  24.603  0.00  0.00    +0.000 C 
ATOM     32  C   UNL     1      -3.893  13.121  24.566  0.00  0.00    +0.000 C 
ENDBRANCH  26  27
BRANCH  26  34
ATOM     33  C   UNL     1      -1.370  10.998  23.175  0.00  0.00    +0.000 C 
ATOM     34  C   UNL     1      -1.400  12.496  22.902  0.00  0.00    +0.000 C 
ENDBRANCH  26  34
ENDBRANCH  23  26
ENDBRANCH   1  23
TORSDOF 6
ENDMDL
MODEL 2
REMARK VINA RESULT:      -8.3      1.955      2.524
REMARK  Name = 
REMARK  7 active torsions:
REMARK  status: ('A' for Active; 'I' for Inactive)
REMARK    1  A    between atoms: C_1  and  C_2
REMARK    2  A    between atoms: C_2  and  N_3
REMARK    3  A    between atoms: N_3  and  C_4
REMARK    4  A    between atoms: N_3  and  S_10
REMARK    5  A    between atoms: S_10  and  C_13
REMARK    6  A    between atoms: C_16  and  C_17
REMARK    7  A    between atoms: C_23  and  C_24
REMARK                            x       y       z     vdW  Elec       q    Type
REMARK                         _______ _______ _______ _____ _____    ______ ____
ROOT
ATOM      1  C   UNL     1      -1.147  11.775  22.602  0.00  0.00    +0.000 A 
ATOM      2  C   UNL     1      -0.315  12.160  21.554  0.00  0.00    +0.000 A 
ATOM      3  C   UNL     1       0.480  11.200  20.928  0.00  0.00    +0.000 A 
ATOM      4  C   UNL     1       0.465   9.856  21.350  0.00  0.00    +0.000 A 
ATOM      5  C   UNL     1      -0.306   9.508  22.471  0.00  0.00    +0.000 A 
ATOM      6  C   UNL     1      -1.115  10.466  23.098  0.00  0.00    +0.000 A 
ENDROOT
BRANCH   4   7
ATOM      7  C   UNL     1       1.259   8.873  20.537  0.00  0.00    +0.000 C 
ATOM      8  O   UNL     1       1.645   9.219  19.428  0.00  0.00    +0.000 OA
ATOM      9  N   UNL     1       1.420   7.619  21.081  0.00  0.00    +0.000 N 
ATOM     10  C   UNL     1       2.025   6.596  20.407  0.00  0.00    +0.000 A 
ATOM     11  N   UNL     1       2.063   5.338  20.792  0.00  0.00    +0.000 NA
ATOM     12  N   UNL     1       2.779   4.657  19.829  0.00  0.00    +0.000 NA
ATOM     13  C   UNL     1       3.149   5.552  18.935  0.00  0.00    +0.000 A 
ATOM     14  O   UNL     1       2.690   6.809  19.232  0.00  0.00    +0.000 OA
ATOM     15  H   UNL     1       0.994   7.343  21.947  0.00  0.00    +0.000 HD
BRANCH  13  16
ATOM     16  C   UNL     1       4.011   5.403  17.768  0.00  0.00    +0.000 A 
ATOM     17  C   UNL     1       4.492   6.553  17.115  0.00  0.00    +0.000 A 
ATOM     18  C   UNL     1       5.242   6.451  15.939  0.00  0.00    +0.000 A 
ATOM     19  C   UNL     1       5.518   5.196  15.412  0.00  0.00    +0.000 A 
ATOM     20  F   UNL     1       6.207   5.097  14.268  0.00  0.00    +0.000 F 
ATOM     21  C   UNL     1       5.080   4.043  16.051  0.00  0.00    +0.000 A 
ATOM     22  C   UNL     1       4.332   4.145  17.230  0.00  0.00    +0.000 A 
ENDBRANCH  13  16
ENDBRANCH   4   7
BRANCH   1  23
ATOM     23  S   UNL     1      -2.255  12.982  23.305  0.00  0.00    +0.000 S 
ATOM     24  O   UNL     1      -1.382  13.947  23.940  0.00  0.00    +0.000 OA
ATOM     25  O   UNL     1      -3.257  12.248  24.051  0.00  0.00    +0.000 OA
BRANCH  23  26
ATOM     26  N   UNL     1      -3.040  13.703  21.954  0.00  0.00    +0.000 NA
BRANCH  26  27
ATOM     27  C   UNL     1      -3.553  15.136  22.072  0.00  0.00    +0.000 C 
ATOM     28  C   UNL     1      -4.367  15.666  20.879  0.00  0.00    +0.000 C 
ATOM     29  C   UNL     1      -5.875  15.449  20.964  0.00  0.00    +0.000 C 
ATOM     30  C   UNL     1      -6.459  15.897  22.297  0.00  0.00    +0.000 C 
ATOM     31  C   UNL     1      -5.726  15.279  23.475  0.00  0.00    +0.000 C 
ATOM     32  C   UNL     1      -4.213  15.497  23.411  0.00  0.00    +0.000 C 
ENDBRANCH  26  27
BRANCH  26  34
ATOM     33  C   UNL     1      -3.473  12.424  19.828  0.00  0.00    +0.000 C 
ATOM     34  C   UNL     1      -3.978  12.787  21.218  0.00  0.00    +0.000 C 
ENDBRANCH  26  34
ENDBRANCH  23  26
ENDBRANCH   1  23
TORSDOF 6
ENDMDL
MODEL 3
REMARK VINA RESULT:      -8.2      1.363      2.117
REMARK  Name = 
REMARK  7 active torsions:
REMARK  status: ('A' for Active; 'I' for Inactive)
REMARK    1  A    between atoms: C_1  and  C_2
REMARK    2  A    between atoms: C_2  and  N_3
REMARK    3  A    between atoms: N_3  and  C_4
REMARK    4  A    between atoms: N_3  and  S_10
REMARK    5  A    between atoms: S_10  and  C_13
REMARK    6  A    between atoms: C_16  and  C_17
REMARK    7  A    between atoms: C_23  and  C_24
REMARK                            x       y       z     vdW  Elec       q    Type
REMARK                         _______ _______ _______ _____ _____    ______ ____
ROOT
ATOM      1  C   UNL     1      -0.651  12.489  21.438  0.00  0.00    +0.000 A 
ATOM      2  C   UNL     1      -0.465  11.255  22.055  0.00  0.00    +0.000 A 
ATOM      3  C   UNL     1       0.175  10.232  21.354  0.00  0.00    +0.000 A 
ATOM      4  C   UNL     1       0.619  10.426  20.031  0.00  0.00    +0.000 A 
ATOM      5  C   UNL     1       0.335  11.645  19.393  0.00  0.00    +0.000 A 
ATOM      6  C   UNL     1      -0.299  12.680  20.096  0.00  0.00    +0.000 A 
ENDROOT
BRANCH   4   7
ATOM      7  C   UNL     1       1.407   9.311  19.402  0.00  0.00    +0.000 C 
ATOM      8  O   UNL     1       1.746   9.432  18.233  0.00  0.00    +0.000 OA
ATOM      9  N   UNL     1       1.616   8.196  20.182  0.00  0.00    +0.000 N 
ATOM     10  C   UNL     1       2.221   7.068  19.705  0.00  0.00    +0.000 A 
ATOM     11  N   UNL     1       2.301   5.914  20.333  0.00  0.00    +0.000 NA
ATOM     12  N   UNL     1       2.999   5.063  19.500  0.00  0.00    +0.000 NA
ATOM     13  C   UNL     1       3.316   5.765  18.430  0.00  0.00    +0.000 A 
ATOM     14  O   UNL     1       2.839   7.049  18.486  0.00  0.00    +0.000 OA
ATOM     15  H   UNL     1       1.226   8.094  21.101  0.00  0.00    +0.000 HD
BRANCH  13  16
ATOM     16  C   UNL     1       4.141   5.397  17.285  0.00  0.00    +0.000 A 
ATOM     17  C   UNL     1       4.427   4.039  17.050  0.00  0.00    +0.000 A 
ATOM     18  C   UNL     1       5.291   3.654  16.019  0.00  0.00    +0.000 A 
ATOM     19  C   UNL     1       5.869   4.628  15.215  0.00  0.00    +0.000 A 
ATOM     20  F   UNL     1       6.723   4.264  14.249  0.00  0.00    +0.000 F 
ATOM     21  C   UNL     1       5.582   5.973  15.407  0.00  0.00    +0.000 A 
ATOM     22  C   UNL     1       4.715   6.358  16.436  0.00  0.00    +0.000 A 
ENDBRANCH  13  16
ENDBRANCH   4   7
BRANCH   1  23
ATOM     23  S   UNL     1      -1.349  13.826  22.389  0.00  0.00    +0.000 S 
ATOM     24  O   UNL     1      -1.132  15.002  21.572  0.00  0.00    +0.000 OA
ATOM     25  O   UNL     1      -0.811  13.714  23.729  0.00  0.00    +0.000 OA
BRANCH  23  26
ATOM     26  N   UNL     1      -3.032  13.477  22.475  0.00  0.00    +0.000 NA
BRANCH  26  27
ATOM     27  C   UNL     1      -3.930  13.863  21.302  0.00  0.00    +0.000 C 
ATOM     28  C   UNL     1      -4.626  12.702  20.570  0.00  0.00    +0.000 C 
ATOM     29  C   UNL     1      -6.007  12.325  21.100  0.00  0.00    +0.000 C 
ATOM     30  C   UNL     1      -6.924  13.530  21.260  0.00  0.00    +0.000 C 
ATOM     31  C   UNL     1      -6.277  14.629  22.084  0.00  0.00    +0.000 C 
ATOM     32  C   UNL     1      -4.897  15.028  21.560  0.00  0.00    +0.000 C 
ENDBRANCH  26  27
BRANCH  26  34
ATOM     33  C   UNL     1      -4.203  12.472  24.465  0.00  0.00    +0.000 C 
ATOM     34  C   UNL     1      -3.653  13.737  23.819  0.00  0.00    +0.000 C 
ENDBRANCH  26  34
ENDBRANCH  23  26
ENDBRANCH   1  23
TORSDOF 6
ENDMDL
MODEL 4
REMARK VINA RESULT:      -8.1      2.439      3.673
REMARK  Name = 
REMARK  7 active torsions:
REMARK  status: ('A' for Active; 'I' for Inactive)
REMARK    1  A    between atoms: C_1  and  C_2
REMARK    2  A    between atoms: C_2  and  N_3
REMARK    3  A    between atoms: N_3  and  C_4
REMARK    4  A    between atoms: N_3  and  S_10
REMARK    5  A    between atoms: S_10  and  C_13
REMARK    6  A    between atoms: C_16  and  C_17
REMARK    7  A    between atoms: C_23  and  C_24
REMARK                            x       y       z     vdW  Elec       q    Type
REMARK                         _______ _______ _______ _____ _____    ______ ____
ROOT
ATOM      1  C   UNL     1      -2.167  12.766  22.515  0.00  0.00    +0.000 A 
ATOM      2  C   UNL     1      -1.645  12.950  21.237  0.00  0.00    +0.000 A 
ATOM      3  C   UNL     1      -0.839  11.956  20.681  0.00  0.00    +0.000 A 
ATOM      4  C   UNL     1      -0.534  10.783  21.397  0.00  0.00    +0.000 A 
ATOM      5  C   UNL     1      -0.990  10.660  22.720  0.00  0.00    +0.000 A 
ATOM      6  C   UNL     1      -1.809  11.650  23.281  0.00  0.00    +0.000 A 
ENDROOT
BRANCH   4   7
ATOM      7  C   UNL     1       0.236   9.717  20.670  0.00  0.00    +0.000 C 
ATOM      8  O   UNL     1       0.446   8.659  21.249  0.00  0.00    +0.000 OA
ATOM      9  N   UNL     1       0.719  10.053  19.425  0.00  0.00    +0.000 N 
ATOM     10  C   UNL     1       1.525   9.222  18.700  0.00  0.00    +0.000 A 
ATOM     11  N   UNL     1       2.156   9.540  17.589  0.00  0.00    +0.000 NA
ATOM     12  N   UNL     1       2.840   8.409  17.191  0.00  0.00    +0.000 NA
ATOM     13  C   UNL     1       2.558   7.472  18.074  0.00  0.00    +0.000 A 
ATOM     14  O   UNL     1       1.736   7.924  19.073  0.00  0.00    +0.000 OA
ATOM     15  H   UNL     1       0.617  10.971  19.032  0.00  0.00    +0.000 HD
BRANCH  13  16
ATOM     16  C   UNL     1       2.923   6.060  18.082  0.00  0.00    +0.000 A 
ATOM     17  C   UNL     1       4.178   5.669  17.580  0.00  0.00    +0.000 A 
ATOM     18  C   UNL     1       4.525   4.318  17.485  0.00  0.00    +0.000 A 
ATOM     19  C   UNL     1       3.617   3.349  17.894  0.00  0.00    +0.000 A 
ATOM     20  F   UNL     1       3.933   2.054  17.772  0.00  0.00    +0.000 F 
ATOM     21  C   UNL     1       2.382   3.708  18.420  0.00  0.00    +0.000 A 
ATOM     22  C   UNL     1       2.036   5.060  18.519  0.00  0.00    +0.000 A 
ENDBRANCH  13  16
ENDBRANCH   4   7
BRANCH   1  23
ATOM     23  S   UNL     1      -3.302  13.980  23.160  0.00  0.00    +0.000 S 
ATOM     24  O   UNL     1      -2.539  15.210  23.185  0.00  0.00    +0.000 OA
ATOM     25  O   UNL     1      -3.884  13.414  24.360  0.00  0.00    +0.000 OA
BRANCH  23  26
ATOM     26  N   UNL     1      -4.550  14.090  21.981  0.00  0.00    +0.000 NA
BRANCH  26  27
ATOM     27  C   UNL     1      -5.142  12.805  21.406  0.00  0.00    +0.000 C 
ATOM     28  C   UNL     1      -6.589  12.481  21.817  0.00  0.00    +0.000 C 
ATOM     29  C   UNL     1      -7.672  13.026  20.891  0.00  0.00    +0.000 C 
ATOM     30  C   UNL     1      -7.410  12.704  19.426  0.00  0.00    +0.000 C 
ATOM     31  C   UNL     1      -6.020  13.132  18.992  0.00  0.00    +0.000 C 
ATOM     32  C   UNL     1      -4.920  12.585  19.902  0.00  0.00    +0.000 C 
ENDBRANCH  26  27
BRANCH  26  34
ATOM     33  C   UNL     1      -5.418  16.246  21.011  0.00  0.00    +0.000 C 
ATOM     34  C   UNL     1      -4.343  15.169  20.954  0.00  0.00    +0.000 C 
ENDBRANCH  26  34
ENDBRANCH  23  26
ENDBRANCH   1  23
TORSDOF 6
ENDMDL
MODEL 5
REMARK VINA RESULT:      -8.1      2.331      3.485
REMARK  Name = 
REMARK  7 active torsions:
REMARK  status: ('A' for Active; 'I' for Inactive)
REMARK    1  A    between atoms: C_1  and  C_2
REMARK    2  A    between atoms: C_2  and  N_3
REMARK    3  A    between atoms: N_3  and  C_4
REMARK    4  A    between atoms: N_3  and  S_10
REMARK    5  A    between atoms: S_10  and  C_13
REMARK    6  A    between atoms: C_16  and  C_17
REMARK    7  A    between atoms: C_23  and  C_24
REMARK                            x       y       z     vdW  Elec       q    Type
REMARK                         _______ _______ _______ _____ _____    ______ ____
ROOT
ATOM      1  C   UNL     1      -2.030  13.235  21.576  0.00  0.00    +0.000 A 
ATOM      2  C   UNL     1      -1.295  12.512  22.512  0.00  0.00    +0.000 A 
ATOM      3  C   UNL     1      -0.602  11.373  22.101  0.00  0.00    +0.000 A 
ATOM      4  C   UNL     1      -0.650  10.937  20.762  0.00  0.00    +0.000 A 
ATOM      5  C   UNL     1      -1.475  11.624  19.856  0.00  0.00    +0.000 A 
ATOM      6  C   UNL     1      -2.165  12.775  20.261  0.00  0.00    +0.000 A 
ENDROOT
BRANCH   4   7
ATOM      7  C   UNL     1       0.226   9.775  20.388  0.00  0.00    +0.000 C 
ATOM      8  O   UNL     1       0.456   8.926  21.240  0.00  0.00    +0.000 OA
ATOM      9  N   UNL     1       0.772   9.803  19.124  0.00  0.00    +0.000 N 
ATOM     10  C   UNL     1       1.670   8.870  18.689  0.00  0.00    +0.000 A 
ATOM     11  N   UNL     1       2.355   8.927  17.567  0.00  0.00    +0.000 NA
ATOM     12  N   UNL     1       3.126   7.783  17.522  0.00  0.00    +0.000 NA
ATOM     13  C   UNL     1       2.838   7.095  18.609  0.00  0.00    +0.000 A 
ATOM     14  O   UNL     1       1.927   7.736  19.408  0.00  0.00    +0.000 OA
ATOM     15  H   UNL     1       0.645  10.574  18.494  0.00  0.00    +0.000 HD
BRANCH  13  16
ATOM     16  C   UNL     1       3.280   5.765  19.015  0.00  0.00    +0.000 A 
ATOM     17  C   UNL     1       4.342   5.151  18.325  0.00  0.00    +0.000 A 
ATOM     18  C   UNL     1       4.730   3.842  18.623  0.00  0.00    +0.000 A 
ATOM     19  C   UNL     1       4.059   3.140  19.616  0.00  0.00    +0.000 A 
ATOM     20  F   UNL     1       4.406   1.874  19.879  0.00  0.00    +0.000 F 
ATOM     21  C   UNL     1       3.026   3.731  20.331  0.00  0.00    +0.000 A 
ATOM     22  C   UNL     1       2.639   5.043  20.036  0.00  0.00    +0.000 A 
ENDBRANCH  13  16
ENDBRANCH   4   7
BRANCH   1  23
ATOM     23  S   UNL     1      -2.800  14.761  22.085  0.00  0.00    +0.000 S 
ATOM     24  O   UNL     1      -2.432  15.711  21.057  0.00  0.00    +0.000 OA
ATOM     25  O   UNL     1      -2.452  14.963  23.477  0.00  0.00    +0.000 OA
BRANCH  23  26
ATOM     26  N   UNL     1      -4.491  14.448  22.014  0.00  0.00    +0.000 NA
BRANCH  26  27
ATOM     27  C   UNL     1      -5.008  13.073  22.431  0.00  0.00    +0.000 C 
ATOM     28  C   UNL     1      -5.475  12.938  23.891  0.00  0.00    +0.000 C 
ATOM     29  C   UNL     1      -6.953  13.225  24.137  0.00  0.00    +0.000 C 
ATOM     30  C   UNL     1      -7.866  12.476  23.175  0.00  0.00    +0.000 C 
ATOM     31  C   UNL     1      -7.473  12.706  21.726  0.00  0.00    +0.000 C 
ATOM     32  C   UNL     1      -5.996  12.411  21.459  0.00  0.00    +0.000 C 
ENDBRANCH  26  27
BRANCH  26  34
ATOM     33  C   UNL     1      -5.964  16.273  21.098  0.00  0.00    +0.000 C 
ATOM     34  C   UNL     1      -5.176  15.005  20.797  0.00  0.00    +0.000 C 
ENDBRANCH  26  34
ENDBRANCH  23  26
ENDBRANCH   1  23
TORSDOF 6
ENDMDL
MODEL 6
REMARK VINA RESULT:      -8.1      1.843      2.391
REMARK  Name = 
REMARK  7 active torsions:
REMARK  status: ('A' for Active; 'I' for Inactive)
REMARK    1  A    between atoms: C_1  and  C_2
REMARK    2  A    between atoms: C_2  and  N_3
REMARK    3  A    between atoms: N_3  and  C_4
REMARK    4  A    between atoms: N_3  and  S_10
REMARK    5  A    between atoms: S_10  and  C_13
REMARK    6  A    between atoms: C_16  and  C_17
REMARK    7  A    between atoms: C_23  and  C_24
REMARK                            x       y       z     vdW  Elec       q    Type
REMARK                         _______ _______ _______ _____ _____    ______ ____
ROOT
ATOM      1  C   UNL     1      -0.711  11.226  21.819  0.00  0.00    +0.000 A 
ATOM      2  C   UNL     1      -0.554   9.921  22.277  0.00  0.00    +0.000 A 
ATOM      3  C   UNL     1       0.226   9.029  21.540  0.00  0.00    +0.000 A 
ATOM      4  C   UNL     1       0.839   9.425  20.336  0.00  0.00    +0.000 A 
ATOM      5  C   UNL     1       0.589  10.715  19.840  0.00  0.00    +0.000 A 
ATOM      6  C   UNL     1      -0.185  11.619  20.582  0.00  0.00    +0.000 A 
ENDROOT
BRANCH   4   7
ATOM      7  C   UNL     1       1.759   8.435  19.677  0.00  0.00    +0.000 C 
ATOM      8  O   UNL     1       2.202   8.706  18.569  0.00  0.00    +0.000 OA
ATOM      9  N   UNL     1       1.967   7.252  20.351  0.00  0.00    +0.000 N 
ATOM     10  C   UNL     1       2.692   6.222  19.822  0.00  0.00    +0.000 A 
ATOM     11  N   UNL     1       2.789   5.011  20.330  0.00  0.00    +0.000 NA
ATOM     12  N   UNL     1       3.621   4.301  19.488  0.00  0.00    +0.000 NA
ATOM     13  C   UNL     1       3.993   5.136  18.538  0.00  0.00    +0.000 A 
ATOM     14  O   UNL     1       3.425   6.376  18.680  0.00  0.00    +0.000 OA
ATOM     15  H   UNL     1       1.497   7.025  21.209  0.00  0.00    +0.000 HD
BRANCH  13  16
ATOM     16  C   UNL     1       4.948   4.948  17.452  0.00  0.00    +0.000 A 
ATOM     17  C   UNL     1       6.229   5.523  17.553  0.00  0.00    +0.000 A 
ATOM     18  C   UNL     1       7.138   5.444  16.494  0.00  0.00    +0.000 A 
ATOM     19  C   UNL     1       6.771   4.785  15.327  0.00  0.00    +0.000 A 
ATOM     20  F   UNL     1       7.627   4.738  14.299  0.00  0.00    +0.000 F 
ATOM     21  C   UNL     1       5.524   4.184  15.212  0.00  0.00    +0.000 A 
ATOM     22  C   UNL     1       4.615   4.259  16.273  0.00  0.00    +0.000 A 
ENDBRANCH  13  16
ENDBRANCH   4   7
BRANCH   1  23
ATOM     23  S   UNL     1      -1.597  12.391  22.836  0.00  0.00    +0.000 S 
ATOM     24  O   UNL     1      -0.561  13.141  23.513  0.00  0.00    +0.000 OA
ATOM     25  O   UNL     1      -2.598  11.637  23.564  0.00  0.00    +0.000 OA
BRANCH  23  26
ATOM     26  N   UNL     1      -2.425  13.410  21.724  0.00  0.00    +0.000 NA
BRANCH  26  27
ATOM     27  C   UNL     1      -2.458  14.915  21.981  0.00  0.00    +0.000 C 
ATOM     28  C   UNL     1      -2.836  15.800  20.780  0.00  0.00    +0.000 C 
ATOM     29  C   UNL     1      -4.323  16.108  20.632  0.00  0.00    +0.000 C 
ATOM     30  C   UNL     1      -4.952  16.604  21.926  0.00  0.00    +0.000 C 
ATOM     31  C   UNL     1      -4.676  15.665  23.088  0.00  0.00    +0.000 C 
ATOM     32  C   UNL     1      -3.188  15.356  23.258  0.00  0.00    +0.000 C 
ENDBRANCH  26  27
BRANCH  26  34
ATOM     33  C   UNL     1      -3.655  12.389  19.779  0.00  0.00    +0.000 C 
ATOM     34  C   UNL     1      -3.731  12.856  21.226  0.00  0.00    +0.000 C 
ENDBRANCH  26  34
ENDBRANCH  23  26
ENDBRANCH   1  23
TORSDOF 6
ENDMDL
MODEL 7
REMARK VINA RESULT:      -8.0      2.504      3.732
REMARK  Name = 
REMARK  7 active torsions:
REMARK  status: ('A' for Active; 'I' for Inactive)
REMARK    1  A    between atoms: C_1  and  C_2
REMARK    2  A    between atoms: C_2  and  N_3
REMARK    3  A    between atoms: N_3  and  C_4
REMARK    4  A    between atoms: N_3  and  S_10
REMARK    5  A    between atoms: S_10  and  C_13
REMARK    6  A    between atoms: C_16  and  C_17
REMARK    7  A    between atoms: C_23  and  C_24
REMARK                            x       y       z     vdW  Elec       q    Type
REMARK                         _______ _______ _______ _____ _____    ______ ____
ROOT
ATOM      1  C   UNL     1      -2.202  13.856  21.755  0.00  0.00    +0.000 A 
ATOM      2  C   UNL     1      -2.061  13.533  20.408  0.00  0.00    +0.000 A 
ATOM      3  C   UNL     1      -1.255  12.452  20.047  0.00  0.00    +0.000 A 
ATOM      4  C   UNL     1      -0.573  11.697  21.021  0.00  0.00    +0.000 A 
ATOM      5  C   UNL     1      -0.650  12.099  22.365  0.00  0.00    +0.000 A 
ATOM      6  C   UNL     1      -1.467  13.177  22.735  0.00  0.00    +0.000 A 
ENDROOT
BRANCH   4   7
ATOM      7  C   UNL     1       0.169  10.479  20.548  0.00  0.00    +0.000 C 
ATOM      8  O   UNL     1       0.387   9.585  21.356  0.00  0.00    +0.000 OA
ATOM      9  N   UNL     1       0.620  10.504  19.248  0.00  0.00    +0.000 N 
ATOM     10  C   UNL     1       1.399   9.514  18.720  0.00  0.00    +0.000 A 
ATOM     11  N   UNL     1       2.002   9.552  17.550  0.00  0.00    +0.000 NA
ATOM     12  N   UNL     1       2.666   8.349  17.414  0.00  0.00    +0.000 NA
ATOM     13  C   UNL     1       2.401   7.651  18.501  0.00  0.00    +0.000 A 
ATOM     14  O   UNL     1       1.610   8.339  19.385  0.00  0.00    +0.000 OA
ATOM     15  H   UNL     1       0.514  11.305  18.651  0.00  0.00    +0.000 HD
BRANCH  13  16
ATOM     16  C   UNL     1       2.754   6.276  18.834  0.00  0.00    +0.000 A 
ATOM     17  C   UNL     1       2.260   5.706  20.022  0.00  0.00    +0.000 A 
ATOM     18  C   UNL     1       2.652   4.425  20.423  0.00  0.00    +0.000 A 
ATOM     19  C   UNL     1       3.541   3.706  19.633  0.00  0.00    +0.000 A 
ATOM     20  F   UNL     1       3.945   2.493  20.032  0.00  0.00    +0.000 F 
ATOM     21  C   UNL     1       4.023   4.234  18.442  0.00  0.00    +0.000 A 
ATOM     22  C   UNL     1       3.627   5.514  18.039  0.00  0.00    +0.000 A 
ENDBRANCH  13  16
ENDBRANCH   4   7
BRANCH   1  23
ATOM     23  S   UNL     1      -3.337  15.152  22.211  0.00  0.00    +0.000 S 
ATOM     24  O   UNL     1      -3.051  16.226  21.283  0.00  0.00    +0.000 OA
ATOM     25  O   UNL     1      -3.221  15.326  23.645  0.00  0.00    +0.000 OA
BRANCH  23  26
ATOM     26  N   UNL     1      -4.899  14.505  21.893  0.00  0.00    +0.000 NA
BRANCH  26  27
ATOM     27  C   UNL     1      -5.200  13.063  22.297  0.00  0.00    +0.000 C 
ATOM     28  C   UNL     1      -5.594  12.839  23.768  0.00  0.00    +0.000 C 
ATOM     29  C   UNL     1      -7.088  12.907  24.066  0.00  0.00    +0.000 C 
ATOM     30  C   UNL     1      -7.916  12.050  23.118  0.00  0.00    +0.000 C 
ATOM     31  C   UNL     1      -7.610  12.357  21.663  0.00  0.00    +0.000 C 
ATOM     32  C   UNL     1      -6.116  12.282  21.344  0.00  0.00    +0.000 C 
ENDBRANCH  26  27
BRANCH  26  34
ATOM     33  C   UNL     1      -6.584  15.918  20.667  0.00  0.00    +0.000 C 
ATOM     34  C   UNL     1      -5.470  14.886  20.555  0.00  0.00    +0.000 C 
ENDBRANCH  26  34
ENDBRANCH  23  26
ENDBRANCH   1  23
TORSDOF 6
ENDMDL
MODEL 8
REMARK VINA RESULT:      -8.0      2.073      3.028
REMARK  Name = 
REMARK  7 active torsions:
REMARK  status: ('A' for Active; 'I' for Inactive)
REMARK    1  A    between atoms: C_1  and  C_2
REMARK    2  A    between atoms: C_2  and  N_3
REMARK    3  A    between atoms: N_3  and  C_4
REMARK    4  A    between atoms: N_3  and  S_10
REMARK    5  A    between atoms: S_10  and  C_13
REMARK    6  A    between atoms: C_16  and  C_17
REMARK    7  A    between atoms: C_23  and  C_24
REMARK                            x       y       z     vdW  Elec       q    Type
REMARK                         _______ _______ _______ _____ _____    ______ ____
ROOT
ATOM      1  C   UNL     1      -1.899  12.216  22.484  0.00  0.00    +0.000 A 
ATOM      2  C   UNL     1      -1.347  12.484  21.234  0.00  0.00    +0.000 A 
ATOM      3  C   UNL     1      -0.470  11.559  20.665  0.00  0.00    +0.000 A 
ATOM      4  C   UNL     1      -0.126  10.373  21.341  0.00  0.00    +0.000 A 
ATOM      5  C   UNL     1      -0.617  10.168  22.641  0.00  0.00    +0.000 A 
ATOM      6  C   UNL     1      -1.506  11.088  23.214  0.00  0.00    +0.000 A 
ENDROOT
BRANCH   4   7
ATOM      7  C   UNL     1       0.725   9.382  20.597  0.00  0.00    +0.000 C 
ATOM      8  O   UNL     1       1.145   9.696  19.491  0.00  0.00    +0.000 OA
ATOM      9  N   UNL     1       0.896   8.154  21.195  0.00  0.00    +0.000 N 
ATOM     10  C   UNL     1       1.554   7.124  20.584  0.00  0.00    +0.000 A 
ATOM     11  N   UNL     1       1.609   5.882  21.018  0.00  0.00    +0.000 NA
ATOM     12  N   UNL     1       2.380   5.185  20.110  0.00  0.00    +0.000 NA
ATOM     13  C   UNL     1       2.761   6.056  19.197  0.00  0.00    +0.000 A 
ATOM     14  O   UNL     1       2.258   7.310  19.428  0.00  0.00    +0.000 OA
ATOM     15  H   UNL     1       0.443   7.899  22.053  0.00  0.00    +0.000 HD
BRANCH  13  16
ATOM     16  C   UNL     1       3.672   5.887  18.071  0.00  0.00    +0.000 A 
ATOM     17  C   UNL     1       4.123   7.023  17.372  0.00  0.00    +0.000 A 
ATOM     18  C   UNL     1       4.920   6.895  16.230  0.00  0.00    +0.000 A 
ATOM     19  C   UNL     1       5.274   5.628  15.784  0.00  0.00    +0.000 A 
ATOM     20  F   UNL     1       6.009   5.502  14.671  0.00  0.00    +0.000 F 
ATOM     21  C   UNL     1       4.867   4.492  16.470  0.00  0.00    +0.000 A 
ATOM     22  C   UNL     1       4.072   4.619  17.615  0.00  0.00    +0.000 A 
ENDBRANCH  13  16
ENDBRANCH   4   7
BRANCH   1  23
ATOM     23  S   UNL     1      -3.118  13.339  23.140  0.00  0.00    +0.000 S 
ATOM     24  O   UNL     1      -2.370  14.536  23.463  0.00  0.00    +0.000 OA
ATOM     25  O   UNL     1      -3.866  12.608  24.144  0.00  0.00    +0.000 OA
BRANCH  23  26
ATOM     26  N   UNL     1      -4.185  13.652  21.827  0.00  0.00    +0.000 NA
BRANCH  26  27
ATOM     27  C   UNL     1      -4.921  12.483  21.176  0.00  0.00    +0.000 C 
ATOM     28  C   UNL     1      -6.379  12.269  21.620  0.00  0.00    +0.000 C 
ATOM     29  C   UNL     1      -7.433  12.992  20.787  0.00  0.00    +0.000 C 
ATOM     30  C   UNL     1      -7.254  12.770  19.291  0.00  0.00    +0.000 C 
ATOM     31  C   UNL     1      -5.842  13.096  18.834  0.00  0.00    +0.000 C 
ATOM     32  C   UNL     1      -4.773  12.370  19.651  0.00  0.00    +0.000 C 
ENDBRANCH  26  27
BRANCH  26  34
ATOM     33  C   UNL     1      -4.469  15.966  20.876  0.00  0.00    +0.000 C 
ATOM     34  C   UNL     1      -3.676  14.667  20.841  0.00  0.00    +0.000 C 
ENDBRANCH  26  34
ENDBRANCH  23  26
ENDBRANCH   1  23
TORSDOF 6
ENDMDL
MODEL 9
REMARK VINA RESULT:      -8.0      2.327      3.195
REMARK  Name = 
REMARK  7 active torsions:
REMARK  status: ('A' for Active; 'I' for Inactive)
REMARK    1  A    between atoms: C_1  and  C_2
REMARK    2  A    between atoms: C_2  and  N_3
REMARK    3  A    between atoms: N_3  and  C_4
REMARK    4  A    between atoms: N_3  and  S_10
REMARK    5  A    between atoms: S_10  and  C_13
REMARK    6  A    between atoms: C_16  and  C_17
REMARK    7  A    between atoms: C_23  and  C_24
REMARK                            x       y       z     vdW  Elec       q    Type
REMARK                         _______ _______ _______ _____ _____    ______ ____
ROOT
ATOM      1  C   UNL     1      -1.606  13.218  21.781  0.00  0.00    +0.000 A 
ATOM      2  C   UNL     1      -1.113  13.136  20.481  0.00  0.00    +0.000 A 
ATOM      3  C   UNL     1      -0.412  11.994  20.090  0.00  0.00    +0.000 A 
ATOM      4  C   UNL     1      -0.185  10.936  20.991  0.00  0.00    +0.000 A 
ATOM      5  C   UNL     1      -0.607  11.080  22.324  0.00  0.00    +0.000 A 
ATOM      6  C   UNL     1      -1.320  12.221  22.721  0.00  0.00    +0.000 A 
ENDROOT
BRANCH   4   7
ATOM      7  C   UNL     1       0.468   9.698  20.445  0.00  0.00    +0.000 C 
ATOM      8  O   UNL     1       0.478   8.694  21.144  0.00  0.00    +0.000 OA
ATOM      9  N   UNL     1       1.081   9.821  19.219  0.00  0.00    +0.000 N 
ATOM     10  C   UNL     1       1.804   8.810  18.652  0.00  0.00    +0.000 A 
ATOM     11  N   UNL     1       2.552   8.910  17.574  0.00  0.00    +0.000 NA
ATOM     12  N   UNL     1       3.086   7.657  17.352  0.00  0.00    +0.000 NA
ATOM     13  C   UNL     1       2.607   6.873  18.298  0.00  0.00    +0.000 A 
ATOM     14  O   UNL     1       1.794   7.546  19.172  0.00  0.00    +0.000 OA
ATOM     15  H   UNL     1       1.144  10.695  18.727  0.00  0.00    +0.000 HD
BRANCH  13  16
ATOM     16  C   UNL     1       2.757   5.434  18.480  0.00  0.00    +0.000 A 
ATOM     17  C   UNL     1       3.711   4.738  17.715  0.00  0.00    +0.000 A 
ATOM     18  C   UNL     1       3.818   3.346  17.793  0.00  0.00    +0.000 A 
ATOM     19  C   UNL     1       2.972   2.643  18.642  0.00  0.00    +0.000 A 
ATOM     20  F   UNL     1       3.050   1.307  18.693  0.00  0.00    +0.000 F 
ATOM     21  C   UNL     1       2.041   3.307  19.429  0.00  0.00    +0.000 A 
ATOM     22  C   UNL     1       1.936   4.701  19.354  0.00  0.00    +0.000 A 
ENDBRANCH  13  16
ENDBRANCH   4   7
BRANCH   1  23
ATOM     23  S   UNL     1      -2.612  14.621  22.228  0.00  0.00    +0.000 S 
ATOM     24  O   UNL     1      -2.553  15.491  21.073  0.00  0.00    +0.000 OA
ATOM     25  O   UNL     1      -2.170  15.054  23.538  0.00  0.00    +0.000 OA
BRANCH  23  26
ATOM     26  N   UNL     1      -4.203  13.987  22.402  0.00  0.00    +0.000 NA
BRANCH  26  27
ATOM     27  C   UNL     1      -4.884  14.062  23.767  0.00  0.00    +0.000 C 
ATOM     28  C   UNL     1      -5.802  15.275  24.001  0.00  0.00    +0.000 C 
ATOM     29  C   UNL     1      -7.267  15.073  23.628  0.00  0.00    +0.000 C 
ATOM     30  C   UNL     1      -7.852  13.794  24.212  0.00  0.00    +0.000 C 
ATOM     31  C   UNL     1      -7.004  12.579  23.878  0.00  0.00    +0.000 C 
ATOM     32  C   UNL     1      -5.534  12.760  24.258  0.00  0.00    +0.000 C 
ENDBRANCH  26  27
BRANCH  26  34
ATOM     33  C   UNL     1      -5.301  12.854  20.441  0.00  0.00    +0.000 C 
ATOM     34  C   UNL     1      -4.437  12.688  21.683  0.00  0.00    +0.000 C 
ENDBRANCH  26  34
ENDBRANCH  23  26
ENDBRANCH   1  23
TORSDOF 6
ENDMDL
