MODEL 1
REMARK VINA RESULT:      -8.3      0.000      0.000
REMARK  Name = 
REMARK  12 active torsions:
REMARK  status: ('A' for Active; 'I' for Inactive)
REMARK    1  A    between atoms: C_1  and  C_2
REMARK    2  A    between atoms: C_2  and  C_3
REMARK    3  A    between atoms: C_2  and  C_4
REMARK    4  A    between atoms: C_2  and  C_23
REMARK    5  A    between atoms: C_4  and  C_5
REMARK    6  A    between atoms: C_8  and  C_9
REMARK    7  A    between atoms: C_9  and  O_11
REMARK    8  A    between atoms: O_11  and  C_12
REMARK    9  A    between atoms: C_15  and  C_16
REMARK   10  A    between atoms: C_27  and  O_28
REMARK   11  A    between atoms: C_30  and  C_31
REMARK   12  A    between atoms: C_31  and  O_33
REMARK                            x       y       z     vdW  Elec       q    Type
REMARK                         _______ _______ _______ _____ _____    ______ ____
ROOT
ATOM      1  C   UNL     1       2.593   7.091  19.377  0.00  0.00    +0.000 A 
ATOM      2  C   UNL     1       2.581   7.791  18.187  0.00  0.00    +0.000 A 
ATOM      3  C   UNL     1       1.716   8.922  18.224  0.00  0.00    +0.000 A 
ATOM      4  C   UNL     1       1.085   9.075  19.446  0.00  0.00    +0.000 A 
ATOM      5  S   UNL     1       1.633   7.891  20.560  0.00  0.00    +0.000 S 
ENDROOT
BRANCH   4   6
ATOM      6  C   UNL     1       0.137  10.100  19.861  0.00  0.00    +0.000 C 
ATOM      7  O   UNL     1      -0.367  10.245  20.971  0.00  0.00    +0.000 OA
BRANCH   6   8
ATOM      8  O   UNL     1      -0.140  10.941  18.778  0.00  0.00    +0.000 OA
BRANCH   8   9
ATOM      9  C   UNL     1      -1.499  11.088  18.462  0.00  0.00    +0.000 A 
ATOM     10  C   UNL     1      -2.251  11.993  19.221  0.00  0.00    +0.000 A 
ATOM     11  C   UNL     1      -3.645  12.055  19.032  0.00  0.00    +0.000 A 
ATOM     12  C   UNL     1      -4.268  11.215  18.098  0.00  0.00    +0.000 A 
ATOM     13  C   UNL     1      -3.508  10.316  17.347  0.00  0.00    +0.000 A 
ATOM     14  C   UNL     1      -2.133  10.249  17.549  0.00  0.00    +0.000 A 
ATOM     15  F   UNL     1      -1.440   9.313  16.887  0.00  0.00    +0.000 F 
BRANCH  12  16
ATOM     16  C   UNL     1      -5.746  11.242  17.892  0.00  0.00    +0.000 C 
ATOM     17  N   UNL     1      -6.327  12.001  17.020  0.00  0.00    +0.000 NA
ATOM     18  N   UNL     1      -6.557  10.453  18.646  0.00  0.00    +0.000 N 
ATOM     19  H   UNL     1      -5.661  12.607  16.532  0.00  0.00    +0.000 HD
ATOM     20  H   UNL     1      -6.210   9.532  18.895  0.00  0.00    +0.000 HD
ATOM     21  H   UNL     1      -7.498  10.425  18.265  0.00  0.00    +0.000 HD
ENDBRANCH  12  16
ENDBRANCH   8   9
ENDBRANCH   6   8
ENDBRANCH   4   6
BRANCH   1  22
ATOM     22  C   UNL     1       3.394   5.848  19.708  0.00  0.00    +0.000 C 
BRANCH  22  24
ATOM     23  C   UNL     1       3.435   3.316  19.729  0.00  0.00    +0.000 C 
ATOM     24  C   UNL     1       3.047   4.570  18.898  0.00  0.00    +0.000 C 
ATOM     25  C   UNL     1       1.561   4.408  18.535  0.00  0.00    +0.000 C 
BRANCH  24  26
ATOM     26  C   UNL     1       3.886   4.505  17.594  0.00  0.00    +0.000 C 
ATOM     27  O   UNL     1       3.404   3.978  16.585  0.00  0.00    +0.000 OA
ATOM     28  N   UNL     1       5.190   4.952  17.491  0.00  0.00    +0.000 N 
ATOM     29  C   UNL     1       6.040   5.559  18.515  0.00  0.00    +0.000 C 
ATOM     30  C   UNL     1       7.094   6.359  17.748  0.00  0.00    +0.000 C 
ATOM     31  C   UNL     1       7.232   5.589  16.453  0.00  0.00    +0.000 C 
ATOM     32  C   UNL     1       5.789   5.129  16.145  0.00  0.00    +0.000 C 
BRANCH  30  33
ATOM     33  O   UNL     1       6.658   7.694  17.495  0.00  0.00    +0.000 OA
ATOM     34  H   UNL     1       7.385   8.205  17.101  0.00  0.00    +0.000 HD
ENDBRANCH  30  33
BRANCH  32  35
ATOM     35  C   UNL     1       5.895   3.980  15.125  0.00  0.00    +0.000 C 
ATOM     36  O   UNL     1       5.917   4.171  13.913  0.00  0.00    +0.000 OA
BRANCH  35  37
ATOM     37  O   UNL     1       6.013   2.739  15.642  0.00  0.00    +0.000 OA
ATOM     38  H   UNL     1       5.209   2.507  16.154  0.00  0.00    +0.000 HD
ENDBRANCH  35  37
ENDBRANCH  32  35
ENDBRANCH  24  26
ENDBRANCH  22  24
ENDBRANCH   1  22
TORSDOF 10
ENDMDL
MODEL 2
REMARK VINA RESULT:      -8.2      2.544      3.444
REMARK  Name = 
REMARK  12 active torsions:
REMARK  status: ('A' for Active; 'I' for Inactive)
REMARK    1  A    between atoms: C_1  and  C_2
REMARK    2  A    between atoms: C_2  and  C_3
REMARK    3  A    between atoms: C_2  and  C_4
REMARK    4  A    between atoms: C_2  and  C_23
REMARK    5  A    between atoms: C_4  and  C_5
REMARK    6  A    between atoms: C_8  and  C_9
REMARK    7  A    between atoms: C_9  and  O_11
REMARK    8  A    between atoms: O_11  and  C_12
REMARK    9  A    between atoms: C_15  and  C_16
REMARK   10  A    between atoms: C_27  and  O_28
REMARK   11  A    between atoms: C_30  and  C_31
REMARK   12  A    between atoms: C_31  and  O_33
REMARK                            x       y       z     vdW  Elec       q    Type
REMARK                         _______ _______ _______ _____ _____    ______ ____
ROOT
ATOM      1  C   UNL     1       2.247   5.460  18.738  0.00  0.00    +0.000 A 
ATOM      2  C   UNL     1       2.694   6.646  18.190  0.00  0.00    +0.000 A 
ATOM      3  C   UNL     1       2.411   7.773  19.013  0.00  0.00    +0.000 A 
ATOM      4  C   UNL     1       1.756   7.432  20.183  0.00  0.00    +0.000 A 
ATOM      5  S   UNL     1       1.586   5.729  20.304  0.00  0.00    +0.000 S 
ENDROOT
BRANCH   4   6
ATOM      6  C   UNL     1       1.303   8.299  21.262  0.00  0.00    +0.000 C 
ATOM      7  O   UNL     1       1.945   8.673  22.238  0.00  0.00    +0.000 OA
BRANCH   6   8
ATOM      8  O   UNL     1      -0.026   8.671  21.030  0.00  0.00    +0.000 OA
BRANCH   8   9
ATOM      9  C   UNL     1      -0.229  10.029  20.738  0.00  0.00    +0.000 A 
ATOM     10  C   UNL     1      -0.583  10.877  21.794  0.00  0.00    +0.000 A 
ATOM     11  C   UNL     1      -0.940  12.209  21.514  0.00  0.00    +0.000 A 
ATOM     12  C   UNL     1      -0.945  12.675  20.191  0.00  0.00    +0.000 A 
ATOM     13  C   UNL     1      -0.590  11.820  19.146  0.00  0.00    +0.000 A 
ATOM     14  C   UNL     1      -0.253  10.500  19.428  0.00  0.00    +0.000 A 
ATOM     15  F   UNL     1      -0.010   9.675  18.401  0.00  0.00    +0.000 F 
BRANCH  12  16
ATOM     16  C   UNL     1      -1.341  14.076  19.861  0.00  0.00    +0.000 C 
ATOM     17  N   UNL     1      -2.296  14.704  20.467  0.00  0.00    +0.000 NA
ATOM     18  N   UNL     1      -0.698  14.756  18.875  0.00  0.00    +0.000 N 
ATOM     19  H   UNL     1      -2.771  14.112  21.155  0.00  0.00    +0.000 HD
ATOM     20  H   UNL     1       0.298  14.592  18.769  0.00  0.00    +0.000 HD
ATOM     21  H   UNL     1      -0.930  15.743  18.899  0.00  0.00    +0.000 HD
ENDBRANCH  12  16
ENDBRANCH   8   9
ENDBRANCH   6   8
ENDBRANCH   4   6
BRANCH   1  22
ATOM     22  C   UNL     1       2.376   4.068  18.155  0.00  0.00    +0.000 C 
BRANCH  22  24
ATOM     23  C   UNL     1       3.273   3.002  20.270  0.00  0.00    +0.000 C 
ATOM     24  C   UNL     1       3.503   3.177  18.743  0.00  0.00    +0.000 C 
ATOM     25  C   UNL     1       3.591   1.759  18.152  0.00  0.00    +0.000 C 
BRANCH  24  26
ATOM     26  C   UNL     1       4.884   3.866  18.586  0.00  0.00    +0.000 C 
ATOM     27  O   UNL     1       5.601   4.027  19.581  0.00  0.00    +0.000 OA
ATOM     28  N   UNL     1       5.360   4.380  17.395  0.00  0.00    +0.000 N 
ATOM     29  C   UNL     1       4.724   4.395  16.078  0.00  0.00    +0.000 C 
ATOM     30  C   UNL     1       5.870   4.529  15.073  0.00  0.00    +0.000 C 
ATOM     31  C   UNL     1       6.916   5.297  15.849  0.00  0.00    +0.000 C 
ATOM     32  C   UNL     1       6.797   4.733  17.283  0.00  0.00    +0.000 C 
BRANCH  30  33
ATOM     33  O   UNL     1       6.372   3.253  14.679  0.00  0.00    +0.000 OA
ATOM     34  H   UNL     1       5.631   2.644  14.523  0.00  0.00    +0.000 HD
ENDBRANCH  30  33
BRANCH  32  35
ATOM     35  C   UNL     1       7.479   5.749  18.220  0.00  0.00    +0.000 C 
ATOM     36  O   UNL     1       7.453   6.957  18.016  0.00  0.00    +0.000 OA
BRANCH  35  37
ATOM     37  O   UNL     1       8.073   5.235  19.317  0.00  0.00    +0.000 OA
ATOM     38  H   UNL     1       7.397   4.910  19.949  0.00  0.00    +0.000 HD
ENDBRANCH  35  37
ENDBRANCH  32  35
ENDBRANCH  24  26
ENDBRANCH  22  24
ENDBRANCH   1  22
TORSDOF 10
ENDMDL
MODEL 3
REMARK VINA RESULT:      -8.1      2.997      3.912
REMARK  Name = 
REMARK  12 active torsions:
REMARK  status: ('A' for Active; 'I' for Inactive)
REMARK    1  A    between atoms: C_1  and  C_2
REMARK    2  A    between atoms: C_2  and  C_3
REMARK    3  A    between atoms: C_2  and  C_4
REMARK    4  A    between atoms: C_2  and  C_23
REMARK    5  A    between atoms: C_4  and  C_5
REMARK    6  A    between atoms: C_8  and  C_9
REMARK    7  A    between atoms: C_9  and  O_11
REMARK    8  A    between atoms: O_11  and  C_12
REMARK    9  A    between atoms: C_15  and  C_16
REMARK   10  A    between atoms: C_27  and  O_28
REMARK   11  A    between atoms: C_30  and  C_31
REMARK   12  A    between atoms: C_31  and  O_33
REMARK                            x       y       z     vdW  Elec       q    Type
REMARK                         _______ _______ _______ _____ _____    ______ ____
ROOT
ATOM      1  C   UNL     1       2.232   5.426  18.780  0.00  0.00    +0.000 A 
ATOM      2  C   UNL     1       2.665   6.612  18.220  0.00  0.00    +0.000 A 
ATOM      3  C   UNL     1       2.417   7.737  19.057  0.00  0.00    +0.000 A 
ATOM      4  C   UNL     1       1.803   7.395  20.248  0.00  0.00    +0.000 A 
ATOM      5  S   UNL     1       1.628   5.693  20.369  0.00  0.00    +0.000 S 
ENDROOT
BRANCH   4   6
ATOM      6  C   UNL     1       1.393   8.261  21.345  0.00  0.00    +0.000 C 
ATOM      7  O   UNL     1       2.114   8.808  22.174  0.00  0.00    +0.000 OA
BRANCH   6   8
ATOM      8  O   UNL     1       0.000   8.395  21.334  0.00  0.00    +0.000 OA
BRANCH   8   9
ATOM      9  C   UNL     1      -0.478   9.711  21.428  0.00  0.00    +0.000 A 
ATOM     10  C   UNL     1      -0.592  10.451  20.244  0.00  0.00    +0.000 A 
ATOM     11  C   UNL     1      -0.924  11.816  20.317  0.00  0.00    +0.000 A 
ATOM     12  C   UNL     1      -1.131  12.426  21.563  0.00  0.00    +0.000 A 
ATOM     13  C   UNL     1      -1.015  11.679  22.737  0.00  0.00    +0.000 A 
ATOM     14  C   UNL     1      -0.672  10.333  22.659  0.00  0.00    +0.000 A 
ATOM     15  F   UNL     1      -0.473   9.663  23.801  0.00  0.00    +0.000 F 
BRANCH  12  16
ATOM     16  C   UNL     1      -1.462  13.878  21.673  0.00  0.00    +0.000 C 
ATOM     17  N   UNL     1      -0.886  14.792  20.961  0.00  0.00    +0.000 NA
ATOM     18  N   UNL     1      -2.400  14.302  22.561  0.00  0.00    +0.000 N 
ATOM     19  H   UNL     1      -0.152  14.406  20.358  0.00  0.00    +0.000 HD
ATOM     20  H   UNL     1      -3.205  13.701  22.710  0.00  0.00    +0.000 HD
ATOM     21  H   UNL     1      -2.661  15.267  22.385  0.00  0.00    +0.000 HD
ENDBRANCH  12  16
ENDBRANCH   8   9
ENDBRANCH   6   8
ENDBRANCH   4   6
BRANCH   1  22
ATOM     22  C   UNL     1       2.333   4.035  18.188  0.00  0.00    +0.000 C 
BRANCH  22  24
ATOM     23  C   UNL     1       3.263   2.924  20.264  0.00  0.00    +0.000 C 
ATOM     24  C   UNL     1       3.469   3.133  18.738  0.00  0.00    +0.000 C 
ATOM     25  C   UNL     1       3.550   1.729  18.114  0.00  0.00    +0.000 C 
BRANCH  24  26
ATOM     26  C   UNL     1       4.847   3.829  18.576  0.00  0.00    +0.000 C 
ATOM     27  O   UNL     1       5.571   3.985  19.566  0.00  0.00    +0.000 OA
ATOM     28  N   UNL     1       5.313   4.353  17.384  0.00  0.00    +0.000 N 
ATOM     29  C   UNL     1       4.666   4.375  16.073  0.00  0.00    +0.000 C 
ATOM     30  C   UNL     1       5.804   4.520  15.060  0.00  0.00    +0.000 C 
ATOM     31  C   UNL     1       6.854   5.286  15.834  0.00  0.00    +0.000 C 
ATOM     32  C   UNL     1       6.747   4.712  17.264  0.00  0.00    +0.000 C 
BRANCH  30  33
ATOM     33  O   UNL     1       6.308   3.249  14.653  0.00  0.00    +0.000 OA
ATOM     34  H   UNL     1       7.234   3.340  14.373  0.00  0.00    +0.000 HD
ENDBRANCH  30  33
BRANCH  32  35
ATOM     35  C   UNL     1       7.433   5.722  18.203  0.00  0.00    +0.000 C 
ATOM     36  O   UNL     1       7.416   6.931  17.999  0.00  0.00    +0.000 OA
BRANCH  35  37
ATOM     37  O   UNL     1       8.020   5.205  19.302  0.00  0.00    +0.000 OA
ATOM     38  H   UNL     1       7.442   5.326  20.086  0.00  0.00    +0.000 HD
ENDBRANCH  35  37
ENDBRANCH  32  35
ENDBRANCH  24  26
ENDBRANCH  22  24
ENDBRANCH   1  22
TORSDOF 10
ENDMDL
MODEL 4
REMARK VINA RESULT:      -8.0      1.731      2.742
REMARK  Name = 
REMARK  12 active torsions:
REMARK  status: ('A' for Active; 'I' for Inactive)
REMARK    1  A    between atoms: C_1  and  C_2
REMARK    2  A    between atoms: C_2  and  C_3
REMARK    3  A    between atoms: C_2  and  C_4
REMARK    4  A    between atoms: C_2  and  C_23
REMARK    5  A    between atoms: C_4  and  C_5
REMARK    6  A    between atoms: C_8  and  C_9
REMARK    7  A    between atoms: C_9  and  O_11
REMARK    8  A    between atoms: O_11  and  C_12
REMARK    9  A    between atoms: C_15  and  C_16
REMARK   10  A    between atoms: C_27  and  O_28
REMARK   11  A    between atoms: C_30  and  C_31
REMARK   12  A    between atoms: C_31  and  O_33
REMARK                            x       y       z     vdW  Elec       q    Type
REMARK                         _______ _______ _______ _____ _____    ______ ____
ROOT
ATOM      1  C   UNL     1       2.357   5.430  19.411  0.00  0.00    +0.000 A 
ATOM      2  C   UNL     1       2.603   6.215  18.302  0.00  0.00    +0.000 A 
ATOM      3  C   UNL     1       2.278   7.585  18.516  0.00  0.00    +0.000 A 
ATOM      4  C   UNL     1       1.794   7.829  19.789  0.00  0.00    +0.000 A 
ATOM      5  S   UNL     1       1.837   6.398  20.734  0.00  0.00    +0.000 S 
ENDROOT
BRANCH   4   6
ATOM      6  C   UNL     1       1.358   9.090  20.374  0.00  0.00    +0.000 C 
ATOM      7  O   UNL     1       1.164   9.335  21.561  0.00  0.00    +0.000 OA
BRANCH   6   8
ATOM      8  O   UNL     1       1.180  10.035  19.357  0.00  0.00    +0.000 OA
BRANCH   8   9
ATOM      9  C   UNL     1      -0.154  10.343  19.049  0.00  0.00    +0.000 A 
ATOM     10  C   UNL     1      -0.714   9.753  17.909  0.00  0.00    +0.000 A 
ATOM     11  C   UNL     1      -1.995  10.155  17.488  0.00  0.00    +0.000 A 
ATOM     12  C   UNL     1      -2.696  11.138  18.201  0.00  0.00    +0.000 A 
ATOM     13  C   UNL     1      -2.128  11.720  19.336  0.00  0.00    +0.000 A 
ATOM     14  C   UNL     1      -0.855  11.329  19.739  0.00  0.00    +0.000 A 
ATOM     15  F   UNL     1      -0.294  11.969  20.773  0.00  0.00    +0.000 F 
BRANCH  12  16
ATOM     16  C   UNL     1      -4.047  11.601  17.764  0.00  0.00    +0.000 C 
ATOM     17  N   UNL     1      -5.049  11.724  18.572  0.00  0.00    +0.000 NA
ATOM     18  N   UNL     1      -4.277  11.907  16.460  0.00  0.00    +0.000 N 
ATOM     19  H   UNL     1      -4.818  11.422  19.523  0.00  0.00    +0.000 HD
ATOM     20  H   UNL     1      -3.522  12.350  15.945  0.00  0.00    +0.000 HD
ATOM     21  H   UNL     1      -5.162  12.392  16.349  0.00  0.00    +0.000 HD
ENDBRANCH  12  16
ENDBRANCH   8   9
ENDBRANCH   6   8
ENDBRANCH   4   6
BRANCH   1  22
ATOM     22  C   UNL     1       2.586   3.939  19.554  0.00  0.00    +0.000 C 
BRANCH  22  24
ATOM     23  C   UNL     1       3.568   1.746  18.756  0.00  0.00    +0.000 C 
ATOM     24  C   UNL     1       3.405   3.256  18.427  0.00  0.00    +0.000 C 
ATOM     25  C   UNL     1       2.775   3.329  17.025  0.00  0.00    +0.000 C 
BRANCH  24  26
ATOM     26  C   UNL     1       4.839   3.845  18.359  0.00  0.00    +0.000 C 
ATOM     27  O   UNL     1       5.531   3.884  19.382  0.00  0.00    +0.000 OA
ATOM     28  N   UNL     1       5.393   4.398  17.219  0.00  0.00    +0.000 N 
ATOM     29  C   UNL     1       4.806   4.549  15.889  0.00  0.00    +0.000 C 
ATOM     30  C   UNL     1       5.992   4.660  14.929  0.00  0.00    +0.000 C 
ATOM     31  C   UNL     1       7.067   5.291  15.786  0.00  0.00    +0.000 C 
ATOM     32  C   UNL     1       6.856   4.645  17.174  0.00  0.00    +0.000 C 
BRANCH  30  33
ATOM     33  O   UNL     1       6.411   3.377  14.464  0.00  0.00    +0.000 OA
ATOM     34  H   UNL     1       6.432   3.374  13.491  0.00  0.00    +0.000 HD
ENDBRANCH  30  33
BRANCH  32  35
ATOM     35  C   UNL     1       7.579   5.541  18.198  0.00  0.00    +0.000 C 
ATOM     36  O   UNL     1       7.658   6.758  18.073  0.00  0.00    +0.000 OA
BRANCH  35  37
ATOM     37  O   UNL     1       8.088   4.912  19.278  0.00  0.00    +0.000 OA
ATOM     38  H   UNL     1       7.623   4.060  19.426  0.00  0.00    +0.000 HD
ENDBRANCH  35  37
ENDBRANCH  32  35
ENDBRANCH  24  26
ENDBRANCH  22  24
ENDBRANCH   1  22
TORSDOF 10
ENDMDL
MODEL 5
REMARK VINA RESULT:      -8.0      1.211      2.216
REMARK  Name = 
REMARK  12 active torsions:
REMARK  status: ('A' for Active; 'I' for Inactive)
REMARK    1  A    between atoms: C_1  and  C_2
REMARK    2  A    between atoms: C_2  and  C_3
REMARK    3  A    between atoms: C_2  and  C_4
REMARK    4  A    between atoms: C_2  and  C_23
REMARK    5  A    between atoms: C_4  and  C_5
REMARK    6  A    between atoms: C_8  and  C_9
REMARK    7  A    between atoms: C_9  and  O_11
REMARK    8  A    between atoms: O_11  and  C_12
REMARK    9  A    between atoms: C_15  and  C_16
REMARK   10  A    between atoms: C_27  and  O_28
REMARK   11  A    between atoms: C_30  and  C_31
REMARK   12  A    between atoms: C_31  and  O_33
REMARK                            x       y       z     vdW  Elec       q    Type
REMARK                         _______ _______ _______ _____ _____    ______ ____
ROOT
ATOM      1  C   UNL     1       2.167   6.698  19.747  0.00  0.00    +0.000 A 
ATOM      2  C   UNL     1       2.431   7.287  18.526  0.00  0.00    +0.000 A 
ATOM      3  C   UNL     1       1.977   8.635  18.456  0.00  0.00    +0.000 A 
ATOM      4  C   UNL     1       1.377   9.060  19.627  0.00  0.00    +0.000 A 
ATOM      5  S   UNL     1       1.466   7.838  20.828  0.00  0.00    +0.000 S 
ENDROOT
BRANCH   4   6
ATOM      6  C   UNL     1       0.793  10.359  19.935  0.00  0.00    +0.000 C 
ATOM      7  O   UNL     1       0.603  10.848  21.044  0.00  0.00    +0.000 OA
BRANCH   6   8
ATOM      8  O   UNL     1       0.461  11.011  18.742  0.00  0.00    +0.000 OA
BRANCH   8   9
ATOM      9  C   UNL     1      -0.914  11.157  18.499  0.00  0.00    +0.000 A 
ATOM     10  C   UNL     1      -1.616  12.094  19.266  0.00  0.00    +0.000 A 
ATOM     11  C   UNL     1      -3.017  12.160  19.155  0.00  0.00    +0.000 A 
ATOM     12  C   UNL     1      -3.698  11.292  18.288  0.00  0.00    +0.000 A 
ATOM     13  C   UNL     1      -2.987  10.362  17.528  0.00  0.00    +0.000 A 
ATOM     14  C   UNL     1      -1.603  10.291  17.654  0.00  0.00    +0.000 A 
ATOM     15  F   UNL     1      -0.955   9.327  16.987  0.00  0.00    +0.000 F 
BRANCH  12  16
ATOM     16  C   UNL     1      -5.185  11.324  18.166  0.00  0.00    +0.000 C 
ATOM     17  N   UNL     1      -5.983  11.156  19.171  0.00  0.00    +0.000 NA
ATOM     18  N   UNL     1      -5.769  11.525  16.955  0.00  0.00    +0.000 N 
ATOM     19  H   UNL     1      -5.474  10.953  20.037  0.00  0.00    +0.000 HD
ATOM     20  H   UNL     1      -5.307  12.163  16.315  0.00  0.00    +0.000 HD
ATOM     21  H   UNL     1      -6.760  11.722  17.054  0.00  0.00    +0.000 HD
ENDBRANCH  12  16
ENDBRANCH   8   9
ENDBRANCH   6   8
ENDBRANCH   4   6
BRANCH   1  22
ATOM     22  C   UNL     1       2.508   5.288  20.185  0.00  0.00    +0.000 C 
BRANCH  22  24
ATOM     23  C   UNL     1       3.125   2.904  19.599  0.00  0.00    +0.000 C 
ATOM     24  C   UNL     1       3.184   4.382  19.122  0.00  0.00    +0.000 C 
ATOM     25  C   UNL     1       2.537   4.414  17.727  0.00  0.00    +0.000 C 
BRANCH  24  26
ATOM     26  C   UNL     1       4.689   4.734  18.980  0.00  0.00    +0.000 C 
ATOM     27  O   UNL     1       5.368   4.929  19.994  0.00  0.00    +0.000 OA
ATOM     28  N   UNL     1       5.330   4.909  17.767  0.00  0.00    +0.000 N 
ATOM     29  C   UNL     1       4.785   4.807  16.414  0.00  0.00    +0.000 C 
ATOM     30  C   UNL     1       5.985   4.515  15.512  0.00  0.00    +0.000 C 
ATOM     31  C   UNL     1       7.130   5.185  16.239  0.00  0.00    +0.000 C 
ATOM     32  C   UNL     1       6.813   4.935  17.731  0.00  0.00    +0.000 C 
BRANCH  30  33
ATOM     33  O   UNL     1       6.220   3.113  15.390  0.00  0.00    +0.000 OA
ATOM     34  H   UNL     1       5.639   2.743  14.703  0.00  0.00    +0.000 HD
ENDBRANCH  30  33
BRANCH  32  35
ATOM     35  C   UNL     1       7.646   5.947  18.540  0.00  0.00    +0.000 C 
ATOM     36  O   UNL     1       7.812   7.107  18.178  0.00  0.00    +0.000 OA
BRANCH  35  37
ATOM     37  O   UNL     1       8.150   5.498  19.708  0.00  0.00    +0.000 OA
ATOM     38  H   UNL     1       8.098   4.519  19.747  0.00  0.00    +0.000 HD
ENDBRANCH  35  37
ENDBRANCH  32  35
ENDBRANCH  24  26
ENDBRANCH  22  24
ENDBRANCH   1  22
TORSDOF 10
ENDMDL
MODEL 6
REMARK VINA RESULT:      -7.9      3.302      4.258
REMARK  Name = 
REMARK  12 active torsions:
REMARK  status: ('A' for Active; 'I' for Inactive)
REMARK    1  A    between atoms: C_1  and  C_2
REMARK    2  A    between atoms: C_2  and  C_3
REMARK    3  A    between atoms: C_2  and  C_4
REMARK    4  A    between atoms: C_2  and  C_23
REMARK    5  A    between atoms: C_4  and  C_5
REMARK    6  A    between atoms: C_8  and  C_9
REMARK    7  A    between atoms: C_9  and  O_11
REMARK    8  A    between atoms: O_11  and  C_12
REMARK    9  A    between atoms: C_15  and  C_16
REMARK   10  A    between atoms: C_27  and  O_28
REMARK   11  A    between atoms: C_30  and  C_31
REMARK   12  A    between atoms: C_31  and  O_33
REMARK                            x       y       z     vdW  Elec       q    Type
REMARK                         _______ _______ _______ _____ _____    ______ ____
ROOT
ATOM      1  C   UNL     1       1.922   8.147  18.909  0.00  0.00    +0.000 A 
ATOM      2  C   UNL     1       1.666   7.965  20.254  0.00  0.00    +0.000 A 
ATOM      3  C   UNL     1       1.071   9.109  20.860  0.00  0.00    +0.000 A 
ATOM      4  C   UNL     1       0.874  10.147  19.967  0.00  0.00    +0.000 A 
ATOM      5  S   UNL     1       1.327   9.673  18.382  0.00  0.00    +0.000 S 
ENDROOT
BRANCH   4   6
ATOM      6  C   UNL     1       0.299  11.463  20.210  0.00  0.00    +0.000 C 
ATOM      7  O   UNL     1      -0.371  12.140  19.435  0.00  0.00    +0.000 OA
BRANCH   6   8
ATOM      8  O   UNL     1       0.625  11.878  21.506  0.00  0.00    +0.000 OA
BRANCH   8   9
ATOM      9  C   UNL     1      -0.459  12.289  22.296  0.00  0.00    +0.000 A 
ATOM     10  C   UNL     1      -1.346  11.305  22.750  0.00  0.00    +0.000 A 
ATOM     11  C   UNL     1      -2.523  11.696  23.416  0.00  0.00    +0.000 A 
ATOM     12  C   UNL     1      -2.801  13.057  23.616  0.00  0.00    +0.000 A 
ATOM     13  C   UNL     1      -1.909  14.029  23.159  0.00  0.00    +0.000 A 
ATOM     14  C   UNL     1      -0.756  13.636  22.488  0.00  0.00    +0.000 A 
ATOM     15  F   UNL     1       0.034  14.589  21.976  0.00  0.00    +0.000 F 
BRANCH  12  16
ATOM     16  C   UNL     1      -4.052  13.502  24.298  0.00  0.00    +0.000 C 
ATOM     17  N   UNL     1      -4.514  14.708  24.215  0.00  0.00    +0.000 NA
ATOM     18  N   UNL     1      -4.763  12.631  25.063  0.00  0.00    +0.000 N 
ATOM     19  H   UNL     1      -3.898  15.320  23.673  0.00  0.00    +0.000 HD
ATOM     20  H   UNL     1      -4.805  11.666  24.752  0.00  0.00    +0.000 HD
ATOM     21  H   UNL     1      -5.677  13.007  25.292  0.00  0.00    +0.000 HD
ENDBRANCH  12  16
ENDBRANCH   8   9
ENDBRANCH   6   8
ENDBRANCH   4   6
BRANCH   1  22
ATOM     22  C   UNL     1       2.537   7.154  17.945  0.00  0.00    +0.000 C 
BRANCH  22  24
ATOM     23  C   UNL     1       2.216   5.600  19.918  0.00  0.00    +0.000 C 
ATOM     24  C   UNL     1       2.881   5.755  18.522  0.00  0.00    +0.000 C 
ATOM     25  C   UNL     1       2.400   4.562  17.678  0.00  0.00    +0.000 C 
BRANCH  24  26
ATOM     26  C   UNL     1       4.410   5.618  18.751  0.00  0.00    +0.000 C 
ATOM     27  O   UNL     1       4.872   5.769  19.887  0.00  0.00    +0.000 OA
ATOM     28  N   UNL     1       5.325   5.391  17.739  0.00  0.00    +0.000 N 
ATOM     29  C   UNL     1       5.091   5.232  16.304  0.00  0.00    +0.000 C 
ATOM     30  C   UNL     1       6.298   4.452  15.779  0.00  0.00    +0.000 C 
ATOM     31  C   UNL     1       7.407   4.864  16.721  0.00  0.00    +0.000 C 
ATOM     32  C   UNL     1       6.703   4.971  18.092  0.00  0.00    +0.000 C 
BRANCH  30  33
ATOM     33  O   UNL     1       6.081   3.043  15.845  0.00  0.00    +0.000 OA
ATOM     34  H   UNL     1       5.148   2.866  16.057  0.00  0.00    +0.000 HD
ENDBRANCH  30  33
BRANCH  32  35
ATOM     35  C   UNL     1       7.621   5.811  19.001  0.00  0.00    +0.000 C 
ATOM     36  O   UNL     1       8.126   6.867  18.636  0.00  0.00    +0.000 OA
BRANCH  35  37
ATOM     37  O   UNL     1       7.803   5.342  20.253  0.00  0.00    +0.000 OA
ATOM     38  H   UNL     1       8.275   4.482  20.228  0.00  0.00    +0.000 HD
ENDBRANCH  35  37
ENDBRANCH  32  35
ENDBRANCH  24  26
ENDBRANCH  22  24
ENDBRANCH   1  22
TORSDOF 10
ENDMDL
MODEL 7
REMARK VINA RESULT:      -7.7      2.875      3.804
REMARK  Name = 
REMARK  12 active torsions:
REMARK  status: ('A' for Active; 'I' for Inactive)
REMARK    1  A    between atoms: C_1  and  C_2
REMARK    2  A    between atoms: C_2  and  C_3
REMARK    3  A    between atoms: C_2  and  C_4
REMARK    4  A    between atoms: C_2  and  C_23
REMARK    5  A    between atoms: C_4  and  C_5
REMARK    6  A    between atoms: C_8  and  C_9
REMARK    7  A    between atoms: C_9  and  O_11
REMARK    8  A    between atoms: O_11  and  C_12
REMARK    9  A    between atoms: C_15  and  C_16
REMARK   10  A    between atoms: C_27  and  O_28
REMARK   11  A    between atoms: C_30  and  C_31
REMARK   12  A    between atoms: C_31  and  O_33
REMARK                            x       y       z     vdW  Elec       q    Type
REMARK                         _______ _______ _______ _____ _____    ______ ____
ROOT
ATOM      1  C   UNL     1       2.300   6.570  19.744  0.00  0.00    +0.000 A 
ATOM      2  C   UNL     1       2.678   7.108  18.530  0.00  0.00    +0.000 A 
ATOM      3  C   UNL     1       2.133   8.406  18.311  0.00  0.00    +0.000 A 
ATOM      4  C   UNL     1       1.352   8.845  19.364  0.00  0.00    +0.000 A 
ATOM      5  S   UNL     1       1.375   7.706  20.647  0.00  0.00    +0.000 S 
ENDROOT
BRANCH   4   6
ATOM      6  C   UNL     1       0.633  10.104  19.506  0.00  0.00    +0.000 C 
ATOM      7  O   UNL     1      -0.264  10.536  18.789  0.00  0.00    +0.000 OA
BRANCH   6   8
ATOM      8  O   UNL     1       1.123  10.793  20.620  0.00  0.00    +0.000 OA
BRANCH   8   9
ATOM      9  C   UNL     1       0.146  11.355  21.457  0.00  0.00    +0.000 A 
ATOM     10  C   UNL     1      -0.415  10.537  22.445  0.00  0.00    +0.000 A 
ATOM     11  C   UNL     1      -1.500  11.020  23.201  0.00  0.00    +0.000 A 
ATOM     12  C   UNL     1      -2.011  12.304  22.960  0.00  0.00    +0.000 A 
ATOM     13  C   UNL     1      -1.443  13.111  21.973  0.00  0.00    +0.000 A 
ATOM     14  C   UNL     1      -0.381  12.622  21.219  0.00  0.00    +0.000 A 
ATOM     15  F   UNL     1       0.084  13.377  20.215  0.00  0.00    +0.000 F 
BRANCH  12  16
ATOM     16  C   UNL     1      -3.175  12.834  23.730  0.00  0.00    +0.000 C 
ATOM     17  N   UNL     1      -4.328  12.248  23.765  0.00  0.00    +0.000 NA
ATOM     18  N   UNL     1      -3.061  13.993  24.433  0.00  0.00    +0.000 N 
ATOM     19  H   UNL     1      -4.356  11.416  23.168  0.00  0.00    +0.000 HD
ATOM     20  H   UNL     1      -2.172  14.177  24.885  0.00  0.00    +0.000 HD
ATOM     21  H   UNL     1      -3.851  14.120  25.058  0.00  0.00    +0.000 HD
ENDBRANCH  12  16
ENDBRANCH   8   9
ENDBRANCH   6   8
ENDBRANCH   4   6
BRANCH   1  22
ATOM     22  C   UNL     1       2.688   5.223  20.317  0.00  0.00    +0.000 C 
BRANCH  22  24
ATOM     23  C   UNL     1       3.365   2.808  19.967  0.00  0.00    +0.000 C 
ATOM     24  C   UNL     1       3.370   4.229  19.339  0.00  0.00    +0.000 C 
ATOM     25  C   UNL     1       2.693   4.097  17.963  0.00  0.00    +0.000 C 
BRANCH  24  26
ATOM     26  C   UNL     1       4.860   4.606  19.125  0.00  0.00    +0.000 C 
ATOM     27  O   UNL     1       5.595   4.765  20.107  0.00  0.00    +0.000 OA
ATOM     28  N   UNL     1       5.427   4.842  17.887  0.00  0.00    +0.000 N 
ATOM     29  C   UNL     1       4.806   4.792  16.564  0.00  0.00    +0.000 C 
ATOM     30  C   UNL     1       5.955   4.556  15.583  0.00  0.00    +0.000 C 
ATOM     31  C   UNL     1       7.133   5.207  16.272  0.00  0.00    +0.000 C 
ATOM     32  C   UNL     1       6.906   4.888  17.767  0.00  0.00    +0.000 C 
BRANCH  30  33
ATOM     33  O   UNL     1       6.196   3.163  15.385  0.00  0.00    +0.000 OA
ATOM     34  H   UNL     1       5.466   2.648  15.768  0.00  0.00    +0.000 HD
ENDBRANCH  30  33
BRANCH  32  35
ATOM     35  C   UNL     1       7.774   5.874  18.570  0.00  0.00    +0.000 C 
ATOM     36  O   UNL     1       7.947   7.038  18.224  0.00  0.00    +0.000 OA
BRANCH  35  37
ATOM     37  O   UNL     1       8.304   5.397  19.716  0.00  0.00    +0.000 OA
ATOM     38  H   UNL     1       7.616   4.938  20.244  0.00  0.00    +0.000 HD
ENDBRANCH  35  37
ENDBRANCH  32  35
ENDBRANCH  24  26
ENDBRANCH  22  24
ENDBRANCH   1  22
TORSDOF 10
ENDMDL
MODEL 8
REMARK VINA RESULT:      -7.7      1.075      1.370
REMARK  Name = 
REMARK  12 active torsions:
REMARK  status: ('A' for Active; 'I' for Inactive)
REMARK    1  A    between atoms: C_1  and  C_2
REMARK    2  A    between atoms: C_2  and  C_3
REMARK    3  A    between atoms: C_2  and  C_4
REMARK    4  A    between atoms: C_2  and  C_23
REMARK    5  A    between atoms: C_4  and  C_5
REMARK    6  A    between atoms: C_8  and  C_9
REMARK    7  A    between atoms: C_9  and  O_11
REMARK    8  A    between atoms: O_11  and  C_12
REMARK    9  A    between atoms: C_15  and  C_16
REMARK   10  A    between atoms: C_27  and  O_28
REMARK   11  A    between atoms: C_30  and  C_31
REMARK   12  A    between atoms: C_31  and  O_33
REMARK                            x       y       z     vdW  Elec       q    Type
REMARK                         _______ _______ _______ _____ _____    ______ ____
ROOT
ATOM      1  C   UNL     1       2.697   6.542  19.392  0.00  0.00    +0.000 A 
ATOM      2  C   UNL     1       2.840   7.224  18.200  0.00  0.00    +0.000 A 
ATOM      3  C   UNL     1       2.164   8.478  18.200  0.00  0.00    +0.000 A 
ATOM      4  C   UNL     1       1.519   8.739  19.395  0.00  0.00    +0.000 A 
ATOM      5  S   UNL     1       1.832   7.495  20.534  0.00  0.00    +0.000 S 
ENDROOT
BRANCH   4   6
ATOM      6  C   UNL     1       0.730   9.905  19.771  0.00  0.00    +0.000 C 
ATOM      7  O   UNL     1       0.480  10.303  20.904  0.00  0.00    +0.000 OA
BRANCH   6   8
ATOM      8  O   UNL     1       0.270  10.544  18.614  0.00  0.00    +0.000 OA
BRANCH   8   9
ATOM      9  C   UNL     1      -1.102  10.840  18.596  0.00  0.00    +0.000 A 
ATOM     10  C   UNL     1      -1.938  10.012  17.835  0.00  0.00    +0.000 A 
ATOM     11  C   UNL     1      -3.290  10.366  17.673  0.00  0.00    +0.000 A 
ATOM     12  C   UNL     1      -3.789  11.537  18.263  0.00  0.00    +0.000 A 
ATOM     13  C   UNL     1      -2.946  12.354  19.019  0.00  0.00    +0.000 A 
ATOM     14  C   UNL     1      -1.607  12.007  19.163  0.00  0.00    +0.000 A 
ATOM     15  F   UNL     1      -0.799  12.855  19.812  0.00  0.00    +0.000 F 
BRANCH  12  16
ATOM     16  C   UNL     1      -5.213  11.950  18.089  0.00  0.00    +0.000 C 
ATOM     17  N   UNL     1      -5.685  13.070  18.531  0.00  0.00    +0.000 NA
ATOM     18  N   UNL     1      -6.090  11.131  17.450  0.00  0.00    +0.000 N 
ATOM     19  H   UNL     1      -4.984  13.606  19.050  0.00  0.00    +0.000 HD
ATOM     20  H   UNL     1      -5.737  10.591  16.666  0.00  0.00    +0.000 HD
ATOM     21  H   UNL     1      -6.952  11.619  17.230  0.00  0.00    +0.000 HD
ENDBRANCH  12  16
ENDBRANCH   8   9
ENDBRANCH   6   8
ENDBRANCH   4   6
BRANCH   1  22
ATOM     22  C   UNL     1       3.278   5.191  19.757  0.00  0.00    +0.000 C 
BRANCH  22  24
ATOM     23  C   UNL     1       3.296   2.675  19.472  0.00  0.00    +0.000 C 
ATOM     24  C   UNL     1       2.990   4.028  18.771  0.00  0.00    +0.000 C 
ATOM     25  C   UNL     1       1.537   3.939  18.272  0.00  0.00    +0.000 C 
BRANCH  24  26
ATOM     26  C   UNL     1       3.933   4.106  17.542  0.00  0.00    +0.000 C 
ATOM     27  O   UNL     1       3.499   3.814  16.422  0.00  0.00    +0.000 OA
ATOM     28  N   UNL     1       5.275   4.430  17.617  0.00  0.00    +0.000 N 
ATOM     29  C   UNL     1       6.079   4.760  18.793  0.00  0.00    +0.000 C 
ATOM     30  C   UNL     1       7.263   5.570  18.263  0.00  0.00    +0.000 C 
ATOM     31  C   UNL     1       7.449   5.028  16.863  0.00  0.00    +0.000 C 
ATOM     32  C   UNL     1       6.005   4.777  16.372  0.00  0.00    +0.000 C 
BRANCH  30  33
ATOM     33  O   UNL     1       6.969   6.966  18.225  0.00  0.00    +0.000 OA
ATOM     34  H   UNL     1       6.182   7.148  18.767  0.00  0.00    +0.000 HD
ENDBRANCH  30  33
BRANCH  32  35
ATOM     35  C   UNL     1       6.102   3.818  15.171  0.00  0.00    +0.000 C 
ATOM     36  O   UNL     1       6.339   4.206  14.032  0.00  0.00    +0.000 OA
BRANCH  35  37
ATOM     37  O   UNL     1       5.958   2.506  15.449  0.00  0.00    +0.000 OA
ATOM     38  H   UNL     1       5.225   2.371  16.087  0.00  0.00    +0.000 HD
ENDBRANCH  35  37
ENDBRANCH  32  35
ENDBRANCH  24  26
ENDBRANCH  22  24
ENDBRANCH   1  22
TORSDOF 10
ENDMDL
MODEL 9
REMARK VINA RESULT:      -7.7      1.717      2.917
REMARK  Name = 
REMARK  12 active torsions:
REMARK  status: ('A' for Active; 'I' for Inactive)
REMARK    1  A    between atoms: C_1  and  C_2
REMARK    2  A    between atoms: C_2  and  C_3
REMARK    3  A    between atoms: C_2  and  C_4
REMARK    4  A    between atoms: C_2  and  C_23
REMARK    5  A    between atoms: C_4  and  C_5
REMARK    6  A    between atoms: C_8  and  C_9
REMARK    7  A    between atoms: C_9  and  O_11
REMARK    8  A    between atoms: O_11  and  C_12
REMARK    9  A    between atoms: C_15  and  C_16
REMARK   10  A    between atoms: C_27  and  O_28
REMARK   11  A    between atoms: C_30  and  C_31
REMARK   12  A    between atoms: C_31  and  O_33
REMARK                            x       y       z     vdW  Elec       q    Type
REMARK                         _______ _______ _______ _____ _____    ______ ____
ROOT
ATOM      1  C   UNL     1       2.259   5.327  18.682  0.00  0.00    +0.000 A 
ATOM      2  C   UNL     1       2.760   6.420  18.003  0.00  0.00    +0.000 A 
ATOM      3  C   UNL     1       2.518   7.648  18.683  0.00  0.00    +0.000 A 
ATOM      4  C   UNL     1       1.841   7.475  19.877  0.00  0.00    +0.000 A 
ATOM      5  S   UNL     1       1.598   5.807  20.197  0.00  0.00    +0.000 S 
ENDROOT
BRANCH   4   6
ATOM      6  C   UNL     1       1.417   8.482  20.840  0.00  0.00    +0.000 C 
ATOM      7  O   UNL     1       0.945   8.295  21.957  0.00  0.00    +0.000 OA
BRANCH   6   8
ATOM      8  O   UNL     1       1.628   9.756  20.301  0.00  0.00    +0.000 OA
BRANCH   8   9
ATOM      9  C   UNL     1       0.466  10.489  20.016  0.00  0.00    +0.000 A 
ATOM     10  C   UNL     1      -0.116  11.221  21.059  0.00  0.00    +0.000 A 
ATOM     11  C   UNL     1      -1.360  11.844  20.850  0.00  0.00    +0.000 A 
ATOM     12  C   UNL     1      -2.008  11.726  19.611  0.00  0.00    +0.000 A 
ATOM     13  C   UNL     1      -1.419  10.994  18.579  0.00  0.00    +0.000 A 
ATOM     14  C   UNL     1      -0.196  10.368  18.797  0.00  0.00    +0.000 A 
ATOM     15  F   UNL     1       0.302   9.594  17.824  0.00  0.00    +0.000 F 
BRANCH  12  16
ATOM     16  C   UNL     1      -3.339  12.356  19.367  0.00  0.00    +0.000 C 
ATOM     17  N   UNL     1      -4.134  11.988  18.415  0.00  0.00    +0.000 NA
ATOM     18  N   UNL     1      -3.769  13.377  20.156  0.00  0.00    +0.000 N 
ATOM     19  H   UNL     1      -3.721  11.257  17.829  0.00  0.00    +0.000 HD
ATOM     20  H   UNL     1      -3.524  13.340  21.140  0.00  0.00    +0.000 HD
ATOM     21  H   UNL     1      -4.755  13.565  20.006  0.00  0.00    +0.000 HD
ENDBRANCH  12  16
ENDBRANCH   8   9
ENDBRANCH   6   8
ENDBRANCH   4   6
BRANCH   1  22
ATOM     22  C   UNL     1       2.334   3.871  18.270  0.00  0.00    +0.000 C 
BRANCH  22  24
ATOM     23  C   UNL     1       3.473   2.853  20.289  0.00  0.00    +0.000 C 
ATOM     24  C   UNL     1       3.578   3.081  18.756  0.00  0.00    +0.000 C 
ATOM     25  C   UNL     1       3.757   1.690  18.122  0.00  0.00    +0.000 C 
BRANCH  24  26
ATOM     26  C   UNL     1       4.873   3.903  18.524  0.00  0.00    +0.000 C 
ATOM     27  O   UNL     1       5.576   4.218  19.491  0.00  0.00    +0.000 OA
ATOM     28  N   UNL     1       5.281   4.371  17.289  0.00  0.00    +0.000 N 
ATOM     29  C   UNL     1       4.636   4.214  15.985  0.00  0.00    +0.000 C 
ATOM     30  C   UNL     1       5.752   4.394  14.955  0.00  0.00    +0.000 C 
ATOM     31  C   UNL     1       6.714   5.329  15.652  0.00  0.00    +0.000 C 
ATOM     32  C   UNL     1       6.669   4.869  17.127  0.00  0.00    +0.000 C 
BRANCH  30  33
ATOM     33  O   UNL     1       6.389   3.154  14.651  0.00  0.00    +0.000 OA
ATOM     34  H   UNL     1       6.715   2.745  15.470  0.00  0.00    +0.000 HD
ENDBRANCH  30  33
BRANCH  32  35
ATOM     35  C   UNL     1       7.242   6.023  17.972  0.00  0.00    +0.000 C 
ATOM     36  O   UNL     1       8.065   5.844  18.863  0.00  0.00    +0.000 OA
BRANCH  35  37
ATOM     37  O   UNL     1       6.820   7.262  17.645  0.00  0.00    +0.000 OA
ATOM     38  H   UNL     1       5.870   7.244  17.401  0.00  0.00    +0.000 HD
ENDBRANCH  35  37
ENDBRANCH  32  35
ENDBRANCH  24  26
ENDBRANCH  22  24
ENDBRANCH   1  22
TORSDOF 10
ENDMDL
