MODEL 1
REMARK VINA RESULT:      -7.7      0.000      0.000
REMARK  Name = 
REMARK  8 active torsions:
REMARK  status: ('A' for Active; 'I' for Inactive)
REMARK    1  A    between atoms: C_2  and  O_3
REMARK    2  A    between atoms: C_2  and  C_4
REMARK    3  A    between atoms: C_4  and  C_5
REMARK    4  A    between atoms: C_10  and  N_11
REMARK    5  A    between atoms: N_14  and  C_15
REMARK    6  A    between atoms: C_18  and  C_19
REMARK    7  A    between atoms: C_30  and  C_31
REMARK    8  A    between atoms: C_31  and  O_32
REMARK                            x       y       z     vdW  Elec       q    Type
REMARK                         _______ _______ _______ _____ _____    ______ ____
ROOT
ATOM      1  C   UNL     1       4.105   3.874  16.747  0.00  0.00    +0.000 C 
ATOM      2  C   UNL     1       3.375   5.196  16.995  0.00  0.00    +0.000 C 
ATOM      3  C   UNL     1       3.977   5.998  18.148  0.00  0.00    +0.000 C 
ATOM      4  C   UNL     1       2.980   6.900  18.800  0.00  0.00    +0.000 A 
ATOM      5  C   UNL     1       2.463   8.118  18.390  0.00  0.00    +0.000 A 
ATOM      6  C   UNL     1       1.480   8.754  19.177  0.00  0.00    +0.000 A 
ATOM      7  C   UNL     1       1.052   8.138  20.371  0.00  0.00    +0.000 A 
ATOM      8  C   UNL     1       1.573   6.901  20.767  0.00  0.00    +0.000 A 
ATOM      9  C   UNL     1       2.541   6.319  19.977  0.00  0.00    +0.000 A 
ATOM     10  O   UNL     1       3.155   5.127  20.254  0.00  0.00    +0.000 OA
ATOM     11  C   UNL     1       4.319   5.138  19.378  0.00  0.00    +0.000 C 
ATOM     12  C   UNL     1       4.787   3.708  19.058  0.00  0.00    +0.000 C 
ATOM     13  O   UNL     1       4.080   3.108  17.966  0.00  0.00    +0.000 OA
ENDROOT
BRANCH   6  14
ATOM     14  N   UNL     1       0.903  10.002  18.824  0.00  0.00    +0.000 N 
ATOM     15  C   UNL     1      -0.455  10.243  18.804  0.00  0.00    +0.000 C 
ATOM     16  O   UNL     1      -1.299   9.431  19.189  0.00  0.00    +0.000 OA
ATOM     17  N   UNL     1      -0.793  11.492  18.281  0.00  0.00    +0.000 N 
ATOM     18  H   UNL     1       1.494  10.821  18.879  0.00  0.00    +0.000 HD
ATOM     19  H   UNL     1      -0.207  11.772  17.508  0.00  0.00    +0.000 HD
BRANCH  17  20
ATOM     20  C   UNL     1      -2.177  11.789  18.163  0.00  0.00    +0.000 A 
ATOM     21  C   UNL     1      -2.885  12.278  19.267  0.00  0.00    +0.000 A 
ATOM     22  C   UNL     1      -4.279  12.303  19.260  0.00  0.00    +0.000 A 
ATOM     23  C   UNL     1      -4.986  11.843  18.143  0.00  0.00    +0.000 A 
ATOM     24  C   UNL     1      -4.265  11.460  16.998  0.00  0.00    +0.000 A 
ATOM     25  C   UNL     1      -2.863  11.453  16.998  0.00  0.00    +0.000 A 
BRANCH  23  26
ATOM     26  C   UNL     1      -6.489  11.700  18.194  0.00  0.00    +0.000 C 
ATOM     27  F   UNL     1      -7.125  12.193  17.094  0.00  0.00    +0.000 F 
ATOM     28  F   UNL     1      -6.890  10.404  18.306  0.00  0.00    +0.000 F 
ATOM     29  F   UNL     1      -7.037  12.352  19.259  0.00  0.00    +0.000 F 
ENDBRANCH  23  26
ENDBRANCH  17  20
ENDBRANCH   6  14
BRANCH   1  30
ATOM     30  C   UNL     1       5.539   3.977  16.205  0.00  0.00    +0.000 C 
BRANCH  30  32
ATOM     31  O   UNL     1       5.670   5.981  14.847  0.00  0.00    +0.000 OA
ATOM     32  C   UNL     1       5.657   4.767  14.928  0.00  0.00    +0.000 C 
BRANCH  32  33
ATOM     33  O   UNL     1       5.762   3.965  13.842  0.00  0.00    +0.000 OA
ATOM     34  H   UNL     1       5.701   4.427  12.987  0.00  0.00    +0.000 HD
ENDBRANCH  32  33
ENDBRANCH  30  32
ENDBRANCH   1  30
BRANCH  12  35
ATOM     35  C   UNL     1       4.684   2.789  20.284  0.00  0.00    +0.000 C 
BRANCH  35  36
ATOM     36  O   UNL     1       3.326   2.440  20.541  0.00  0.00    +0.000 OA
ATOM     37  H   UNL     1       3.336   1.564  20.967  0.00  0.00    +0.000 HD
ENDBRANCH  35  36
ENDBRANCH  12  35
TORSDOF 8
ENDMDL
MODEL 2
REMARK VINA RESULT:      -7.6      5.903     11.418
REMARK  Name = 
REMARK  8 active torsions:
REMARK  status: ('A' for Active; 'I' for Inactive)
REMARK    1  A    between atoms: C_2  and  O_3
REMARK    2  A    between atoms: C_2  and  C_4
REMARK    3  A    between atoms: C_4  and  C_5
REMARK    4  A    between atoms: C_10  and  N_11
REMARK    5  A    between atoms: N_14  and  C_15
REMARK    6  A    between atoms: C_18  and  C_19
REMARK    7  A    between atoms: C_30  and  C_31
REMARK    8  A    between atoms: C_31  and  O_32
REMARK                            x       y       z     vdW  Elec       q    Type
REMARK                         _______ _______ _______ _____ _____    ______ ____
ROOT
ATOM      1  C   UNL     1      -2.370  13.643  23.499  0.00  0.00    +0.000 C 
ATOM      2  C   UNL     1      -1.648  12.363  23.073  0.00  0.00    +0.000 C 
ATOM      3  C   UNL     1      -0.396  12.638  22.241  0.00  0.00    +0.000 C 
ATOM      4  C   UNL     1      -0.057  11.507  21.325  0.00  0.00    +0.000 A 
ATOM      5  C   UNL     1       0.538  10.283  21.586  0.00  0.00    +0.000 A 
ATOM      6  C   UNL     1       0.703   9.355  20.536  0.00  0.00    +0.000 A 
ATOM      7  C   UNL     1       0.267   9.701  19.240  0.00  0.00    +0.000 A 
ATOM      8  C   UNL     1      -0.346  10.934  18.993  0.00  0.00    +0.000 A 
ATOM      9  C   UNL     1      -0.477  11.817  20.044  0.00  0.00    +0.000 A 
ATOM     10  O   UNL     1      -1.030  13.065  19.942  0.00  0.00    +0.000 OA
ATOM     11  C   UNL     1      -0.599  13.723  21.169  0.00  0.00    +0.000 C 
ATOM     12  C   UNL     1      -1.570  14.850  21.566  0.00  0.00    +0.000 C 
ATOM     13  O   UNL     1      -2.702  14.390  22.313  0.00  0.00    +0.000 OA
ENDROOT
BRANCH   6  14
ATOM     14  N   UNL     1       1.304   8.083  20.723  0.00  0.00    +0.000 N 
ATOM     15  C   UNL     1       2.147   7.489  19.807  0.00  0.00    +0.000 C 
ATOM     16  O   UNL     1       2.546   8.048  18.783  0.00  0.00    +0.000 OA
ATOM     17  N   UNL     1       2.494   6.177  20.135  0.00  0.00    +0.000 N 
ATOM     18  H   UNL     1       1.362   7.729  21.668  0.00  0.00    +0.000 HD
ATOM     19  H   UNL     1       1.735   5.657  20.552  0.00  0.00    +0.000 HD
BRANCH  17  20
ATOM     20  C   UNL     1       3.306   5.474  19.207  0.00  0.00    +0.000 A 
ATOM     21  C   UNL     1       4.701   5.558  19.292  0.00  0.00    +0.000 A 
ATOM     22  C   UNL     1       5.502   5.120  18.238  0.00  0.00    +0.000 A 
ATOM     23  C   UNL     1       4.918   4.584  17.084  0.00  0.00    +0.000 A 
ATOM     24  C   UNL     1       3.524   4.400  17.056  0.00  0.00    +0.000 A 
ATOM     25  C   UNL     1       2.719   4.823  18.124  0.00  0.00    +0.000 A 
BRANCH  23  26
ATOM     26  C   UNL     1       5.763   4.273  15.872  0.00  0.00    +0.000 C 
ATOM     27  F   UNL     1       5.940   2.939  15.654  0.00  0.00    +0.000 F 
ATOM     28  F   UNL     1       5.234   4.771  14.720  0.00  0.00    +0.000 F 
ATOM     29  F   UNL     1       7.017   4.800  15.964  0.00  0.00    +0.000 F 
ENDBRANCH  23  26
ENDBRANCH  17  20
ENDBRANCH   6  14
BRANCH   1  30
ATOM     30  C   UNL     1      -1.638  14.537  24.512  0.00  0.00    +0.000 C 
BRANCH  30  32
ATOM     31  O   UNL     1      -2.164  16.525  25.795  0.00  0.00    +0.000 OA
ATOM     32  C   UNL     1      -2.532  15.514  25.227  0.00  0.00    +0.000 C 
BRANCH  32  33
ATOM     33  O   UNL     1      -3.835  15.149  25.165  0.00  0.00    +0.000 OA
ATOM     34  H   UNL     1      -4.215  14.849  26.012  0.00  0.00    +0.000 HD
ENDBRANCH  32  33
ENDBRANCH  30  32
ENDBRANCH   1  30
BRANCH  12  35
ATOM     35  C   UNL     1      -2.064  15.630  20.339  0.00  0.00    +0.000 C 
BRANCH  35  36
ATOM     36  O   UNL     1      -3.482  15.537  20.219  0.00  0.00    +0.000 OA
ATOM     37  H   UNL     1      -3.679  15.444  19.270  0.00  0.00    +0.000 HD
ENDBRANCH  35  36
ENDBRANCH  12  35
TORSDOF 8
ENDMDL
MODEL 3
REMARK VINA RESULT:      -7.6      6.005     11.516
REMARK  Name = 
REMARK  8 active torsions:
REMARK  status: ('A' for Active; 'I' for Inactive)
REMARK    1  A    between atoms: C_2  and  O_3
REMARK    2  A    between atoms: C_2  and  C_4
REMARK    3  A    between atoms: C_4  and  C_5
REMARK    4  A    between atoms: C_10  and  N_11
REMARK    5  A    between atoms: N_14  and  C_15
REMARK    6  A    between atoms: C_18  and  C_19
REMARK    7  A    between atoms: C_30  and  C_31
REMARK    8  A    between atoms: C_31  and  O_32
REMARK                            x       y       z     vdW  Elec       q    Type
REMARK                         _______ _______ _______ _____ _____    ______ ____
ROOT
ATOM      1  C   UNL     1      -2.470  13.497  23.600  0.00  0.00    +0.000 C 
ATOM      2  C   UNL     1      -1.668  12.343  22.993  0.00  0.00    +0.000 C 
ATOM      3  C   UNL     1      -0.650  12.811  21.955  0.00  0.00    +0.000 C 
ATOM      4  C   UNL     1      -0.335  11.755  20.945  0.00  0.00    +0.000 A 
ATOM      5  C   UNL     1       0.467  10.629  21.038  0.00  0.00    +0.000 A 
ATOM      6  C   UNL     1       0.558   9.751  19.938  0.00  0.00    +0.000 A 
ATOM      7  C   UNL     1      -0.163  10.046  18.762  0.00  0.00    +0.000 A 
ATOM      8  C   UNL     1      -0.979  11.180  18.686  0.00  0.00    +0.000 A 
ATOM      9  C   UNL     1      -1.032  12.019  19.779  0.00  0.00    +0.000 A 
ATOM     10  O   UNL     1      -1.766  13.173  19.835  0.00  0.00    +0.000 OA
ATOM     11  C   UNL     1      -1.206  13.870  20.986  0.00  0.00    +0.000 C 
ATOM     12  C   UNL     1      -2.233  14.836  21.604  0.00  0.00    +0.000 C 
ATOM     13  O   UNL     1      -3.125  14.204  22.529  0.00  0.00    +0.000 OA
ENDROOT
BRANCH   6  14
ATOM     14  N   UNL     1       1.358   8.578  19.955  0.00  0.00    +0.000 N 
ATOM     15  C   UNL     1       2.104   8.141  18.881  0.00  0.00    +0.000 C 
ATOM     16  O   UNL     1       2.234   8.778  17.834  0.00  0.00    +0.000 OA
ATOM     17  N   UNL     1       2.686   6.887  19.080  0.00  0.00    +0.000 N 
ATOM     18  H   UNL     1       1.630   8.214  20.859  0.00  0.00    +0.000 HD
ATOM     19  H   UNL     1       2.094   6.250  19.592  0.00  0.00    +0.000 HD
BRANCH  17  20
ATOM     20  C   UNL     1       3.416   6.337  17.993  0.00  0.00    +0.000 A 
ATOM     21  C   UNL     1       3.392   4.956  17.760  0.00  0.00    +0.000 A 
ATOM     22  C   UNL     1       4.312   4.368  16.894  0.00  0.00    +0.000 A 
ATOM     23  C   UNL     1       5.268   5.156  16.240  0.00  0.00    +0.000 A 
ATOM     24  C   UNL     1       5.210   6.553  16.393  0.00  0.00    +0.000 A 
ATOM     25  C   UNL     1       4.273   7.146  17.250  0.00  0.00    +0.000 A 
BRANCH  23  26
ATOM     26  C   UNL     1       6.376   4.510  15.442  0.00  0.00    +0.000 C 
ATOM     27  F   UNL     1       6.742   5.220  14.338  0.00  0.00    +0.000 F 
ATOM     28  F   UNL     1       7.515   4.338  16.168  0.00  0.00    +0.000 F 
ATOM     29  F   UNL     1       6.034   3.271  14.987  0.00  0.00    +0.000 F 
ENDBRANCH  23  26
ENDBRANCH  17  20
ENDBRANCH   6  14
BRANCH   1  30
ATOM     30  C   UNL     1      -1.692  14.474  24.494  0.00  0.00    +0.000 C 
BRANCH  30  32
ATOM     31  O   UNL     1      -2.201  16.533  25.669  0.00  0.00    +0.000 OA
ATOM     32  C   UNL     1      -2.562  15.457  25.232  0.00  0.00    +0.000 C 
BRANCH  32  33
ATOM     33  O   UNL     1      -3.836  15.013  25.356  0.00  0.00    +0.000 OA
ATOM     34  H   UNL     1      -4.293  14.846  24.511  0.00  0.00    +0.000 HD
ENDBRANCH  32  33
ENDBRANCH  30  32
ENDBRANCH   1  30
BRANCH  12  35
ATOM     35  C   UNL     1      -3.058  15.552  20.525  0.00  0.00    +0.000 C 
BRANCH  35  36
ATOM     36  O   UNL     1      -4.278  14.857  20.278  0.00  0.00    +0.000 OA
ATOM     37  H   UNL     1      -4.220  14.498  19.374  0.00  0.00    +0.000 HD
ENDBRANCH  35  36
ENDBRANCH  12  35
TORSDOF 8
ENDMDL
MODEL 4
REMARK VINA RESULT:      -7.5      4.012      4.676
REMARK  Name = 
REMARK  8 active torsions:
REMARK  status: ('A' for Active; 'I' for Inactive)
REMARK    1  A    between atoms: C_2  and  O_3
REMARK    2  A    between atoms: C_2  and  C_4
REMARK    3  A    between atoms: C_4  and  C_5
REMARK    4  A    between atoms: C_10  and  N_11
REMARK    5  A    between atoms: N_14  and  C_15
REMARK    6  A    between atoms: C_18  and  C_19
REMARK    7  A    between atoms: C_30  and  C_31
REMARK    8  A    between atoms: C_31  and  O_32
REMARK                            x       y       z     vdW  Elec       q    Type
REMARK                         _______ _______ _______ _____ _____    ______ ____
ROOT
ATOM      1  C   UNL     1       2.204   2.963  18.100  0.00  0.00    +0.000 C 
ATOM      2  C   UNL     1       2.040   4.475  17.929  0.00  0.00    +0.000 C 
ATOM      3  C   UNL     1       2.933   5.279  18.873  0.00  0.00    +0.000 C 
ATOM      4  C   UNL     1       2.373   6.630  19.179  0.00  0.00    +0.000 A 
ATOM      5  C   UNL     1       2.348   7.789  18.420  0.00  0.00    +0.000 A 
ATOM      6  C   UNL     1       1.703   8.936  18.927  0.00  0.00    +0.000 A 
ATOM      7  C   UNL     1       1.107   8.880  20.204  0.00  0.00    +0.000 A 
ATOM      8  C   UNL     1       1.127   7.699  20.955  0.00  0.00    +0.000 A 
ATOM      9  C   UNL     1       1.778   6.604  20.428  0.00  0.00    +0.000 A 
ATOM     10  O   UNL     1       1.899   5.396  21.061  0.00  0.00    +0.000 OA
ATOM     11  C   UNL     1       2.956   4.730  20.310  0.00  0.00    +0.000 C 
ATOM     12  C   UNL     1       2.834   3.199  20.420  0.00  0.00    +0.000 C 
ATOM     13  O   UNL     1       1.922   2.631  19.473  0.00  0.00    +0.000 OA
ENDROOT
BRANCH   6  14
ATOM     14  N   UNL     1       1.636  10.160  18.211  0.00  0.00    +0.000 N 
ATOM     15  C   UNL     1       1.524  11.397  18.811  0.00  0.00    +0.000 C 
ATOM     16  O   UNL     1       1.576  11.572  20.030  0.00  0.00    +0.000 OA
ATOM     17  N   UNL     1       1.321  12.440  17.905  0.00  0.00    +0.000 N 
ATOM     18  H   UNL     1       1.977  10.162  17.259  0.00  0.00    +0.000 HD
ATOM     19  H   UNL     1       0.725  12.186  17.131  0.00  0.00    +0.000 HD
BRANCH  17  20
ATOM     20  C   UNL     1       1.128  13.737  18.450  0.00  0.00    +0.000 A 
ATOM     21  C   UNL     1      -0.164  14.192  18.738  0.00  0.00    +0.000 A 
ATOM     22  C   UNL     1      -0.399  15.541  18.997  0.00  0.00    +0.000 A 
ATOM     23  C   UNL     1       0.660  16.458  18.978  0.00  0.00    +0.000 A 
ATOM     24  C   UNL     1       1.969  15.973  18.801  0.00  0.00    +0.000 A 
ATOM     25  C   UNL     1       2.207  14.612  18.559  0.00  0.00    +0.000 A 
BRANCH  23  26
ATOM     26  C   UNL     1       0.392  17.940  19.080  0.00  0.00    +0.000 C 
ATOM     27  F   UNL     1      -0.926  18.249  19.238  0.00  0.00    +0.000 F 
ATOM     28  F   UNL     1       1.038  18.520  20.129  0.00  0.00    +0.000 F 
ATOM     29  F   UNL     1       0.800  18.620  17.971  0.00  0.00    +0.000 F 
ENDBRANCH  23  26
ENDBRANCH  17  20
ENDBRANCH   6  14
BRANCH   1  30
ATOM     30  C   UNL     1       3.554   2.369  17.668  0.00  0.00    +0.000 C 
BRANCH  30  32
ATOM     31  O   UNL     1       4.426   3.920  16.021  0.00  0.00    +0.000 OA
ATOM     32  C   UNL     1       4.518   3.381  17.108  0.00  0.00    +0.000 C 
BRANCH  32  33
ATOM     33  O   UNL     1       5.529   3.649  17.969  0.00  0.00    +0.000 OA
ATOM     34  H   UNL     1       5.828   2.886  18.496  0.00  0.00    +0.000 HD
ENDBRANCH  32  33
ENDBRANCH  30  32
ENDBRANCH   1  30
BRANCH  12  35
ATOM     35  C   UNL     1       2.424   2.763  21.834  0.00  0.00    +0.000 C 
BRANCH  35  36
ATOM     36  O   UNL     1       1.009   2.603  21.921  0.00  0.00    +0.000 OA
ATOM     37  H   UNL     1       0.664   3.391  22.380  0.00  0.00    +0.000 HD
ENDBRANCH  35  36
ENDBRANCH  12  35
TORSDOF 8
ENDMDL
MODEL 5
REMARK VINA RESULT:      -7.5      5.831     10.431
REMARK  Name = 
REMARK  8 active torsions:
REMARK  status: ('A' for Active; 'I' for Inactive)
REMARK    1  A    between atoms: C_2  and  O_3
REMARK    2  A    between atoms: C_2  and  C_4
REMARK    3  A    between atoms: C_4  and  C_5
REMARK    4  A    between atoms: C_10  and  N_11
REMARK    5  A    between atoms: N_14  and  C_15
REMARK    6  A    between atoms: C_18  and  C_19
REMARK    7  A    between atoms: C_30  and  C_31
REMARK    8  A    between atoms: C_31  and  O_32
REMARK                            x       y       z     vdW  Elec       q    Type
REMARK                         _______ _______ _______ _____ _____    ______ ____
ROOT
ATOM      1  C   UNL     1       1.952  14.568  19.900  0.00  0.00    +0.000 C 
ATOM      2  C   UNL     1       2.055  13.064  20.165  0.00  0.00    +0.000 C 
ATOM      3  C   UNL     1       0.880  12.278  19.585  0.00  0.00    +0.000 C 
ATOM      4  C   UNL     1       0.621  11.006  20.325  0.00  0.00    +0.000 A 
ATOM      5  C   UNL     1       1.286   9.791  20.289  0.00  0.00    +0.000 A 
ATOM      6  C   UNL     1       0.865   8.745  21.137  0.00  0.00    +0.000 A 
ATOM      7  C   UNL     1      -0.233   8.958  21.995  0.00  0.00    +0.000 A 
ATOM      8  C   UNL     1      -0.888  10.194  22.031  0.00  0.00    +0.000 A 
ATOM      9  C   UNL     1      -0.453  11.186  21.178  0.00  0.00    +0.000 A 
ATOM     10  O   UNL     1      -1.015  12.431  21.087  0.00  0.00    +0.000 OA
ATOM     11  C   UNL     1      -0.484  12.946  19.832  0.00  0.00    +0.000 C 
ATOM     12  C   UNL     1      -0.461  14.485  19.829  0.00  0.00    +0.000 C 
ATOM     13  O   UNL     1       0.707  15.038  20.448  0.00  0.00    +0.000 OA
ENDROOT
BRANCH   6  14
ATOM     14  N   UNL     1       1.494   7.473  21.158  0.00  0.00    +0.000 N 
ATOM     15  C   UNL     1       2.305   6.999  20.148  0.00  0.00    +0.000 C 
ATOM     16  O   UNL     1       2.649   7.673  19.176  0.00  0.00    +0.000 OA
ATOM     17  N   UNL     1       2.687   5.667  20.318  0.00  0.00    +0.000 N 
ATOM     18  H   UNL     1       1.600   7.021  22.057  0.00  0.00    +0.000 HD
ATOM     19  H   UNL     1       1.957   5.089  20.707  0.00  0.00    +0.000 HD
BRANCH  17  20
ATOM     20  C   UNL     1       3.469   5.085  19.284  0.00  0.00    +0.000 A 
ATOM     21  C   UNL     1       4.864   5.206  19.308  0.00  0.00    +0.000 A 
ATOM     22  C   UNL     1       5.620   4.900  18.178  0.00  0.00    +0.000 A 
ATOM     23  C   UNL     1       4.991   4.461  17.006  0.00  0.00    +0.000 A 
ATOM     24  C   UNL     1       3.603   4.235  17.029  0.00  0.00    +0.000 A 
ATOM     25  C   UNL     1       2.845   4.525  18.172  0.00  0.00    +0.000 A 
BRANCH  23  26
ATOM     26  C   UNL     1       5.780   4.298  15.729  0.00  0.00    +0.000 C 
ATOM     27  F   UNL     1       7.011   4.883  15.766  0.00  0.00    +0.000 F 
ATOM     28  F   UNL     1       5.998   2.993  15.408  0.00  0.00    +0.000 F 
ATOM     29  F   UNL     1       5.145   4.845  14.653  0.00  0.00    +0.000 F 
ENDBRANCH  23  26
ENDBRANCH  17  20
ENDBRANCH   6  14
BRANCH   1  30
ATOM     30  C   UNL     1       2.102  15.016  18.438  0.00  0.00    +0.000 C 
BRANCH  30  32
ATOM     31  O   UNL     1       3.292  17.116  18.211  0.00  0.00    +0.000 OA
ATOM     32  C   UNL     1       2.241  16.505  18.264  0.00  0.00    +0.000 C 
BRANCH  32  33
ATOM     33  O   UNL     1       1.038  17.119  18.159  0.00  0.00    +0.000 OA
ATOM     34  H   UNL     1       0.315  16.545  17.848  0.00  0.00    +0.000 HD
ENDBRANCH  32  33
ENDBRANCH  30  32
ENDBRANCH   1  30
BRANCH  12  35
ATOM     35  C   UNL     1      -1.709  15.073  20.502  0.00  0.00    +0.000 C 
BRANCH  35  36
ATOM     36  O   UNL     1      -2.179  16.213  19.786  0.00  0.00    +0.000 OA
ATOM     37  H   UNL     1      -3.037  16.458  20.177  0.00  0.00    +0.000 HD
ENDBRANCH  35  36
ENDBRANCH  12  35
TORSDOF 8
ENDMDL
MODEL 6
REMARK VINA RESULT:      -7.5      3.494      4.125
REMARK  Name = 
REMARK  8 active torsions:
REMARK  status: ('A' for Active; 'I' for Inactive)
REMARK    1  A    between atoms: C_2  and  O_3
REMARK    2  A    between atoms: C_2  and  C_4
REMARK    3  A    between atoms: C_4  and  C_5
REMARK    4  A    between atoms: C_10  and  N_11
REMARK    5  A    between atoms: N_14  and  C_15
REMARK    6  A    between atoms: C_18  and  C_19
REMARK    7  A    between atoms: C_30  and  C_31
REMARK    8  A    between atoms: C_31  and  O_32
REMARK                            x       y       z     vdW  Elec       q    Type
REMARK                         _______ _______ _______ _____ _____    ______ ____
ROOT
ATOM      1  C   UNL     1       4.797   3.990  16.495  0.00  0.00    +0.000 C 
ATOM      2  C   UNL     1       4.127   5.364  16.581  0.00  0.00    +0.000 C 
ATOM      3  C   UNL     1       4.495   6.124  17.854  0.00  0.00    +0.000 C 
ATOM      4  C   UNL     1       3.441   7.100  18.264  0.00  0.00    +0.000 A 
ATOM      5  C   UNL     1       3.125   8.352  17.759  0.00  0.00    +0.000 A 
ATOM      6  C   UNL     1       2.033   9.062  18.299  0.00  0.00    +0.000 A 
ATOM      7  C   UNL     1       1.291   8.484  19.351  0.00  0.00    +0.000 A 
ATOM      8  C   UNL     1       1.612   7.214  19.843  0.00  0.00    +0.000 A 
ATOM      9  C   UNL     1       2.694   6.558  19.295  0.00  0.00    +0.000 A 
ATOM     10  O   UNL     1       3.137   5.326  19.695  0.00  0.00    +0.000 OA
ATOM     11  C   UNL     1       4.473   5.247  19.119  0.00  0.00    +0.000 C 
ATOM     12  C   UNL     1       4.898   3.785  18.900  0.00  0.00    +0.000 C 
ATOM     13  O   UNL     1       4.428   3.234  17.664  0.00  0.00    +0.000 OA
ENDROOT
BRANCH   6  14
ATOM     14  N   UNL     1       1.648  10.348  17.837  0.00  0.00    +0.000 N 
ATOM     15  C   UNL     1       1.354  11.408  18.669  0.00  0.00    +0.000 C 
ATOM     16  O   UNL     1       1.498  11.375  19.893  0.00  0.00    +0.000 OA
ATOM     17  N   UNL     1       0.854  12.523  17.996  0.00  0.00    +0.000 N 
ATOM     18  H   UNL     1       1.880  10.588  16.883  0.00  0.00    +0.000 HD
ATOM     19  H   UNL     1       0.243  12.285  17.228  0.00  0.00    +0.000 HD
BRANCH  17  20
ATOM     20  C   UNL     1       0.464  13.634  18.791  0.00  0.00    +0.000 A 
ATOM     21  C   UNL     1       1.373  14.669  19.043  0.00  0.00    +0.000 A 
ATOM     22  C   UNL     1       1.115  15.610  20.038  0.00  0.00    +0.000 A 
ATOM     23  C   UNL     1      -0.061  15.533  20.794  0.00  0.00    +0.000 A 
ATOM     24  C   UNL     1      -1.018  14.559  20.457  0.00  0.00    +0.000 A 
ATOM     25  C   UNL     1      -0.767  13.624  19.443  0.00  0.00    +0.000 A 
BRANCH  23  26
ATOM     26  C   UNL     1      -0.265  16.437  21.987  0.00  0.00    +0.000 C 
ATOM     27  F   UNL     1      -0.540  15.767  23.142  0.00  0.00    +0.000 F 
ATOM     28  F   UNL     1       0.825  17.207  22.255  0.00  0.00    +0.000 F 
ATOM     29  F   UNL     1      -1.300  17.306  21.810  0.00  0.00    +0.000 F 
ENDBRANCH  23  26
ENDBRANCH  17  20
ENDBRANCH   6  14
BRANCH   1  30
ATOM     30  C   UNL     1       6.322   3.985  16.309  0.00  0.00    +0.000 C 
BRANCH  30  32
ATOM     31  O   UNL     1       7.430   5.361  14.648  0.00  0.00    +0.000 OA
ATOM     32  C   UNL     1       6.772   4.376  14.926  0.00  0.00    +0.000 C 
BRANCH  32  33
ATOM     33  O   UNL     1       6.367   3.485  13.990  0.00  0.00    +0.000 OA
ATOM     34  H   UNL     1       5.611   3.778  13.449  0.00  0.00    +0.000 HD
ENDBRANCH  32  33
ENDBRANCH  30  32
ENDBRANCH   1  30
BRANCH  12  35
ATOM     35  C   UNL     1       4.442   2.882  20.055  0.00  0.00    +0.000 C 
BRANCH  35  36
ATOM     36  O   UNL     1       5.154   1.646  20.042  0.00  0.00    +0.000 OA
ATOM     37  H   UNL     1       5.927   1.761  20.623  0.00  0.00    +0.000 HD
ENDBRANCH  35  36
ENDBRANCH  12  35
TORSDOF 8
ENDMDL
MODEL 7
REMARK VINA RESULT:      -7.5      3.329      3.824
REMARK  Name = 
REMARK  8 active torsions:
REMARK  status: ('A' for Active; 'I' for Inactive)
REMARK    1  A    between atoms: C_2  and  O_3
REMARK    2  A    between atoms: C_2  and  C_4
REMARK    3  A    between atoms: C_4  and  C_5
REMARK    4  A    between atoms: C_10  and  N_11
REMARK    5  A    between atoms: N_14  and  C_15
REMARK    6  A    between atoms: C_18  and  C_19
REMARK    7  A    between atoms: C_30  and  C_31
REMARK    8  A    between atoms: C_31  and  O_32
REMARK                            x       y       z     vdW  Elec       q    Type
REMARK                         _______ _______ _______ _____ _____    ______ ____
ROOT
ATOM      1  C   UNL     1       4.684   4.926  16.342  0.00  0.00    +0.000 C 
ATOM      2  C   UNL     1       3.991   5.941  17.254  0.00  0.00    +0.000 C 
ATOM      3  C   UNL     1       4.118   5.591  18.736  0.00  0.00    +0.000 C 
ATOM      4  C   UNL     1       2.995   6.141  19.553  0.00  0.00    +0.000 A 
ATOM      5  C   UNL     1       2.757   7.428  20.008  0.00  0.00    +0.000 A 
ATOM      6  C   UNL     1       1.577   7.701  20.730  0.00  0.00    +0.000 A 
ATOM      7  C   UNL     1       0.669   6.652  20.982  0.00  0.00    +0.000 A 
ATOM      8  C   UNL     1       0.913   5.359  20.505  0.00  0.00    +0.000 A 
ATOM      9  C   UNL     1       2.085   5.132  19.814  0.00  0.00    +0.000 A 
ATOM     10  O   UNL     1       2.465   3.916  19.314  0.00  0.00    +0.000 OA
ATOM     11  C   UNL     1       3.883   4.099  19.034  0.00  0.00    +0.000 C 
ATOM     12  C   UNL     1       4.360   3.136  17.931  0.00  0.00    +0.000 C 
ATOM     13  O   UNL     1       4.124   3.626  16.606  0.00  0.00    +0.000 OA
ENDROOT
BRANCH   6  14
ATOM     14  N   UNL     1       1.263   8.992  21.230  0.00  0.00    +0.000 N 
ATOM     15  C   UNL     1       0.801  10.028  20.445  0.00  0.00    +0.000 C 
ATOM     16  O   UNL     1       0.515   9.907  19.253  0.00  0.00    +0.000 OA
ATOM     17  N   UNL     1       0.707  11.244  21.126  0.00  0.00    +0.000 N 
ATOM     18  H   UNL     1       1.085   9.077  22.222  0.00  0.00    +0.000 HD
ATOM     19  H   UNL     1       1.457  11.391  21.786  0.00  0.00    +0.000 HD
BRANCH  17  20
ATOM     20  C   UNL     1       0.302  12.376  20.369  0.00  0.00    +0.000 A 
ATOM     21  C   UNL     1       1.223  13.033  19.544  0.00  0.00    +0.000 A 
ATOM     22  C   UNL     1       0.933  14.294  19.024  0.00  0.00    +0.000 A 
ATOM     23  C   UNL     1      -0.287  14.914  19.318  0.00  0.00    +0.000 A 
ATOM     24  C   UNL     1      -1.249  14.198  20.053  0.00  0.00    +0.000 A 
ATOM     25  C   UNL     1      -0.965  12.922  20.560  0.00  0.00    +0.000 A 
BRANCH  23  26
ATOM     26  C   UNL     1      -0.535  16.347  18.909  0.00  0.00    +0.000 C 
ATOM     27  F   UNL     1      -0.525  16.541  17.559  0.00  0.00    +0.000 F 
ATOM     28  F   UNL     1      -1.737  16.816  19.343  0.00  0.00    +0.000 F 
ATOM     29  F   UNL     1       0.402  17.200  19.411  0.00  0.00    +0.000 F 
ENDBRANCH  23  26
ENDBRANCH  17  20
ENDBRANCH   6  14
BRANCH   1  30
ATOM     30  C   UNL     1       6.218   4.877  16.415  0.00  0.00    +0.000 C 
BRANCH  30  32
ATOM     31  O   UNL     1       7.785   5.273  14.608  0.00  0.00    +0.000 OA
ATOM     32  C   UNL     1       6.887   4.611  15.093  0.00  0.00    +0.000 C 
BRANCH  32  33
ATOM     33  O   UNL     1       6.379   3.515  14.478  0.00  0.00    +0.000 OA
ATOM     34  H   UNL     1       6.963   2.736  14.488  0.00  0.00    +0.000 HD
ENDBRANCH  32  33
ENDBRANCH  30  32
ENDBRANCH   1  30
BRANCH  12  35
ATOM     35  C   UNL     1       3.718   1.749  18.073  0.00  0.00    +0.000 C 
BRANCH  35  36
ATOM     36  O   UNL     1       2.380   1.759  17.581  0.00  0.00    +0.000 OA
ATOM     37  H   UNL     1       1.795   1.655  18.354  0.00  0.00    +0.000 HD
ENDBRANCH  35  36
ENDBRANCH  12  35
TORSDOF 8
ENDMDL
MODEL 8
REMARK VINA RESULT:      -7.5      7.607      9.718
REMARK  Name = 
REMARK  8 active torsions:
REMARK  status: ('A' for Active; 'I' for Inactive)
REMARK    1  A    between atoms: C_2  and  O_3
REMARK    2  A    between atoms: C_2  and  C_4
REMARK    3  A    between atoms: C_4  and  C_5
REMARK    4  A    between atoms: C_10  and  N_11
REMARK    5  A    between atoms: N_14  and  C_15
REMARK    6  A    between atoms: C_18  and  C_19
REMARK    7  A    between atoms: C_30  and  C_31
REMARK    8  A    between atoms: C_31  and  O_32
REMARK                            x       y       z     vdW  Elec       q    Type
REMARK                         _______ _______ _______ _____ _____    ______ ____
ROOT
ATOM      1  C   UNL     1       2.343   4.890  19.079  0.00  0.00    +0.000 C 
ATOM      2  C   UNL     1       3.419   5.903  18.682  0.00  0.00    +0.000 C 
ATOM      3  C   UNL     1       4.580   5.266  17.919  0.00  0.00    +0.000 C 
ATOM      4  C   UNL     1       5.856   6.028  18.077  0.00  0.00    +0.000 A 
ATOM      5  C   UNL     1       6.281   7.207  17.485  0.00  0.00    +0.000 A 
ATOM      6  C   UNL     1       7.530   7.753  17.848  0.00  0.00    +0.000 A 
ATOM      7  C   UNL     1       8.323   7.079  18.799  0.00  0.00    +0.000 A 
ATOM      8  C   UNL     1       7.877   5.896  19.399  0.00  0.00    +0.000 A 
ATOM      9  C   UNL     1       6.656   5.389  19.008  0.00  0.00    +0.000 A 
ATOM     10  O   UNL     1       6.108   4.231  19.489  0.00  0.00    +0.000 OA
ATOM     11  C   UNL     1       5.054   3.934  18.528  0.00  0.00    +0.000 C 
ATOM     12  C   UNL     1       3.942   3.082  19.166  0.00  0.00    +0.000 C 
ATOM     13  O   UNL     1       2.963   3.858  19.868  0.00  0.00    +0.000 OA
ENDROOT
BRANCH   6  14
ATOM     14  N   UNL     1       8.034   8.955  17.287  0.00  0.00    +0.000 N 
ATOM     15  C   UNL     1       8.550   9.994  18.033  0.00  0.00    +0.000 C 
ATOM     16  O   UNL     1       8.721   9.941  19.252  0.00  0.00    +0.000 OA
ATOM     17  N   UNL     1       8.843  11.131  17.278  0.00  0.00    +0.000 N 
ATOM     18  H   UNL     1       8.302   8.938  16.312  0.00  0.00    +0.000 HD
ATOM     19  H   UNL     1       8.173  11.306  16.544  0.00  0.00    +0.000 HD
BRANCH  17  20
ATOM     20  C   UNL     1       9.316  12.269  17.985  0.00  0.00    +0.000 A 
ATOM     21  C   UNL     1      10.624  12.291  18.483  0.00  0.00    +0.000 A 
ATOM     22  C   UNL     1      11.012  13.256  19.412  0.00  0.00    +0.000 A 
ATOM     23  C   UNL     1      10.096  14.220  19.852  0.00  0.00    +0.000 A 
ATOM     24  C   UNL     1       8.820  14.258  19.260  0.00  0.00    +0.000 A 
ATOM     25  C   UNL     1       8.436  13.299  18.312  0.00  0.00    +0.000 A 
BRANCH  23  26
ATOM     26  C   UNL     1      10.452  15.154  20.983  0.00  0.00    +0.000 C 
ATOM     27  F   UNL     1      11.749  15.572  20.962  0.00  0.00    +0.000 F 
ATOM     28  F   UNL     1       9.696  16.286  20.987  0.00  0.00    +0.000 F 
ATOM     29  F   UNL     1      10.270  14.581  22.207  0.00  0.00    +0.000 F 
ENDBRANCH  23  26
ENDBRANCH  17  20
ENDBRANCH   6  14
BRANCH   1  30
ATOM     30  C   UNL     1       1.527   4.275  17.932  0.00  0.00    +0.000 C 
BRANCH  30  32
ATOM     31  O   UNL     1       0.194   2.496  18.898  0.00  0.00    +0.000 OA
ATOM     32  C   UNL     1       1.105   2.850  18.174  0.00  0.00    +0.000 C 
BRANCH  32  33
ATOM     33  O   UNL     1       1.860   1.971  17.474  0.00  0.00    +0.000 OA
ATOM     34  H   UNL     1       2.680   2.344  17.101  0.00  0.00    +0.000 HD
ENDBRANCH  32  33
ENDBRANCH  30  32
ENDBRANCH   1  30
BRANCH  12  35
ATOM     35  C   UNL     1       4.516   2.022  20.118  0.00  0.00    +0.000 C 
BRANCH  35  36
ATOM     36  O   UNL     1       3.857   2.069  21.382  0.00  0.00    +0.000 OA
ATOM     37  H   UNL     1       4.266   2.796  21.886  0.00  0.00    +0.000 HD
ENDBRANCH  35  36
ENDBRANCH  12  35
TORSDOF 8
ENDMDL
MODEL 9
REMARK VINA RESULT:      -7.5      5.642     10.934
REMARK  Name = 
REMARK  8 active torsions:
REMARK  status: ('A' for Active; 'I' for Inactive)
REMARK    1  A    between atoms: C_2  and  O_3
REMARK    2  A    between atoms: C_2  and  C_4
REMARK    3  A    between atoms: C_4  and  C_5
REMARK    4  A    between atoms: C_10  and  N_11
REMARK    5  A    between atoms: N_14  and  C_15
REMARK    6  A    between atoms: C_18  and  C_19
REMARK    7  A    between atoms: C_30  and  C_31
REMARK    8  A    between atoms: C_31  and  O_32
REMARK                            x       y       z     vdW  Elec       q    Type
REMARK                         _______ _______ _______ _____ _____    ______ ____
ROOT
ATOM      1  C   UNL     1      -2.870  13.029  22.105  0.00  0.00    +0.000 C 
ATOM      2  C   UNL     1      -1.973  12.195  21.188  0.00  0.00    +0.000 C 
ATOM      3  C   UNL     1      -0.511  12.192  21.630  0.00  0.00    +0.000 C 
ATOM      4  C   UNL     1       0.431  11.958  20.494  0.00  0.00    +0.000 A 
ATOM      5  C   UNL     1       0.764  10.791  19.825  0.00  0.00    +0.000 A 
ATOM      6  C   UNL     1       1.658  10.848  18.735  0.00  0.00    +0.000 A 
ATOM      7  C   UNL     1       2.202  12.093  18.358  0.00  0.00    +0.000 A 
ATOM      8  C   UNL     1       1.847  13.266  19.034  0.00  0.00    +0.000 A 
ATOM      9  C   UNL     1       0.980  13.166  20.101  0.00  0.00    +0.000 A 
ATOM     10  O   UNL     1       0.568  14.223  20.866  0.00  0.00    +0.000 OA
ATOM     11  C   UNL     1       0.005  13.582  22.047  0.00  0.00    +0.000 C 
ATOM     12  C   UNL     1      -1.043  14.484  22.723  0.00  0.00    +0.000 C 
ATOM     13  O   UNL     1      -2.349  14.372  22.146  0.00  0.00    +0.000 OA
ENDROOT
BRANCH   6  14
ATOM     14  N   UNL     1       2.048   9.697  18.000  0.00  0.00    +0.000 N 
ATOM     15  C   UNL     1       2.087   8.424  18.530  0.00  0.00    +0.000 C 
ATOM     16  O   UNL     1       1.689   8.142  19.661  0.00  0.00    +0.000 OA
ATOM     17  N   UNL     1       2.646   7.479  17.668  0.00  0.00    +0.000 N 
ATOM     18  H   UNL     1       2.009   9.754  16.991  0.00  0.00    +0.000 HD
ATOM     19  H   UNL     1       3.420   7.839  17.129  0.00  0.00    +0.000 HD
BRANCH  17  20
ATOM     20  C   UNL     1       2.784   6.156  18.165  0.00  0.00    +0.000 A 
ATOM     21  C   UNL     1       4.004   5.735  18.707  0.00  0.00    +0.000 A 
ATOM     22  C   UNL     1       4.249   4.381  18.933  0.00  0.00    +0.000 A 
ATOM     23  C   UNL     1       3.271   3.427  18.625  0.00  0.00    +0.000 A 
ATOM     24  C   UNL     1       2.010   3.870  18.188  0.00  0.00    +0.000 A 
ATOM     25  C   UNL     1       1.757   5.233  17.979  0.00  0.00    +0.000 A 
BRANCH  23  26
ATOM     26  C   UNL     1       3.591   1.953  18.698  0.00  0.00    +0.000 C 
ATOM     27  F   UNL     1       4.034   1.428  17.521  0.00  0.00    +0.000 F 
ATOM     28  F   UNL     1       4.553   1.669  19.618  0.00  0.00    +0.000 F 
ATOM     29  F   UNL     1       2.507   1.203  19.050  0.00  0.00    +0.000 F 
ENDBRANCH  23  26
ENDBRANCH  17  20
ENDBRANCH   6  14
BRANCH   1  30
ATOM     30  C   UNL     1      -3.082  12.490  23.528  0.00  0.00    +0.000 C 
BRANCH  30  32
ATOM     31  O   UNL     1      -4.972  13.915  24.055  0.00  0.00    +0.000 OA
ATOM     32  C   UNL     1      -4.425  12.830  24.118  0.00  0.00    +0.000 C 
BRANCH  32  33
ATOM     33  O   UNL     1      -4.989  11.766  24.740  0.00  0.00    +0.000 OA
ATOM     34  H   UNL     1      -5.873  11.523  24.408  0.00  0.00    +0.000 HD
ENDBRANCH  32  33
ENDBRANCH  30  32
ENDBRANCH   1  30
BRANCH  12  35
ATOM     35  C   UNL     1      -0.615  15.959  22.708  0.00  0.00    +0.000 C 
BRANCH  35  36
ATOM     36  O   UNL     1       0.426  16.192  23.654  0.00  0.00    +0.000 OA
ATOM     37  H   UNL     1       0.061  16.785  24.335  0.00  0.00    +0.000 HD
ENDBRANCH  35  36
ENDBRANCH  12  35
TORSDOF 8
ENDMDL
