MODEL 1
REMARK VINA RESULT:      -7.5      0.000      0.000
REMARK  Name = 
REMARK  9 active torsions:
REMARK  status: ('A' for Active; 'I' for Inactive)
REMARK    1  A    between atoms: C_1  and  O_2
REMARK    2  A    between atoms: O_2  and  C_3
REMARK    3  A    between atoms: C_3  and  C_4
REMARK    4  A    between atoms: C_4  and  N_5
REMARK    5  A    between atoms: C_13  and  C_14
REMARK    6  A    between atoms: C_14  and  O_16
REMARK    7  A    between atoms: O_16  and  C_17
REMARK    8  A    between atoms: C_18  and  C_19
REMARK    9  A    between atoms: C_22  and  C_23
REMARK                            x       y       z     vdW  Elec       q    Type
REMARK                         _______ _______ _______ _____ _____    ______ ____
ROOT
ATOM      1  N   UNL     1      -1.438  15.447  19.645  0.00  0.00    +0.000 N 
ATOM      2  C   UNL     1      -0.658  14.855  20.610  0.00  0.00    +0.000 C 
ATOM      3  O   UNL     1       0.342  15.395  21.076  0.00  0.00    +0.000 OA
ATOM      4  N   UNL     1      -1.102  13.635  21.039  0.00  0.00    +0.000 N 
ATOM      5  C   UNL     1      -0.494  12.906  22.139  0.00  0.00    +0.000 C 
ATOM      6  C   UNL     1      -1.716  12.195  22.751  0.00  0.00    +0.000 C 
ATOM      7  C   UNL     1      -2.750  12.118  21.607  0.00  0.00    +0.000 C 
ATOM      8  C   UNL     1      -2.023  12.707  20.393  0.00  0.00    +0.000 C 
ATOM      9  C   UNL     1      -1.203  11.600  19.736  0.00  0.00    +0.000 C 
ATOM     10  C   UNL     1      -0.033  11.193  20.308  0.00  0.00    +0.000 C 
ATOM     11  C   UNL     1       0.511  11.888  21.555  0.00  0.00    +0.000 C 
ATOM     12  H   UNL     1      -2.427  15.274  19.762  0.00  0.00    +0.000 HD
ENDROOT
BRANCH  10  13
ATOM     13  C   UNL     1       0.798  10.095  19.805  0.00  0.00    +0.000 A 
ATOM     14  C   UNL     1       1.360  10.174  18.532  0.00  0.00    +0.000 A 
ATOM     15  C   UNL     1       2.032   9.076  17.991  0.00  0.00    +0.000 A 
ATOM     16  C   UNL     1       2.201   7.875  18.713  0.00  0.00    +0.000 A 
ATOM     17  C   UNL     1       1.679   7.853  20.019  0.00  0.00    +0.000 A 
ATOM     18  F   UNL     1       1.820   6.763  20.793  0.00  0.00    +0.000 F 
ATOM     19  C   UNL     1       0.991   8.935  20.562  0.00  0.00    +0.000 A 
BRANCH  16  20
ATOM     20  C   UNL     1       2.853   6.706  18.079  0.00  0.00    +0.000 A 
ATOM     21  C   UNL     1       2.209   5.455  18.018  0.00  0.00    +0.000 A 
ATOM     22  C   UNL     1       2.844   4.328  17.494  0.00  0.00    +0.000 A 
ATOM     23  C   UNL     1       4.138   4.428  16.997  0.00  0.00    +0.000 A 
ATOM     24  C   UNL     1       4.794   5.657  17.020  0.00  0.00    +0.000 A 
ATOM     25  C   UNL     1       4.160   6.778  17.559  0.00  0.00    +0.000 A 
ENDBRANCH  16  20
ENDBRANCH  10  13
BRANCH   9  26
ATOM     26  C   UNL     1      -1.803  10.955  18.527  0.00  0.00    +0.000 C 
ATOM     27  O   UNL     1      -2.202   9.804  18.460  0.00  0.00    +0.000 OA
BRANCH  26  28
ATOM     28  O   UNL     1      -1.867  11.854  17.509  0.00  0.00    +0.000 OA
ATOM     29  C   UNL     1      -2.667  11.468  16.389  0.00  0.00    +0.000 C 
ENDBRANCH  26  28
ENDBRANCH   9  26
BRANCH   1  30
ATOM     30  C   UNL     1      -1.142  16.812  19.228  0.00  0.00    +0.000 C 
BRANCH  30  31
ATOM     31  C   UNL     1      -0.212  16.867  18.012  0.00  0.00    +0.000 C 
BRANCH  31  33
ATOM     32  C   UNL     1       0.492  18.375  16.336  0.00  0.00    +0.000 C 
ATOM     33  O   UNL     1      -0.595  17.949  17.154  0.00  0.00    +0.000 OA
ENDBRANCH  31  33
ENDBRANCH  30  31
ENDBRANCH   1  30
TORSDOF 7
ENDMDL
MODEL 2
REMARK VINA RESULT:      -7.4      0.865      1.273
REMARK  Name = 
REMARK  9 active torsions:
REMARK  status: ('A' for Active; 'I' for Inactive)
REMARK    1  A    between atoms: C_1  and  O_2
REMARK    2  A    between atoms: O_2  and  C_3
REMARK    3  A    between atoms: C_3  and  C_4
REMARK    4  A    between atoms: C_4  and  N_5
REMARK    5  A    between atoms: C_13  and  C_14
REMARK    6  A    between atoms: C_14  and  O_16
REMARK    7  A    between atoms: O_16  and  C_17
REMARK    8  A    between atoms: C_18  and  C_19
REMARK    9  A    between atoms: C_22  and  C_23
REMARK                            x       y       z     vdW  Elec       q    Type
REMARK                         _______ _______ _______ _____ _____    ______ ____
ROOT
ATOM      1  N   UNL     1      -0.464  15.115  18.795  0.00  0.00    +0.000 N 
ATOM      2  C   UNL     1       0.334  14.567  19.770  0.00  0.00    +0.000 C 
ATOM      3  O   UNL     1       1.419  15.049  20.086  0.00  0.00    +0.000 OA
ATOM      4  N   UNL     1      -0.188  13.466  20.389  0.00  0.00    +0.000 N 
ATOM      5  C   UNL     1       0.438  12.818  21.530  0.00  0.00    +0.000 C 
ATOM      6  C   UNL     1      -0.790  12.327  22.319  0.00  0.00    +0.000 C 
ATOM      7  C   UNL     1      -1.922  12.218  21.274  0.00  0.00    +0.000 C 
ATOM      8  C   UNL     1      -1.248  12.569  19.942  0.00  0.00    +0.000 C 
ATOM      9  C   UNL     1      -0.599  11.306  19.381  0.00  0.00    +0.000 C 
ATOM     10  C   UNL     1       0.570  10.850  19.915  0.00  0.00    +0.000 C 
ATOM     11  C   UNL     1       1.285  11.633  21.015  0.00  0.00    +0.000 C 
ATOM     12  H   UNL     1      -1.452  15.065  19.005  0.00  0.00    +0.000 HD
ENDROOT
BRANCH  10  13
ATOM     13  C   UNL     1       1.243   9.614  19.504  0.00  0.00    +0.000 A 
ATOM     14  C   UNL     1       1.773   9.504  18.220  0.00  0.00    +0.000 A 
ATOM     15  C   UNL     1       2.288   8.285  17.774  0.00  0.00    +0.000 A 
ATOM     16  C   UNL     1       2.327   7.144  18.603  0.00  0.00    +0.000 A 
ATOM     17  C   UNL     1       1.844   7.307  19.915  0.00  0.00    +0.000 A 
ATOM     18  F   UNL     1       1.871   6.284  20.786  0.00  0.00    +0.000 F 
ATOM     19  C   UNL     1       1.312   8.513  20.364  0.00  0.00    +0.000 A 
BRANCH  16  20
ATOM     20  C   UNL     1       2.810   5.849  18.072  0.00  0.00    +0.000 A 
ATOM     21  C   UNL     1       4.123   5.706  17.582  0.00  0.00    +0.000 A 
ATOM     22  C   UNL     1       4.566   4.513  17.007  0.00  0.00    +0.000 A 
ATOM     23  C   UNL     1       3.709   3.422  16.926  0.00  0.00    +0.000 A 
ATOM     24  C   UNL     1       2.412   3.523  17.423  0.00  0.00    +0.000 A 
ATOM     25  C   UNL     1       1.969   4.723  17.984  0.00  0.00    +0.000 A 
ENDBRANCH  16  20
ENDBRANCH  10  13
BRANCH   9  26
ATOM     26  C   UNL     1      -1.362  10.583  18.315  0.00  0.00    +0.000 C 
ATOM     27  O   UNL     1      -1.569   9.382  18.281  0.00  0.00    +0.000 OA
BRANCH  26  28
ATOM     28  O   UNL     1      -1.821  11.472  17.395  0.00  0.00    +0.000 OA
ATOM     29  C   UNL     1      -3.220  11.402  17.109  0.00  0.00    +0.000 C 
ENDBRANCH  26  28
ENDBRANCH   9  26
BRANCH   1  30
ATOM     30  C   UNL     1      -0.074  16.376  18.178  0.00  0.00    +0.000 C 
BRANCH  30  31
ATOM     31  C   UNL     1      -1.180  17.433  18.247  0.00  0.00    +0.000 C 
BRANCH  31  33
ATOM     32  C   UNL     1       0.180  18.336  16.539  0.00  0.00    +0.000 C 
ATOM     33  O   UNL     1      -0.758  18.625  17.572  0.00  0.00    +0.000 OA
ENDBRANCH  31  33
ENDBRANCH  30  31
ENDBRANCH   1  30
TORSDOF 7
ENDMDL
MODEL 3
REMARK VINA RESULT:      -7.3      1.018      1.176
REMARK  Name = 
REMARK  9 active torsions:
REMARK  status: ('A' for Active; 'I' for Inactive)
REMARK    1  A    between atoms: C_1  and  O_2
REMARK    2  A    between atoms: O_2  and  C_3
REMARK    3  A    between atoms: C_3  and  C_4
REMARK    4  A    between atoms: C_4  and  N_5
REMARK    5  A    between atoms: C_13  and  C_14
REMARK    6  A    between atoms: C_14  and  O_16
REMARK    7  A    between atoms: O_16  and  C_17
REMARK    8  A    between atoms: C_18  and  C_19
REMARK    9  A    between atoms: C_22  and  C_23
REMARK                            x       y       z     vdW  Elec       q    Type
REMARK                         _______ _______ _______ _____ _____    ______ ____
ROOT
ATOM      1  N   UNL     1      -0.727  15.285  18.943  0.00  0.00    +0.000 N 
ATOM      2  C   UNL     1       0.112  14.744  19.887  0.00  0.00    +0.000 C 
ATOM      3  O   UNL     1       1.202  15.238  20.166  0.00  0.00    +0.000 OA
ATOM      4  N   UNL     1      -0.375  13.634  20.520  0.00  0.00    +0.000 N 
ATOM      5  C   UNL     1       0.300  12.990  21.635  0.00  0.00    +0.000 C 
ATOM      6  C   UNL     1      -0.894  12.481  22.465  0.00  0.00    +0.000 C 
ATOM      7  C   UNL     1      -2.060  12.363  21.461  0.00  0.00    +0.000 C 
ATOM      8  C   UNL     1      -1.439  12.726  20.108  0.00  0.00    +0.000 C 
ATOM      9  C   UNL     1      -0.796  11.474  19.519  0.00  0.00    +0.000 C 
ATOM     10  C   UNL     1       0.397  11.029  20.009  0.00  0.00    +0.000 C 
ATOM     11  C   UNL     1       1.142  11.817  21.086  0.00  0.00    +0.000 C 
ATOM     12  H   UNL     1      -1.706  15.223  19.188  0.00  0.00    +0.000 HD
ENDROOT
BRANCH  10  13
ATOM     13  C   UNL     1       1.069   9.803  19.569  0.00  0.00    +0.000 A 
ATOM     14  C   UNL     1       1.536   9.696  18.260  0.00  0.00    +0.000 A 
ATOM     15  C   UNL     1       2.049   8.484  17.794  0.00  0.00    +0.000 A 
ATOM     16  C   UNL     1       2.148   7.348  18.624  0.00  0.00    +0.000 A 
ATOM     17  C   UNL     1       1.729   7.509  19.957  0.00  0.00    +0.000 A 
ATOM     18  F   UNL     1       1.816   6.490  20.830  0.00  0.00    +0.000 F 
ATOM     19  C   UNL     1       1.199   8.708  20.428  0.00  0.00    +0.000 A 
BRANCH  16  20
ATOM     20  C   UNL     1       2.626   6.058  18.074  0.00  0.00    +0.000 A 
ATOM     21  C   UNL     1       1.791   4.924  18.042  0.00  0.00    +0.000 A 
ATOM     22  C   UNL     1       2.255   3.684  17.599  0.00  0.00    +0.000 A 
ATOM     23  C   UNL     1       3.565   3.552  17.155  0.00  0.00    +0.000 A 
ATOM     24  C   UNL     1       4.409   4.659  17.151  0.00  0.00    +0.000 A 
ATOM     25  C   UNL     1       3.945   5.894  17.609  0.00  0.00    +0.000 A 
ENDBRANCH  16  20
ENDBRANCH  10  13
BRANCH   9  26
ATOM     26  C   UNL     1      -1.588  10.745  18.478  0.00  0.00    +0.000 C 
ATOM     27  O   UNL     1      -1.750   9.538  18.425  0.00  0.00    +0.000 OA
BRANCH  26  28
ATOM     28  O   UNL     1      -2.131  11.636  17.607  0.00  0.00    +0.000 OA
ATOM     29  C   UNL     1      -3.511  11.430  17.289  0.00  0.00    +0.000 C 
ENDBRANCH  26  28
ENDBRANCH   9  26
BRANCH   1  30
ATOM     30  C   UNL     1      -0.374  16.553  18.317  0.00  0.00    +0.000 C 
BRANCH  30  31
ATOM     31  C   UNL     1      -0.601  17.751  19.244  0.00  0.00    +0.000 C 
BRANCH  31  33
ATOM     32  C   UNL     1       1.229  18.627  20.454  0.00  0.00    +0.000 C 
ATOM     33  O   UNL     1       0.539  18.620  19.208  0.00  0.00    +0.000 OA
ENDBRANCH  31  33
ENDBRANCH  30  31
ENDBRANCH   1  30
TORSDOF 7
ENDMDL
MODEL 4
REMARK VINA RESULT:      -7.3      1.055      1.609
REMARK  Name = 
REMARK  9 active torsions:
REMARK  status: ('A' for Active; 'I' for Inactive)
REMARK    1  A    between atoms: C_1  and  O_2
REMARK    2  A    between atoms: O_2  and  C_3
REMARK    3  A    between atoms: C_3  and  C_4
REMARK    4  A    between atoms: C_4  and  N_5
REMARK    5  A    between atoms: C_13  and  C_14
REMARK    6  A    between atoms: C_14  and  O_16
REMARK    7  A    between atoms: O_16  and  C_17
REMARK    8  A    between atoms: C_18  and  C_19
REMARK    9  A    between atoms: C_22  and  C_23
REMARK                            x       y       z     vdW  Elec       q    Type
REMARK                         _______ _______ _______ _____ _____    ______ ____
ROOT
ATOM      1  N   UNL     1      -0.728  15.176  18.830  0.00  0.00    +0.000 N 
ATOM      2  C   UNL     1       0.009  14.615  19.846  0.00  0.00    +0.000 C 
ATOM      3  O   UNL     1       1.049  15.118  20.265  0.00  0.00    +0.000 OA
ATOM      4  N   UNL     1      -0.523  13.475  20.381  0.00  0.00    +0.000 N 
ATOM      5  C   UNL     1       0.034  12.803  21.543  0.00  0.00    +0.000 C 
ATOM      6  C   UNL     1      -1.236  12.243  22.212  0.00  0.00    +0.000 C 
ATOM      7  C   UNL     1      -2.277  12.141  21.077  0.00  0.00    +0.000 C 
ATOM      8  C   UNL     1      -1.513  12.564  19.818  0.00  0.00    +0.000 C 
ATOM      9  C   UNL     1      -0.780  11.345  19.264  0.00  0.00    +0.000 C 
ATOM     10  C   UNL     1       0.358  10.904  19.873  0.00  0.00    +0.000 C 
ATOM     11  C   UNL     1       0.958  11.665  21.055  0.00  0.00    +0.000 C 
ATOM     12  H   UNL     1      -1.726  15.088  18.959  0.00  0.00    +0.000 HD
ENDROOT
BRANCH  10  13
ATOM     13  C   UNL     1       1.103   9.707  19.472  0.00  0.00    +0.000 A 
ATOM     14  C   UNL     1       1.687   9.641  18.208  0.00  0.00    +0.000 A 
ATOM     15  C   UNL     1       2.275   8.454  17.767  0.00  0.00    +0.000 A 
ATOM     16  C   UNL     1       2.333   7.303  18.580  0.00  0.00    +0.000 A 
ATOM     17  C   UNL     1       1.793   7.424  19.874  0.00  0.00    +0.000 A 
ATOM     18  F   UNL     1       1.832   6.389  20.731  0.00  0.00    +0.000 F 
ATOM     19  C   UNL     1       1.188   8.597  20.318  0.00  0.00    +0.000 A 
BRANCH  16  20
ATOM     20  C   UNL     1       2.896   6.039  18.051  0.00  0.00    +0.000 A 
ATOM     21  C   UNL     1       4.234   5.962  17.619  0.00  0.00    +0.000 A 
ATOM     22  C   UNL     1       4.754   4.799  17.046  0.00  0.00    +0.000 A 
ATOM     23  C   UNL     1       3.949   3.674  16.908  0.00  0.00    +0.000 A 
ATOM     24  C   UNL     1       2.628   3.710  17.348  0.00  0.00    +0.000 A 
ATOM     25  C   UNL     1       2.109   4.880  17.907  0.00  0.00    +0.000 A 
ENDBRANCH  16  20
ENDBRANCH  10  13
BRANCH   9  26
ATOM     26  C   UNL     1      -1.432  10.641  18.115  0.00  0.00    +0.000 C 
ATOM     27  O   UNL     1      -1.203  10.846  16.935  0.00  0.00    +0.000 OA
BRANCH  26  28
ATOM     28  O   UNL     1      -2.305   9.710  18.581  0.00  0.00    +0.000 OA
ATOM     29  C   UNL     1      -3.495   9.532  17.808  0.00  0.00    +0.000 C 
ENDBRANCH  26  28
ENDBRANCH   9  26
BRANCH   1  30
ATOM     30  C   UNL     1      -0.332  16.472  18.294  0.00  0.00    +0.000 C 
BRANCH  30  31
ATOM     31  C   UNL     1      -1.336  17.579  18.628  0.00  0.00    +0.000 C 
BRANCH  31  33
ATOM     32  C   UNL     1      -0.442  18.237  20.713  0.00  0.00    +0.000 C 
ATOM     33  O   UNL     1      -0.684  18.623  19.363  0.00  0.00    +0.000 OA
ENDBRANCH  31  33
ENDBRANCH  30  31
ENDBRANCH   1  30
TORSDOF 7
ENDMDL
MODEL 5
REMARK VINA RESULT:      -7.0      1.301      1.728
REMARK  Name = 
REMARK  9 active torsions:
REMARK  status: ('A' for Active; 'I' for Inactive)
REMARK    1  A    between atoms: C_1  and  O_2
REMARK    2  A    between atoms: O_2  and  C_3
REMARK    3  A    between atoms: C_3  and  C_4
REMARK    4  A    between atoms: C_4  and  N_5
REMARK    5  A    between atoms: C_13  and  C_14
REMARK    6  A    between atoms: C_14  and  O_16
REMARK    7  A    between atoms: O_16  and  C_17
REMARK    8  A    between atoms: C_18  and  C_19
REMARK    9  A    between atoms: C_22  and  C_23
REMARK                            x       y       z     vdW  Elec       q    Type
REMARK                         _______ _______ _______ _____ _____    ______ ____
ROOT
ATOM      1  N   UNL     1      -0.678  15.340  18.828  0.00  0.00    +0.000 N 
ATOM      2  C   UNL     1       0.085  14.783  19.826  0.00  0.00    +0.000 C 
ATOM      3  O   UNL     1       1.179  15.235  20.155  0.00  0.00    +0.000 OA
ATOM      4  N   UNL     1      -0.484  13.710  20.454  0.00  0.00    +0.000 N 
ATOM      5  C   UNL     1       0.100  13.062  21.616  0.00  0.00    +0.000 C 
ATOM      6  C   UNL     1      -1.158  12.624  22.391  0.00  0.00    +0.000 C 
ATOM      7  C   UNL     1      -2.273  12.535  21.327  0.00  0.00    +0.000 C 
ATOM      8  C   UNL     1      -1.565  12.840  20.003  0.00  0.00    +0.000 C 
ATOM      9  C   UNL     1      -0.948  11.548  19.474  0.00  0.00    +0.000 C 
ATOM     10  C   UNL     1       0.196  11.063  20.037  0.00  0.00    +0.000 C 
ATOM     11  C   UNL     1       0.917  11.841  21.137  0.00  0.00    +0.000 C 
ATOM     12  H   UNL     1      -1.670  15.326  19.021  0.00  0.00    +0.000 HD
ENDROOT
BRANCH  10  13
ATOM     13  C   UNL     1       0.835   9.799  19.659  0.00  0.00    +0.000 A 
ATOM     14  C   UNL     1       0.927   8.761  20.584  0.00  0.00    +0.000 A 
ATOM     15  C   UNL     1       1.657   7.611  20.280  0.00  0.00    +0.000 A 
ATOM     16  C   UNL     1       2.291   7.438  19.031  0.00  0.00    +0.000 A 
ATOM     17  C   UNL     1       2.124   8.476  18.097  0.00  0.00    +0.000 A 
ATOM     18  F   UNL     1       2.664   8.385  16.869  0.00  0.00    +0.000 F 
ATOM     19  C   UNL     1       1.413   9.636  18.396  0.00  0.00    +0.000 A 
BRANCH  16  20
ATOM     20  C   UNL     1       3.120   6.238  18.772  0.00  0.00    +0.000 A 
ATOM     21  C   UNL     1       2.611   4.942  18.980  0.00  0.00    +0.000 A 
ATOM     22  C   UNL     1       3.406   3.806  18.814  0.00  0.00    +0.000 A 
ATOM     23  C   UNL     1       4.731   3.939  18.415  0.00  0.00    +0.000 A 
ATOM     24  C   UNL     1       5.258   5.206  18.178  0.00  0.00    +0.000 A 
ATOM     25  C   UNL     1       4.462   6.340  18.360  0.00  0.00    +0.000 A 
ENDBRANCH  16  20
ENDBRANCH  10  13
BRANCH   9  26
ATOM     26  C   UNL     1      -1.715  10.832  18.406  0.00  0.00    +0.000 C 
ATOM     27  O   UNL     1      -2.222   9.728  18.515  0.00  0.00    +0.000 OA
BRANCH  26  28
ATOM     28  O   UNL     1      -1.793  11.611  17.295  0.00  0.00    +0.000 OA
ATOM     29  C   UNL     1      -2.676  11.145  16.271  0.00  0.00    +0.000 C 
ENDBRANCH  26  28
ENDBRANCH   9  26
BRANCH   1  30
ATOM     30  C   UNL     1      -0.235  16.577  18.198  0.00  0.00    +0.000 C 
BRANCH  30  31
ATOM     31  C   UNL     1      -1.251  17.712  18.351  0.00  0.00    +0.000 C 
BRANCH  31  33
ATOM     32  C   UNL     1      -3.123  18.445  19.592  0.00  0.00    +0.000 C 
ATOM     33  O   UNL     1      -2.217  17.372  19.355  0.00  0.00    +0.000 OA
ENDBRANCH  31  33
ENDBRANCH  30  31
ENDBRANCH   1  30
TORSDOF 7
ENDMDL
MODEL 6
REMARK VINA RESULT:      -6.8      2.693      4.364
REMARK  Name = 
REMARK  9 active torsions:
REMARK  status: ('A' for Active; 'I' for Inactive)
REMARK    1  A    between atoms: C_1  and  O_2
REMARK    2  A    between atoms: O_2  and  C_3
REMARK    3  A    between atoms: C_3  and  C_4
REMARK    4  A    between atoms: C_4  and  N_5
REMARK    5  A    between atoms: C_13  and  C_14
REMARK    6  A    between atoms: C_14  and  O_16
REMARK    7  A    between atoms: O_16  and  C_17
REMARK    8  A    between atoms: C_18  and  C_19
REMARK    9  A    between atoms: C_22  and  C_23
REMARK                            x       y       z     vdW  Elec       q    Type
REMARK                         _______ _______ _______ _____ _____    ______ ____
ROOT
ATOM      1  N   UNL     1      -2.306  12.414  19.799  0.00  0.00    +0.000 N 
ATOM      2  C   UNL     1      -1.408  12.206  18.779  0.00  0.00    +0.000 C 
ATOM      3  O   UNL     1      -1.748  12.136  17.600  0.00  0.00    +0.000 OA
ATOM      4  N   UNL     1      -0.101  12.123  19.172  0.00  0.00    +0.000 N 
ATOM      5  C   UNL     1       1.010  12.034  18.239  0.00  0.00    +0.000 C 
ATOM      6  C   UNL     1       2.110  12.802  18.996  0.00  0.00    +0.000 C 
ATOM      7  C   UNL     1       1.706  12.721  20.483  0.00  0.00    +0.000 C 
ATOM      8  C   UNL     1       0.452  11.841  20.492  0.00  0.00    +0.000 C 
ATOM      9  C   UNL     1       0.887  10.378  20.524  0.00  0.00    +0.000 C 
ATOM     10  C   UNL     1       1.361   9.786  19.390  0.00  0.00    +0.000 C 
ATOM     11  C   UNL     1       1.384  10.545  18.064  0.00  0.00    +0.000 C 
ATOM     12  H   UNL     1      -1.953  13.011  20.534  0.00  0.00    +0.000 HD
ENDROOT
BRANCH  10  13
ATOM     13  C   UNL     1       1.872   8.414  19.321  0.00  0.00    +0.000 A 
ATOM     14  C   UNL     1       2.604   7.999  18.210  0.00  0.00    +0.000 A 
ATOM     15  C   UNL     1       2.971   6.659  18.071  0.00  0.00    +0.000 A 
ATOM     16  C   UNL     1       2.654   5.694  19.050  0.00  0.00    +0.000 A 
ATOM     17  C   UNL     1       1.972   6.159  20.189  0.00  0.00    +0.000 A 
ATOM     18  F   UNL     1       1.656   5.318  21.189  0.00  0.00    +0.000 F 
ATOM     19  C   UNL     1       1.585   7.489  20.330  0.00  0.00    +0.000 A 
BRANCH  16  20
ATOM     20  C   UNL     1       2.993   4.268  18.833  0.00  0.00    +0.000 A 
ATOM     21  C   UNL     1       2.356   3.512  17.830  0.00  0.00    +0.000 A 
ATOM     22  C   UNL     1       2.611   2.148  17.668  0.00  0.00    +0.000 A 
ATOM     23  C   UNL     1       3.528   1.510  18.495  0.00  0.00    +0.000 A 
ATOM     24  C   UNL     1       4.192   2.235  19.480  0.00  0.00    +0.000 A 
ATOM     25  C   UNL     1       3.923   3.596  19.648  0.00  0.00    +0.000 A 
ENDBRANCH  16  20
ENDBRANCH  10  13
BRANCH   9  26
ATOM     26  C   UNL     1       0.852   9.702  21.859  0.00  0.00    +0.000 C 
ATOM     27  O   UNL     1       1.813   9.513  22.586  0.00  0.00    +0.000 OA
BRANCH  26  28
ATOM     28  O   UNL     1      -0.426   9.350  22.163  0.00  0.00    +0.000 OA
ATOM     29  C   UNL     1      -1.025  10.063  23.249  0.00  0.00    +0.000 C 
ENDBRANCH  26  28
ENDBRANCH   9  26
BRANCH   1  30
ATOM     30  C   UNL     1      -3.704  12.669  19.476  0.00  0.00    +0.000 C 
BRANCH  30  31
ATOM     31  C   UNL     1      -4.356  11.506  18.723  0.00  0.00    +0.000 C 
BRANCH  31  33
ATOM     32  C   UNL     1      -6.608  11.461  18.009  0.00  0.00    +0.000 C 
ATOM     33  O   UNL     1      -5.313  12.010  17.781  0.00  0.00    +0.000 OA
ENDBRANCH  31  33
ENDBRANCH  30  31
ENDBRANCH   1  30
TORSDOF 7
ENDMDL
MODEL 7
REMARK VINA RESULT:      -6.8      2.452      4.061
REMARK  Name = 
REMARK  9 active torsions:
REMARK  status: ('A' for Active; 'I' for Inactive)
REMARK    1  A    between atoms: C_1  and  O_2
REMARK    2  A    between atoms: O_2  and  C_3
REMARK    3  A    between atoms: C_3  and  C_4
REMARK    4  A    between atoms: C_4  and  N_5
REMARK    5  A    between atoms: C_13  and  C_14
REMARK    6  A    between atoms: C_14  and  O_16
REMARK    7  A    between atoms: O_16  and  C_17
REMARK    8  A    between atoms: C_18  and  C_19
REMARK    9  A    between atoms: C_22  and  C_23
REMARK                            x       y       z     vdW  Elec       q    Type
REMARK                         _______ _______ _______ _____ _____    ______ ____
ROOT
ATOM      1  N   UNL     1      -1.059  13.826  22.505  0.00  0.00    +0.000 N 
ATOM      2  C   UNL     1      -1.698  12.775  21.892  0.00  0.00    +0.000 C 
ATOM      3  O   UNL     1      -2.474  12.032  22.489  0.00  0.00    +0.000 OA
ATOM      4  N   UNL     1      -1.436  12.643  20.557  0.00  0.00    +0.000 N 
ATOM      5  C   UNL     1      -2.108  11.678  19.702  0.00  0.00    +0.000 C 
ATOM      6  C   UNL     1      -2.164  12.439  18.364  0.00  0.00    +0.000 C 
ATOM      7  C   UNL     1      -1.018  13.470  18.440  0.00  0.00    +0.000 C 
ATOM      8  C   UNL     1      -0.326  13.176  19.775  0.00  0.00    +0.000 C 
ATOM      9  C   UNL     1       0.687  12.055  19.559  0.00  0.00    +0.000 C 
ATOM     10  C   UNL     1       0.257  10.767  19.435  0.00  0.00    +0.000 C 
ATOM     11  C   UNL     1      -1.222  10.418  19.594  0.00  0.00    +0.000 C 
ATOM     12  H   UNL     1      -0.967  14.643  21.917  0.00  0.00    +0.000 HD
ENDROOT
BRANCH  10  13
ATOM     13  C   UNL     1       1.131   9.623  19.155  0.00  0.00    +0.000 A 
ATOM     14  C   UNL     1       1.738   9.500  17.907  0.00  0.00    +0.000 A 
ATOM     15  C   UNL     1       2.455   8.347  17.584  0.00  0.00    +0.000 A 
ATOM     16  C   UNL     1       2.622   7.291  18.505  0.00  0.00    +0.000 A 
ATOM     17  C   UNL     1       2.053   7.476  19.779  0.00  0.00    +0.000 A 
ATOM     18  F   UNL     1       2.189   6.538  20.732  0.00  0.00    +0.000 F 
ATOM     19  C   UNL     1       1.320   8.615  20.105  0.00  0.00    +0.000 A 
BRANCH  16  20
ATOM     20  C   UNL     1       3.324   6.050  18.103  0.00  0.00    +0.000 A 
ATOM     21  C   UNL     1       4.719   6.032  17.908  0.00  0.00    +0.000 A 
ATOM     22  C   UNL     1       5.381   4.890  17.453  0.00  0.00    +0.000 A 
ATOM     23  C   UNL     1       4.664   3.727  17.200  0.00  0.00    +0.000 A 
ATOM     24  C   UNL     1       3.287   3.705  17.406  0.00  0.00    +0.000 A 
ATOM     25  C   UNL     1       2.627   4.854  17.847  0.00  0.00    +0.000 A 
ENDBRANCH  16  20
ENDBRANCH  10  13
BRANCH   9  26
ATOM     26  C   UNL     1       2.116  12.471  19.398  0.00  0.00    +0.000 C 
ATOM     27  O   UNL     1       2.736  12.492  18.348  0.00  0.00    +0.000 OA
BRANCH  26  28
ATOM     28  O   UNL     1       2.621  12.855  20.600  0.00  0.00    +0.000 OA
ATOM     29  C   UNL     1       3.170  14.175  20.650  0.00  0.00    +0.000 C 
ENDBRANCH  26  28
ENDBRANCH   9  26
BRANCH   1  30
ATOM     30  C   UNL     1      -1.384  14.150  23.888  0.00  0.00    +0.000 C 
BRANCH  30  31
ATOM     31  C   UNL     1      -0.869  15.529  24.307  0.00  0.00    +0.000 C 
BRANCH  31  33
ATOM     32  C   UNL     1      -0.998  16.794  26.298  0.00  0.00    +0.000 C 
ATOM     33  O   UNL     1      -0.618  15.549  25.718  0.00  0.00    +0.000 OA
ENDBRANCH  31  33
ENDBRANCH  30  31
ENDBRANCH   1  30
TORSDOF 7
ENDMDL
MODEL 8
REMARK VINA RESULT:      -6.8      2.424      4.569
REMARK  Name = 
REMARK  9 active torsions:
REMARK  status: ('A' for Active; 'I' for Inactive)
REMARK    1  A    between atoms: C_1  and  O_2
REMARK    2  A    between atoms: O_2  and  C_3
REMARK    3  A    between atoms: C_3  and  C_4
REMARK    4  A    between atoms: C_4  and  N_5
REMARK    5  A    between atoms: C_13  and  C_14
REMARK    6  A    between atoms: C_14  and  O_16
REMARK    7  A    between atoms: O_16  and  C_17
REMARK    8  A    between atoms: C_18  and  C_19
REMARK    9  A    between atoms: C_22  and  C_23
REMARK                            x       y       z     vdW  Elec       q    Type
REMARK                         _______ _______ _______ _____ _____    ______ ____
ROOT
ATOM      1  N   UNL     1      -3.990  12.310  20.439  0.00  0.00    +0.000 N 
ATOM      2  C   UNL     1      -3.367  12.218  19.218  0.00  0.00    +0.000 C 
ATOM      3  O   UNL     1      -3.960  11.888  18.194  0.00  0.00    +0.000 OA
ATOM      4  N   UNL     1      -2.043  12.559  19.222  0.00  0.00    +0.000 N 
ATOM      5  C   UNL     1      -1.238  12.652  18.015  0.00  0.00    +0.000 C 
ATOM      6  C   UNL     1      -0.271  13.796  18.376  0.00  0.00    +0.000 C 
ATOM      7  C   UNL     1      -0.234  13.818  19.919  0.00  0.00    +0.000 C 
ATOM      8  C   UNL     1      -1.110  12.633  20.340  0.00  0.00    +0.000 C 
ATOM      9  C   UNL     1      -0.253  11.370  20.331  0.00  0.00    +0.000 C 
ATOM     10  C   UNL     1       0.071  10.779  19.145  0.00  0.00    +0.000 C 
ATOM     11  C   UNL     1      -0.483  11.318  17.827  0.00  0.00    +0.000 C 
ATOM     12  H   UNL     1      -3.661  13.080  21.005  0.00  0.00    +0.000 HD
ENDROOT
BRANCH  10  13
ATOM     13  C   UNL     1       0.943   9.609  19.012  0.00  0.00    +0.000 A 
ATOM     14  C   UNL     1       1.710   9.439  17.861  0.00  0.00    +0.000 A 
ATOM     15  C   UNL     1       2.432   8.260  17.664  0.00  0.00    +0.000 A 
ATOM     16  C   UNL     1       2.445   7.225  18.623  0.00  0.00    +0.000 A 
ATOM     17  C   UNL     1       1.714   7.457  19.803  0.00  0.00    +0.000 A 
ATOM     18  F   UNL     1       1.695   6.541  20.786  0.00  0.00    +0.000 F 
ATOM     19  C   UNL     1       0.976   8.621  20.001  0.00  0.00    +0.000 A 
BRANCH  16  20
ATOM     20  C   UNL     1       3.161   5.958  18.347  0.00  0.00    +0.000 A 
ATOM     21  C   UNL     1       4.567   5.887  18.405  0.00  0.00    +0.000 A 
ATOM     22  C   UNL     1       5.256   4.720  18.071  0.00  0.00    +0.000 A 
ATOM     23  C   UNL     1       4.553   3.584  17.689  0.00  0.00    +0.000 A 
ATOM     24  C   UNL     1       3.162   3.614  17.645  0.00  0.00    +0.000 A 
ATOM     25  C   UNL     1       2.477   4.788  17.966  0.00  0.00    +0.000 A 
ENDBRANCH  16  20
ENDBRANCH  10  13
BRANCH   9  26
ATOM     26  C   UNL     1       0.267  10.908  21.657  0.00  0.00    +0.000 C 
ATOM     27  O   UNL     1       1.430  10.956  22.020  0.00  0.00    +0.000 OA
BRANCH  26  28
ATOM     28  O   UNL     1      -0.761  10.449  22.418  0.00  0.00    +0.000 OA
ATOM     29  C   UNL     1      -0.416   9.468  23.400  0.00  0.00    +0.000 C 
ENDBRANCH  26  28
ENDBRANCH   9  26
BRANCH   1  30
ATOM     30  C   UNL     1      -5.433  12.116  20.520  0.00  0.00    +0.000 C 
BRANCH  30  31
ATOM     31  C   UNL     1      -6.011  12.551  21.870  0.00  0.00    +0.000 C 
BRANCH  31  33
ATOM     32  C   UNL     1      -7.688  11.099  21.058  0.00  0.00    +0.000 C 
ATOM     33  O   UNL     1      -7.129  11.722  22.211  0.00  0.00    +0.000 OA
ENDBRANCH  31  33
ENDBRANCH  30  31
ENDBRANCH   1  30
TORSDOF 7
ENDMDL
MODEL 9
REMARK VINA RESULT:      -6.8      2.462      4.428
REMARK  Name = 
REMARK  9 active torsions:
REMARK  status: ('A' for Active; 'I' for Inactive)
REMARK    1  A    between atoms: C_1  and  O_2
REMARK    2  A    between atoms: O_2  and  C_3
REMARK    3  A    between atoms: C_3  and  C_4
REMARK    4  A    between atoms: C_4  and  N_5
REMARK    5  A    between atoms: C_13  and  C_14
REMARK    6  A    between atoms: C_14  and  O_16
REMARK    7  A    between atoms: O_16  and  C_17
REMARK    8  A    between atoms: C_18  and  C_19
REMARK    9  A    between atoms: C_22  and  C_23
REMARK                            x       y       z     vdW  Elec       q    Type
REMARK                         _______ _______ _______ _____ _____    ______ ____
ROOT
ATOM      1  N   UNL     1      -4.065  12.251  20.323  0.00  0.00    +0.000 N 
ATOM      2  C   UNL     1      -3.460  12.069  19.103  0.00  0.00    +0.000 C 
ATOM      3  O   UNL     1      -4.069  11.666  18.114  0.00  0.00    +0.000 OA
ATOM      4  N   UNL     1      -2.136  12.407  19.062  0.00  0.00    +0.000 N 
ATOM      5  C   UNL     1      -1.349  12.409  17.840  0.00  0.00    +0.000 C 
ATOM      6  C   UNL     1      -0.376  13.575  18.102  0.00  0.00    +0.000 C 
ATOM      7  C   UNL     1      -0.316  13.710  19.638  0.00  0.00    +0.000 C 
ATOM      8  C   UNL     1      -1.186  12.560  20.158  0.00  0.00    +0.000 C 
ATOM      9  C   UNL     1      -0.330  11.299  20.229  0.00  0.00    +0.000 C 
ATOM     10  C   UNL     1      -0.025  10.622  19.084  0.00  0.00    +0.000 C 
ATOM     11  C   UNL     1      -0.598  11.064  17.738  0.00  0.00    +0.000 C 
ATOM     12  H   UNL     1      -3.727  13.060  20.826  0.00  0.00    +0.000 HD
ENDROOT
BRANCH  10  13
ATOM     13  C   UNL     1       0.844   9.443  19.024  0.00  0.00    +0.000 A 
ATOM     14  C   UNL     1       1.615   9.203  17.888  0.00  0.00    +0.000 A 
ATOM     15  C   UNL     1       2.334   8.013  17.765  0.00  0.00    +0.000 A 
ATOM     16  C   UNL     1       2.341   7.037  18.783  0.00  0.00    +0.000 A 
ATOM     17  C   UNL     1       1.606   7.339  19.944  0.00  0.00    +0.000 A 
ATOM     18  F   UNL     1       1.579   6.483  20.980  0.00  0.00    +0.000 F 
ATOM     19  C   UNL     1       0.870   8.515  20.070  0.00  0.00    +0.000 A 
BRANCH  16  20
ATOM     20  C   UNL     1       3.054   5.753  18.586  0.00  0.00    +0.000 A 
ATOM     21  C   UNL     1       2.487   4.714  17.824  0.00  0.00    +0.000 A 
ATOM     22  C   UNL     1       3.113   3.473  17.695  0.00  0.00    +0.000 A 
ATOM     23  C   UNL     1       4.338   3.246  18.313  0.00  0.00    +0.000 A 
ATOM     24  C   UNL     1       4.936   4.262  19.054  0.00  0.00    +0.000 A 
ATOM     25  C   UNL     1       4.299   5.497  19.192  0.00  0.00    +0.000 A 
ENDBRANCH  16  20
ENDBRANCH  10  13
BRANCH   9  26
ATOM     26  C   UNL     1       0.208  10.933  21.577  0.00  0.00    +0.000 C 
ATOM     27  O   UNL     1       1.339  11.158  21.974  0.00  0.00    +0.000 OA
BRANCH  26  28
ATOM     28  O   UNL     1      -0.765  10.335  22.314  0.00  0.00    +0.000 OA
ATOM     29  C   UNL     1      -0.311   9.559  23.426  0.00  0.00    +0.000 C 
ENDBRANCH  26  28
ENDBRANCH   9  26
BRANCH   1  30
ATOM     30  C   UNL     1      -5.506  12.067  20.438  0.00  0.00    +0.000 C 
BRANCH  30  31
ATOM     31  C   UNL     1      -6.137  12.993  21.482  0.00  0.00    +0.000 C 
BRANCH  31  33
ATOM     32  C   UNL     1      -5.543  13.094  23.766  0.00  0.00    +0.000 C 
ATOM     33  O   UNL     1      -6.192  12.332  22.753  0.00  0.00    +0.000 OA
ENDBRANCH  31  33
ENDBRANCH  30  31
ENDBRANCH   1  30
TORSDOF 7
ENDMDL
