MODEL 1
REMARK VINA RESULT:      -7.3      0.000      0.000
REMARK  Name = 
REMARK  4 active torsions:
REMARK  status: ('A' for Active; 'I' for Inactive)
REMARK    1  A    between atoms: C_1  and  S_2
REMARK    2  A    between atoms: S_2  and  N_5
REMARK    3  A    between atoms: C_9  and  C_10
REMARK    4  A    between atoms: N_12  and  C_13
REMARK                            x       y       z     vdW  Elec       q    Type
REMARK                         _______ _______ _______ _____ _____    ______ ____
ROOT
ATOM      1  C   UNL     1       2.267   6.608  19.377  0.00  0.00    +0.000 C 
ATOM      2  O   UNL     1       1.833   5.924  20.301  0.00  0.00    +0.000 OA
ATOM      3  N   UNL     1       2.035   7.967  19.244  0.00  0.00    +0.000 N 
ATOM      4  H   UNL     1       1.996   8.338  18.300  0.00  0.00    +0.000 HD
ENDROOT
BRANCH   3   5
ATOM      5  C   UNL     1       1.320   8.705  20.221  0.00  0.00    +0.000 A 
ATOM      6  C   UNL     1       1.548   8.500  21.588  0.00  0.00    +0.000 A 
ATOM      7  C   UNL     1       0.834   9.229  22.541  0.00  0.00    +0.000 A 
ATOM      8  C   UNL     1      -0.125  10.156  22.138  0.00  0.00    +0.000 A 
ATOM      9  C   UNL     1      -0.357  10.372  20.778  0.00  0.00    +0.000 A 
ATOM     10  C   UNL     1       0.379   9.665  19.824  0.00  0.00    +0.000 A 
ATOM     11 CL   UNL     1       0.035   9.934  18.150  0.00  0.00    +0.000 Cl
ENDBRANCH   3   5
BRANCH   1  16
ATOM     12  N   UNL     1       5.499   5.250  17.851  0.00  0.00    +0.000 NA
ATOM     13  C   UNL     1       5.028   3.847  17.682  0.00  0.00    +0.000 C 
ATOM     14  C   UNL     1       3.638   3.851  17.059  0.00  0.00    +0.000 C 
ATOM     15  C   UNL     1       2.653   4.588  17.952  0.00  0.00    +0.000 C 
ATOM     16  C   UNL     1       3.130   6.011  18.269  0.00  0.00    +0.000 C 
ATOM     17  C   UNL     1       4.578   6.020  18.762  0.00  0.00    +0.000 C 
BRANCH  12  19
ATOM     18  C   UNL     1       7.590   7.060  17.901  0.00  0.00    +0.000 C 
ATOM     19  S   UNL     1       7.124   5.411  18.393  0.00  0.00    +0.000 S 
ATOM     20  O   UNL     1       7.921   4.471  17.634  0.00  0.00    +0.000 OA
ATOM     21  O   UNL     1       7.093   5.364  19.836  0.00  0.00    +0.000 OA
ENDBRANCH  12  19
ENDBRANCH   1  16
TORSDOF 3
ENDMDL
MODEL 2
REMARK VINA RESULT:      -7.2      4.159      5.209
REMARK  Name = 
REMARK  4 active torsions:
REMARK  status: ('A' for Active; 'I' for Inactive)
REMARK    1  A    between atoms: C_1  and  S_2
REMARK    2  A    between atoms: S_2  and  N_5
REMARK    3  A    between atoms: C_9  and  C_10
REMARK    4  A    between atoms: N_12  and  C_13
REMARK                            x       y       z     vdW  Elec       q    Type
REMARK                         _______ _______ _______ _____ _____    ______ ____
ROOT
ATOM      1  C   UNL     1       5.159   3.766  19.107  0.00  0.00    +0.000 C 
ATOM      2  O   UNL     1       5.220   2.892  19.969  0.00  0.00    +0.000 OA
ATOM      3  N   UNL     1       3.975   4.304  18.631  0.00  0.00    +0.000 N 
ATOM      4  H   UNL     1       3.968   4.622  17.667  0.00  0.00    +0.000 HD
ENDROOT
BRANCH   3   5
ATOM      5  C   UNL     1       2.714   3.929  19.160  0.00  0.00    +0.000 A 
ATOM      6  C   UNL     1       2.142   4.636  20.225  0.00  0.00    +0.000 A 
ATOM      7  C   UNL     1       0.901   4.255  20.742  0.00  0.00    +0.000 A 
ATOM      8  C   UNL     1       0.231   3.154  20.211  0.00  0.00    +0.000 A 
ATOM      9  C   UNL     1       0.791   2.445  19.146  0.00  0.00    +0.000 A 
ATOM     10  C   UNL     1       2.017   2.845  18.608  0.00  0.00    +0.000 A 
ATOM     11 CL   UNL     1       2.693   1.919  17.314  0.00  0.00    +0.000 Cl
ENDBRANCH   3   5
BRANCH   1  16
ATOM     12  N   UNL     1       7.208   5.333  16.285  0.00  0.00    +0.000 NA
ATOM     13  C   UNL     1       7.400   6.661  16.934  0.00  0.00    +0.000 C 
ATOM     14  C   UNL     1       7.821   6.459  18.385  0.00  0.00    +0.000 C 
ATOM     15  C   UNL     1       6.752   5.695  19.150  0.00  0.00    +0.000 C 
ATOM     16  C   UNL     1       6.413   4.361  18.474  0.00  0.00    +0.000 C 
ATOM     17  C   UNL     1       6.129   4.546  16.982  0.00  0.00    +0.000 C 
BRANCH  12  19
ATOM     18  C   UNL     1       6.409   3.724  14.183  0.00  0.00    +0.000 C 
ATOM     19  S   UNL     1       6.890   5.390  14.595  0.00  0.00    +0.000 S 
ATOM     20  O   UNL     1       8.146   5.674  13.935  0.00  0.00    +0.000 OA
ATOM     21  O   UNL     1       5.743   6.248  14.411  0.00  0.00    +0.000 OA
ENDBRANCH  12  19
ENDBRANCH   1  16
TORSDOF 3
ENDMDL
MODEL 3
REMARK VINA RESULT:      -7.2      4.005      5.141
REMARK  Name = 
REMARK  4 active torsions:
REMARK  status: ('A' for Active; 'I' for Inactive)
REMARK    1  A    between atoms: C_1  and  S_2
REMARK    2  A    between atoms: S_2  and  N_5
REMARK    3  A    between atoms: C_9  and  C_10
REMARK    4  A    between atoms: N_12  and  C_13
REMARK                            x       y       z     vdW  Elec       q    Type
REMARK                         _______ _______ _______ _____ _____    ______ ____
ROOT
ATOM      1  C   UNL     1       5.119   3.702  19.092  0.00  0.00    +0.000 C 
ATOM      2  O   UNL     1       5.170   2.995  20.095  0.00  0.00    +0.000 OA
ATOM      3  N   UNL     1       3.945   4.030  18.434  0.00  0.00    +0.000 N 
ATOM      4  H   UNL     1       4.005   4.181  17.432  0.00  0.00    +0.000 HD
ENDROOT
BRANCH   3   5
ATOM      5  C   UNL     1       2.676   3.622  18.916  0.00  0.00    +0.000 A 
ATOM      6  C   UNL     1       2.083   2.434  18.469  0.00  0.00    +0.000 A 
ATOM      7  C   UNL     1       0.830   2.044  18.948  0.00  0.00    +0.000 A 
ATOM      8  C   UNL     1       0.151   2.846  19.863  0.00  0.00    +0.000 A 
ATOM      9  C   UNL     1       0.734   4.030  20.319  0.00  0.00    +0.000 A 
ATOM     10  C   UNL     1       2.001   4.405  19.864  0.00  0.00    +0.000 A 
ATOM     11 CL   UNL     1       2.673   5.897  20.424  0.00  0.00    +0.000 Cl
ENDBRANCH   3   5
BRANCH   1  16
ATOM     12  N   UNL     1       7.169   5.312  16.294  0.00  0.00    +0.000 NA
ATOM     13  C   UNL     1       7.358   6.630  16.962  0.00  0.00    +0.000 C 
ATOM     14  C   UNL     1       7.778   6.408  18.410  0.00  0.00    +0.000 C 
ATOM     15  C   UNL     1       6.709   5.632  19.164  0.00  0.00    +0.000 C 
ATOM     16  C   UNL     1       6.373   4.307  18.468  0.00  0.00    +0.000 C 
ATOM     17  C   UNL     1       6.090   4.513  16.979  0.00  0.00    +0.000 C 
BRANCH  12  19
ATOM     18  C   UNL     1       6.348   3.737  14.174  0.00  0.00    +0.000 C 
ATOM     19  S   UNL     1       6.852   5.392  14.605  0.00  0.00    +0.000 S 
ATOM     20  O   UNL     1       8.112   5.665  13.948  0.00  0.00    +0.000 OA
ATOM     21  O   UNL     1       5.717   6.268  14.430  0.00  0.00    +0.000 OA
ENDBRANCH  12  19
ENDBRANCH   1  16
TORSDOF 3
ENDMDL
MODEL 4
REMARK VINA RESULT:      -6.9      2.361      2.906
REMARK  Name = 
REMARK  4 active torsions:
REMARK  status: ('A' for Active; 'I' for Inactive)
REMARK    1  A    between atoms: C_1  and  S_2
REMARK    2  A    between atoms: S_2  and  N_5
REMARK    3  A    between atoms: C_9  and  C_10
REMARK    4  A    between atoms: N_12  and  C_13
REMARK                            x       y       z     vdW  Elec       q    Type
REMARK                         _______ _______ _______ _____ _____    ______ ____
ROOT
ATOM      1  C   UNL     1       1.915   8.946  18.232  0.00  0.00    +0.000 C 
ATOM      2  O   UNL     1       2.324   9.811  17.461  0.00  0.00    +0.000 OA
ATOM      3  N   UNL     1       1.010   9.184  19.253  0.00  0.00    +0.000 N 
ATOM      4  H   UNL     1       1.088   8.603  20.082  0.00  0.00    +0.000 HD
ENDROOT
BRANCH   3   5
ATOM      5  C   UNL     1       0.419  10.457  19.451  0.00  0.00    +0.000 A 
ATOM      6  C   UNL     1       0.900  11.328  20.437  0.00  0.00    +0.000 A 
ATOM      7  C   UNL     1       0.306  12.578  20.627  0.00  0.00    +0.000 A 
ATOM      8  C   UNL     1      -0.782  12.962  19.845  0.00  0.00    +0.000 A 
ATOM      9  C   UNL     1      -1.265  12.104  18.856  0.00  0.00    +0.000 A 
ATOM     10  C   UNL     1      -0.653  10.866  18.645  0.00  0.00    +0.000 A 
ATOM     11 CL   UNL     1      -1.306   9.816  17.435  0.00  0.00    +0.000 Cl
ENDBRANCH   3   5
BRANCH   1  16
ATOM     12  N   UNL     1       4.390   6.135  17.462  0.00  0.00    +0.000 NA
ATOM     13  C   UNL     1       4.542   5.657  18.864  0.00  0.00    +0.000 C 
ATOM     14  C   UNL     1       3.166   5.531  19.508  0.00  0.00    +0.000 C 
ATOM     15  C   UNL     1       2.460   6.878  19.530  0.00  0.00    +0.000 C 
ATOM     16  C   UNL     1       2.370   7.494  18.127  0.00  0.00    +0.000 C 
ATOM     17  C   UNL     1       3.729   7.489  17.425  0.00  0.00    +0.000 C 
BRANCH  12  19
ATOM     18  C   UNL     1       6.694   4.674  17.008  0.00  0.00    +0.000 C 
ATOM     19  S   UNL     1       5.845   6.172  16.545  0.00  0.00    +0.000 S 
ATOM     20  O   UNL     1       6.621   7.297  17.023  0.00  0.00    +0.000 OA
ATOM     21  O   UNL     1       5.470   6.065  15.154  0.00  0.00    +0.000 OA
ENDBRANCH  12  19
ENDBRANCH   1  16
TORSDOF 3
ENDMDL
MODEL 5
REMARK VINA RESULT:      -6.9      1.966      2.479
REMARK  Name = 
REMARK  4 active torsions:
REMARK  status: ('A' for Active; 'I' for Inactive)
REMARK    1  A    between atoms: C_1  and  S_2
REMARK    2  A    between atoms: S_2  and  N_5
REMARK    3  A    between atoms: C_9  and  C_10
REMARK    4  A    between atoms: N_12  and  C_13
REMARK                            x       y       z     vdW  Elec       q    Type
REMARK                         _______ _______ _______ _____ _____    ______ ____
ROOT
ATOM      1  C   UNL     1       2.397   8.005  18.196  0.00  0.00    +0.000 C 
ATOM      2  O   UNL     1       2.502   8.833  17.295  0.00  0.00    +0.000 OA
ATOM      3  N   UNL     1       1.678   8.215  19.361  0.00  0.00    +0.000 N 
ATOM      4  H   UNL     1       2.009   7.745  20.198  0.00  0.00    +0.000 HD
ENDROOT
BRANCH   3   5
ATOM      5  C   UNL     1       0.933   9.401  19.579  0.00  0.00    +0.000 A 
ATOM      6  C   UNL     1       0.332  10.080  18.512  0.00  0.00    +0.000 A 
ATOM      7  C   UNL     1      -0.396  11.251  18.738  0.00  0.00    +0.000 A 
ATOM      8  C   UNL     1      -0.514  11.762  20.029  0.00  0.00    +0.000 A 
ATOM      9  C   UNL     1       0.077  11.090  21.101  0.00  0.00    +0.000 A 
ATOM     10  C   UNL     1       0.778   9.902  20.879  0.00  0.00    +0.000 A 
ATOM     11 CL   UNL     1       1.527   9.121  22.228  0.00  0.00    +0.000 Cl
ENDBRANCH   3   5
BRANCH   1  16
ATOM     12  N   UNL     1       5.296   5.585  17.597  0.00  0.00    +0.000 NA
ATOM     13  C   UNL     1       5.400   5.097  19.000  0.00  0.00    +0.000 C 
ATOM     14  C   UNL     1       4.008   4.766  19.526  0.00  0.00    +0.000 C 
ATOM     15  C   UNL     1       3.121   6.000  19.507  0.00  0.00    +0.000 C 
ATOM     16  C   UNL     1       3.059   6.633  18.110  0.00  0.00    +0.000 C 
ATOM     17  C   UNL     1       4.457   6.835  17.524  0.00  0.00    +0.000 C 
BRANCH  12  19
ATOM     18  C   UNL     1       7.396   7.382  17.488  0.00  0.00    +0.000 C 
ATOM     19  S   UNL     1       6.801   5.846  16.805  0.00  0.00    +0.000 S 
ATOM     20  O   UNL     1       6.514   6.057  15.403  0.00  0.00    +0.000 OA
ATOM     21  O   UNL     1       7.690   4.790  17.231  0.00  0.00    +0.000 OA
ENDBRANCH  12  19
ENDBRANCH   1  16
TORSDOF 3
ENDMDL
MODEL 6
REMARK VINA RESULT:      -6.9      2.064      2.548
REMARK  Name = 
REMARK  4 active torsions:
REMARK  status: ('A' for Active; 'I' for Inactive)
REMARK    1  A    between atoms: C_1  and  S_2
REMARK    2  A    between atoms: S_2  and  N_5
REMARK    3  A    between atoms: C_9  and  C_10
REMARK    4  A    between atoms: N_12  and  C_13
REMARK                            x       y       z     vdW  Elec       q    Type
REMARK                         _______ _______ _______ _____ _____    ______ ____
ROOT
ATOM      1  C   UNL     1       2.539   7.853  18.167  0.00  0.00    +0.000 C 
ATOM      2  O   UNL     1       2.719   8.697  17.294  0.00  0.00    +0.000 OA
ATOM      3  N   UNL     1       1.759   8.057  19.294  0.00  0.00    +0.000 N 
ATOM      4  H   UNL     1       2.027   7.559  20.136  0.00  0.00    +0.000 HD
ENDROOT
BRANCH   3   5
ATOM      5  C   UNL     1       1.037   9.260  19.498  0.00  0.00    +0.000 A 
ATOM      6  C   UNL     1       0.488   9.962  18.417  0.00  0.00    +0.000 A 
ATOM      7  C   UNL     1      -0.218  11.149  18.629  0.00  0.00    +0.000 A 
ATOM      8  C   UNL     1      -0.366  11.652  19.920  0.00  0.00    +0.000 A 
ATOM      9  C   UNL     1       0.172  10.958  21.005  0.00  0.00    +0.000 A 
ATOM     10  C   UNL     1       0.852   9.755  20.796  0.00  0.00    +0.000 A 
ATOM     11 CL   UNL     1       1.537   8.944  22.162  0.00  0.00    +0.000 Cl
ENDBRANCH   3   5
BRANCH   1  16
ATOM     12  N   UNL     1       5.359   5.354  17.520  0.00  0.00    +0.000 NA
ATOM     13  C   UNL     1       5.498   4.889  18.928  0.00  0.00    +0.000 C 
ATOM     14  C   UNL     1       4.118   4.601  19.505  0.00  0.00    +0.000 C 
ATOM     15  C   UNL     1       3.259   5.856  19.492  0.00  0.00    +0.000 C 
ATOM     16  C   UNL     1       3.165   6.464  18.086  0.00  0.00    +0.000 C 
ATOM     17  C   UNL     1       4.547   6.621  17.450  0.00  0.00    +0.000 C 
BRANCH  12  19
ATOM     18  C   UNL     1       6.492   4.993  15.022  0.00  0.00    +0.000 C 
ATOM     19  S   UNL     1       6.843   5.564  16.674  0.00  0.00    +0.000 S 
ATOM     20  O   UNL     1       7.804   4.661  17.270  0.00  0.00    +0.000 OA
ATOM     21  O   UNL     1       7.095   6.985  16.615  0.00  0.00    +0.000 OA
ENDBRANCH  12  19
ENDBRANCH   1  16
TORSDOF 3
ENDMDL
MODEL 7
REMARK VINA RESULT:      -6.9      4.100      7.496
REMARK  Name = 
REMARK  4 active torsions:
REMARK  status: ('A' for Active; 'I' for Inactive)
REMARK    1  A    between atoms: C_1  and  S_2
REMARK    2  A    between atoms: S_2  and  N_5
REMARK    3  A    between atoms: C_9  and  C_10
REMARK    4  A    between atoms: N_12  and  C_13
REMARK                            x       y       z     vdW  Elec       q    Type
REMARK                         _______ _______ _______ _____ _____    ______ ____
ROOT
ATOM      1  C   UNL     1       1.609   8.238  20.055  0.00  0.00    +0.000 C 
ATOM      2  O   UNL     1       1.413   8.621  18.904  0.00  0.00    +0.000 OA
ATOM      3  N   UNL     1       2.153   7.006  20.379  0.00  0.00    +0.000 N 
ATOM      4  H   UNL     1       1.854   6.586  21.254  0.00  0.00    +0.000 HD
ENDROOT
BRANCH   3   5
ATOM      5  C   UNL     1       2.600   6.098  19.386  0.00  0.00    +0.000 A 
ATOM      6  C   UNL     1       3.578   6.473  18.456  0.00  0.00    +0.000 A 
ATOM      7  C   UNL     1       4.007   5.573  17.478  0.00  0.00    +0.000 A 
ATOM      8  C   UNL     1       3.451   4.297  17.411  0.00  0.00    +0.000 A 
ATOM      9  C   UNL     1       2.479   3.911  18.336  0.00  0.00    +0.000 A 
ATOM     10  C   UNL     1       2.072   4.801  19.333  0.00  0.00    +0.000 A 
ATOM     11 CL   UNL     1       0.838   4.298  20.436  0.00  0.00    +0.000 Cl
ENDBRANCH   3   5
BRANCH   1  16
ATOM     12  N   UNL     1       0.494  11.443  21.815  0.00  0.00    +0.000 NA
ATOM     13  C   UNL     1      -0.781  10.900  22.361  0.00  0.00    +0.000 C 
ATOM     14  C   UNL     1      -0.522   9.537  22.992  0.00  0.00    +0.000 C 
ATOM     15  C   UNL     1       0.016   8.562  21.957  0.00  0.00    +0.000 C 
ATOM     16  C   UNL     1       1.271   9.107  21.262  0.00  0.00    +0.000 C 
ATOM     17  C   UNL     1       1.054  10.533  20.753  0.00  0.00    +0.000 C 
BRANCH  12  19
ATOM     18  C   UNL     1       1.800  13.196  20.121  0.00  0.00    +0.000 C 
ATOM     19  S   UNL     1       0.399  13.053  21.214  0.00  0.00    +0.000 S 
ATOM     20  O   UNL     1       0.610  13.940  22.337  0.00  0.00    +0.000 OA
ATOM     21  O   UNL     1      -0.803  13.135  20.417  0.00  0.00    +0.000 OA
ENDBRANCH  12  19
ENDBRANCH   1  16
TORSDOF 3
ENDMDL
MODEL 8
REMARK VINA RESULT:      -6.9      3.208      7.129
REMARK  Name = 
REMARK  4 active torsions:
REMARK  status: ('A' for Active; 'I' for Inactive)
REMARK    1  A    between atoms: C_1  and  S_2
REMARK    2  A    between atoms: S_2  and  N_5
REMARK    3  A    between atoms: C_9  and  C_10
REMARK    4  A    between atoms: N_12  and  C_13
REMARK                            x       y       z     vdW  Elec       q    Type
REMARK                         _______ _______ _______ _____ _____    ______ ____
ROOT
ATOM      1  C   UNL     1       3.087   6.869  18.724  0.00  0.00    +0.000 C 
ATOM      2  O   UNL     1       3.451   6.170  19.667  0.00  0.00    +0.000 OA
ATOM      3  N   UNL     1       3.760   6.953  17.517  0.00  0.00    +0.000 N 
ATOM      4  H   UNL     1       3.702   7.834  17.016  0.00  0.00    +0.000 HD
ENDROOT
BRANCH   3   5
ATOM      5  C   UNL     1       4.910   6.169  17.243  0.00  0.00    +0.000 A 
ATOM      6  C   UNL     1       6.189   6.740  17.253  0.00  0.00    +0.000 A 
ATOM      7  C   UNL     1       7.314   5.959  16.977  0.00  0.00    +0.000 A 
ATOM      8  C   UNL     1       7.169   4.607  16.671  0.00  0.00    +0.000 A 
ATOM      9  C   UNL     1       5.899   4.027  16.663  0.00  0.00    +0.000 A 
ATOM     10  C   UNL     1       4.776   4.800  16.970  0.00  0.00    +0.000 A 
ATOM     11 CL   UNL     1       3.218   4.053  16.912  0.00  0.00    +0.000 Cl
ENDBRANCH   3   5
BRANCH   1  16
ATOM     12  N   UNL     1       0.530   9.142  20.431  0.00  0.00    +0.000 NA
ATOM     13  C   UNL     1       0.817  10.357  19.618  0.00  0.00    +0.000 C 
ATOM     14  C   UNL     1       0.883   9.977  18.144  0.00  0.00    +0.000 C 
ATOM     15  C   UNL     1       1.987   8.961  17.902  0.00  0.00    +0.000 C 
ATOM     16  C   UNL     1       1.825   7.723  18.794  0.00  0.00    +0.000 C 
ATOM     17  C   UNL     1       1.617   8.112  20.259  0.00  0.00    +0.000 C 
BRANCH  12  19
ATOM     18  C   UNL     1      -0.439  11.072  22.159  0.00  0.00    +0.000 C 
ATOM     19  S   UNL     1       0.262   9.434  22.105  0.00  0.00    +0.000 S 
ATOM     20  O   UNL     1       1.561   9.478  22.742  0.00  0.00    +0.000 OA
ATOM     21  O   UNL     1      -0.747   8.497  22.539  0.00  0.00    +0.000 OA
ENDBRANCH  12  19
ENDBRANCH   1  16
TORSDOF 3
ENDMDL
MODEL 9
REMARK VINA RESULT:      -6.9      0.936      1.122
REMARK  Name = 
REMARK  4 active torsions:
REMARK  status: ('A' for Active; 'I' for Inactive)
REMARK    1  A    between atoms: C_1  and  S_2
REMARK    2  A    between atoms: S_2  and  N_5
REMARK    3  A    between atoms: C_9  and  C_10
REMARK    4  A    between atoms: N_12  and  C_13
REMARK                            x       y       z     vdW  Elec       q    Type
REMARK                         _______ _______ _______ _____ _____    ______ ____
ROOT
ATOM      1  C   UNL     1       2.252   6.558  19.192  0.00  0.00    +0.000 C 
ATOM      2  O   UNL     1       1.988   5.921  20.209  0.00  0.00    +0.000 OA
ATOM      3  N   UNL     1       1.942   7.897  19.015  0.00  0.00    +0.000 N 
ATOM      4  H   UNL     1       1.750   8.204  18.067  0.00  0.00    +0.000 HD
ENDROOT
BRANCH   3   5
ATOM      5  C   UNL     1       1.346   8.671  20.042  0.00  0.00    +0.000 A 
ATOM      6  C   UNL     1       1.627   8.418  21.390  0.00  0.00    +0.000 A 
ATOM      7  C   UNL     1       1.029   9.184  22.394  0.00  0.00    +0.000 A 
ATOM      8  C   UNL     1       0.133  10.197  22.060  0.00  0.00    +0.000 A 
ATOM      9  C   UNL     1      -0.151  10.461  20.718  0.00  0.00    +0.000 A 
ATOM     10  C   UNL     1       0.471   9.716  19.713  0.00  0.00    +0.000 A 
ATOM     11 CL   UNL     1       0.064  10.049  18.065  0.00  0.00    +0.000 Cl
ENDBRANCH   3   5
BRANCH   1  16
ATOM     12  N   UNL     1       5.303   5.393  17.204  0.00  0.00    +0.000 NA
ATOM     13  C   UNL     1       5.013   3.935  17.290  0.00  0.00    +0.000 C 
ATOM     14  C   UNL     1       3.544   3.691  16.964  0.00  0.00    +0.000 C 
ATOM     15  C   UNL     1       2.648   4.422  17.951  0.00  0.00    +0.000 C 
ATOM     16  C   UNL     1       2.969   5.922  18.006  0.00  0.00    +0.000 C 
ATOM     17  C   UNL     1       4.468   6.167  18.192  0.00  0.00    +0.000 C 
BRANCH  12  19
ATOM     18  C   UNL     1       7.249   5.718  19.142  0.00  0.00    +0.000 C 
ATOM     19  S   UNL     1       6.961   5.816  17.385  0.00  0.00    +0.000 S 
ATOM     20  O   UNL     1       7.094   7.199  16.982  0.00  0.00    +0.000 OA
ATOM     21  O   UNL     1       7.733   4.777  16.744  0.00  0.00    +0.000 OA
ENDBRANCH  12  19
ENDBRANCH   1  16
TORSDOF 3
ENDMDL
