MODEL 1
REMARK VINA RESULT:      -7.3      0.000      0.000
REMARK  Name = 
REMARK  3 active torsions:
REMARK  status: ('A' for Active; 'I' for Inactive)
REMARK    1  A    between atoms: C_1  and  C_2
REMARK    2  A    between atoms: C_4  and  C_5
REMARK    3  A    between atoms: N_14  and  C_15
REMARK                            x       y       z     vdW  Elec       q    Type
REMARK                         _______ _______ _______ _____ _____    ______ ____
ROOT
ATOM      1  C   UNL     1       8.078   9.288  17.577  0.00  0.00    +0.000 C 
ATOM      2  C   UNL     1       7.584   7.883  17.763  0.00  0.00    +0.000 A 
ATOM      3  C   UNL     1       8.156   7.064  18.728  0.00  0.00    +0.000 A 
ATOM      4  C   UNL     1       7.627   5.788  18.985  0.00  0.00    +0.000 A 
ATOM      5  C   UNL     1       8.290   4.952  20.049  0.00  0.00    +0.000 C 
ATOM      6  C   UNL     1       6.466   5.413  18.256  0.00  0.00    +0.000 A 
ATOM      7  C   UNL     1       5.502   4.326  18.391  0.00  0.00    +0.000 A 
ATOM      8  C   UNL     1       4.480   4.419  17.464  0.00  0.00    +0.000 A 
ATOM      9  S   UNL     1       4.717   5.726  16.381  0.00  0.00    +0.000 S 
ATOM     10  C   UNL     1       6.041   6.298  17.269  0.00  0.00    +0.000 A 
ATOM     11  N   UNL     1       6.555   7.509  16.985  0.00  0.00    +0.000 NA
ATOM     12  C   UNL     1       3.227   3.714  17.356  0.00  0.00    +0.000 C 
ATOM     13  O   UNL     1       2.593   3.541  16.318  0.00  0.00    +0.000 OA
ATOM     14  N   UNL     1       2.680   3.449  18.610  0.00  0.00    +0.000 N 
ATOM     15  C   UNL     1       1.248   3.602  18.741  0.00  0.00    +0.000 C 
ATOM     16  C   UNL     1       3.292   2.375  19.375  0.00  0.00    +0.000 C 
ATOM     17  C   UNL     1       4.650   2.628  20.007  0.00  0.00    +0.000 C 
ATOM     18  O   UNL     1       4.974   2.027  21.038  0.00  0.00    +0.000 OA
ATOM     19  N   UNL     1       5.598   3.404  19.425  0.00  0.00    +0.000 N 
ATOM     20  H   UNL     1       6.441   3.417  19.976  0.00  0.00    +0.000 HD
ENDROOT
TORSDOF 0
ENDMDL
MODEL 2
REMARK VINA RESULT:      -6.8      4.523      5.330
REMARK  Name = 
REMARK  3 active torsions:
REMARK  status: ('A' for Active; 'I' for Inactive)
REMARK    1  A    between atoms: C_1  and  C_2
REMARK    2  A    between atoms: C_4  and  C_5
REMARK    3  A    between atoms: N_14  and  C_15
REMARK                            x       y       z     vdW  Elec       q    Type
REMARK                         _______ _______ _______ _____ _____    ______ ____
ROOT
ATOM      1  C   UNL     1      -0.495  11.657  18.573  0.00  0.00    +0.000 C 
ATOM      2  C   UNL     1       0.348  10.504  19.033  0.00  0.00    +0.000 A 
ATOM      3  C   UNL     1       0.212  10.012  20.325  0.00  0.00    +0.000 A 
ATOM      4  C   UNL     1       0.915   8.866  20.728  0.00  0.00    +0.000 A 
ATOM      5  C   UNL     1       0.718   8.380  22.141  0.00  0.00    +0.000 C 
ATOM      6  C   UNL     1       1.714   8.219  19.746  0.00  0.00    +0.000 A 
ATOM      7  C   UNL     1       2.379   6.922  19.686  0.00  0.00    +0.000 A 
ATOM      8  C   UNL     1       2.995   6.710  18.465  0.00  0.00    +0.000 A 
ATOM      9  S   UNL     1       2.870   8.078  17.441  0.00  0.00    +0.000 S 
ATOM     10  C   UNL     1       1.819   8.860  18.514  0.00  0.00    +0.000 A 
ATOM     11  N   UNL     1       1.180   9.977  18.120  0.00  0.00    +0.000 NA
ATOM     12  C   UNL     1       3.575   5.524  17.887  0.00  0.00    +0.000 C 
ATOM     13  O   UNL     1       4.451   5.506  17.026  0.00  0.00    +0.000 OA
ATOM     14  N   UNL     1       2.859   4.381  18.239  0.00  0.00    +0.000 N 
ATOM     15  C   UNL     1       2.675   3.386  17.207  0.00  0.00    +0.000 C 
ATOM     16  C   UNL     1       3.043   3.887  19.594  0.00  0.00    +0.000 C 
ATOM     17  C   UNL     1       2.397   4.658  20.732  0.00  0.00    +0.000 C 
ATOM     18  O   UNL     1       2.065   4.070  21.767  0.00  0.00    +0.000 OA
ATOM     19  N   UNL     1       2.269   6.009  20.726  0.00  0.00    +0.000 N 
ATOM     20  H   UNL     1       1.853   6.335  21.583  0.00  0.00    +0.000 HD
ENDROOT
TORSDOF 0
ENDMDL
MODEL 3
REMARK VINA RESULT:      -6.7      3.906      4.676
REMARK  Name = 
REMARK  3 active torsions:
REMARK  status: ('A' for Active; 'I' for Inactive)
REMARK    1  A    between atoms: C_1  and  C_2
REMARK    2  A    between atoms: C_4  and  C_5
REMARK    3  A    between atoms: N_14  and  C_15
REMARK                            x       y       z     vdW  Elec       q    Type
REMARK                         _______ _______ _______ _____ _____    ______ ____
ROOT
ATOM      1  C   UNL     1       0.419  10.842  17.905  0.00  0.00    +0.000 C 
ATOM      2  C   UNL     1       1.117   9.690  18.567  0.00  0.00    +0.000 A 
ATOM      3  C   UNL     1       0.820   9.358  19.883  0.00  0.00    +0.000 A 
ATOM      4  C   UNL     1       1.385   8.217  20.474  0.00  0.00    +0.000 A 
ATOM      5  C   UNL     1       1.018   7.908  21.903  0.00  0.00    +0.000 C 
ATOM      6  C   UNL     1       2.215   7.407  19.652  0.00  0.00    +0.000 A 
ATOM      7  C   UNL     1       2.774   6.067  19.795  0.00  0.00    +0.000 A 
ATOM      8  C   UNL     1       3.480   5.675  18.673  0.00  0.00    +0.000 A 
ATOM      9  S   UNL     1       3.566   6.924  17.503  0.00  0.00    +0.000 S 
ATOM     10  C   UNL     1       2.487   7.896  18.376  0.00  0.00    +0.000 A 
ATOM     11  N   UNL     1       1.983   9.005  17.804  0.00  0.00    +0.000 NA
ATOM     12  C   UNL     1       4.011   4.392  18.284  0.00  0.00    +0.000 C 
ATOM     13  O   UNL     1       4.959   4.213  17.523  0.00  0.00    +0.000 OA
ATOM     14  N   UNL     1       3.173   3.351  18.680  0.00  0.00    +0.000 N 
ATOM     15  C   UNL     1       3.003   2.261  17.745  0.00  0.00    +0.000 C 
ATOM     16  C   UNL     1       3.188   3.001  20.091  0.00  0.00    +0.000 C 
ATOM     17  C   UNL     1       2.505   3.940  21.070  0.00  0.00    +0.000 C 
ATOM     18  O   UNL     1       2.031   3.498  22.122  0.00  0.00    +0.000 OA
ATOM     19  N   UNL     1       2.491   5.287  20.909  0.00  0.00    +0.000 N 
ATOM     20  H   UNL     1       2.026   5.737  21.681  0.00  0.00    +0.000 HD
ENDROOT
TORSDOF 0
ENDMDL
MODEL 4
REMARK VINA RESULT:      -6.4      2.934      4.098
REMARK  Name = 
REMARK  3 active torsions:
REMARK  status: ('A' for Active; 'I' for Inactive)
REMARK    1  A    between atoms: C_1  and  C_2
REMARK    2  A    between atoms: C_4  and  C_5
REMARK    3  A    between atoms: N_14  and  C_15
REMARK                            x       y       z     vdW  Elec       q    Type
REMARK                         _______ _______ _______ _____ _____    ______ ____
ROOT
ATOM      1  C   UNL     1       6.168   3.841  13.530  0.00  0.00    +0.000 C 
ATOM      2  C   UNL     1       5.746   4.321  14.889  0.00  0.00    +0.000 A 
ATOM      3  C   UNL     1       5.544   5.676  15.118  0.00  0.00    +0.000 A 
ATOM      4  C   UNL     1       5.043   6.122  16.352  0.00  0.00    +0.000 A 
ATOM      5  C   UNL     1       4.840   7.604  16.535  0.00  0.00    +0.000 C 
ATOM      6  C   UNL     1       4.711   5.128  17.312  0.00  0.00    +0.000 A 
ATOM      7  C   UNL     1       3.967   5.150  18.567  0.00  0.00    +0.000 A 
ATOM      8  C   UNL     1       3.849   3.890  19.124  0.00  0.00    +0.000 A 
ATOM      9  S   UNL     1       4.700   2.709  18.219  0.00  0.00    +0.000 S 
ATOM     10  C   UNL     1       5.033   3.815  16.979  0.00  0.00    +0.000 A 
ATOM     11  N   UNL     1       5.545   3.371  15.816  0.00  0.00    +0.000 NA
ATOM     12  C   UNL     1       3.043   3.405  20.215  0.00  0.00    +0.000 C 
ATOM     13  O   UNL     1       3.297   2.423  20.909  0.00  0.00    +0.000 OA
ATOM     14  N   UNL     1       1.800   4.036  20.253  0.00  0.00    +0.000 N 
ATOM     15  C   UNL     1       0.659   3.207  20.572  0.00  0.00    +0.000 C 
ATOM     16  C   UNL     1       1.775   5.399  20.756  0.00  0.00    +0.000 C 
ATOM     17  C   UNL     1       2.322   6.502  19.866  0.00  0.00    +0.000 C 
ATOM     18  O   UNL     1       1.884   7.653  19.968  0.00  0.00    +0.000 OA
ATOM     19  N   UNL     1       3.375   6.318  19.030  0.00  0.00    +0.000 N 
ATOM     20  H   UNL     1       3.613   7.174  18.556  0.00  0.00    +0.000 HD
ENDROOT
TORSDOF 0
ENDMDL
MODEL 5
REMARK VINA RESULT:      -6.2      2.110      2.534
REMARK  Name = 
REMARK  3 active torsions:
REMARK  status: ('A' for Active; 'I' for Inactive)
REMARK    1  A    between atoms: C_1  and  C_2
REMARK    2  A    between atoms: C_4  and  C_5
REMARK    3  A    between atoms: N_14  and  C_15
REMARK                            x       y       z     vdW  Elec       q    Type
REMARK                         _______ _______ _______ _____ _____    ______ ____
ROOT
ATOM      1  C   UNL     1       7.751   8.343  17.370  0.00  0.00    +0.000 C 
ATOM      2  C   UNL     1       6.737   7.238  17.318  0.00  0.00    +0.000 A 
ATOM      3  C   UNL     1       7.028   6.055  16.650  0.00  0.00    +0.000 A 
ATOM      4  C   UNL     1       6.131   4.976  16.690  0.00  0.00    +0.000 A 
ATOM      5  C   UNL     1       6.509   3.719  15.950  0.00  0.00    +0.000 C 
ATOM      6  C   UNL     1       4.961   5.138  17.480  0.00  0.00    +0.000 A 
ATOM      7  C   UNL     1       3.940   4.215  17.966  0.00  0.00    +0.000 A 
ATOM      8  C   UNL     1       3.012   4.847  18.774  0.00  0.00    +0.000 A 
ATOM      9  S   UNL     1       3.292   6.535  18.871  0.00  0.00    +0.000 S 
ATOM     10  C   UNL     1       4.758   6.399  18.035  0.00  0.00    +0.000 A 
ATOM     11  N   UNL     1       5.589   7.456  17.979  0.00  0.00    +0.000 NA
ATOM     12  C   UNL     1       1.978   4.316  19.627  0.00  0.00    +0.000 C 
ATOM     13  O   UNL     1       0.955   4.909  19.962  0.00  0.00    +0.000 OA
ATOM     14  N   UNL     1       2.377   3.128  20.236  0.00  0.00    +0.000 N 
ATOM     15  C   UNL     1       1.995   2.945  21.619  0.00  0.00    +0.000 C 
ATOM     16  C   UNL     1       2.388   1.938  19.401  0.00  0.00    +0.000 C 
ATOM     17  C   UNL     1       3.493   1.795  18.370  0.00  0.00    +0.000 C 
ATOM     18  O   UNL     1       3.873   0.672  18.022  0.00  0.00    +0.000 OA
ATOM     19  N   UNL     1       4.018   2.854  17.704  0.00  0.00    +0.000 N 
ATOM     20  H   UNL     1       4.709   2.553  17.035  0.00  0.00    +0.000 HD
ENDROOT
TORSDOF 0
ENDMDL
MODEL 6
REMARK VINA RESULT:      -6.2      9.826     11.608
REMARK  Name = 
REMARK  3 active torsions:
REMARK  status: ('A' for Active; 'I' for Inactive)
REMARK    1  A    between atoms: C_1  and  C_2
REMARK    2  A    between atoms: C_4  and  C_5
REMARK    3  A    between atoms: N_14  and  C_15
REMARK                            x       y       z     vdW  Elec       q    Type
REMARK                         _______ _______ _______ _____ _____    ______ ____
ROOT
ATOM      1  C   UNL     1      -3.651  10.149  14.814  0.00  0.00    +0.000 C 
ATOM      2  C   UNL     1      -3.493  10.865  16.123  0.00  0.00    +0.000 A 
ATOM      3  C   UNL     1      -4.597  11.434  16.745  0.00  0.00    +0.000 A 
ATOM      4  C   UNL     1      -4.478  12.008  18.021  0.00  0.00    +0.000 A 
ATOM      5  C   UNL     1      -5.715  12.602  18.644  0.00  0.00    +0.000 C 
ATOM      6  C   UNL     1      -3.206  11.926  18.650  0.00  0.00    +0.000 A 
ATOM      7  C   UNL     1      -2.740  12.167  20.012  0.00  0.00    +0.000 A 
ATOM      8  C   UNL     1      -1.394  11.882  20.158  0.00  0.00    +0.000 A 
ATOM      9  S   UNL     1      -0.670  11.433  18.671  0.00  0.00    +0.000 S 
ATOM     10  C   UNL     1      -2.170  11.396  17.885  0.00  0.00    +0.000 A 
ATOM     11  N   UNL     1      -2.257  10.873  16.648  0.00  0.00    +0.000 NA
ATOM     12  C   UNL     1      -0.569  11.768  21.335  0.00  0.00    +0.000 C 
ATOM     13  O   UNL     1       0.646  11.937  21.373  0.00  0.00    +0.000 OA
ATOM     14  N   UNL     1      -1.272  11.203  22.398  0.00  0.00    +0.000 N 
ATOM     15  C   UNL     1      -0.553  10.258  23.223  0.00  0.00    +0.000 C 
ATOM     16  C   UNL     1      -2.231  12.060  23.076  0.00  0.00    +0.000 C 
ATOM     17  C   UNL     1      -3.536  12.376  22.366  0.00  0.00    +0.000 C 
ATOM     18  O   UNL     1      -4.554  12.622  23.023  0.00  0.00    +0.000 OA
ATOM     19  N   UNL     1      -3.623  12.527  21.020  0.00  0.00    +0.000 N 
ATOM     20  H   UNL     1      -4.561  12.773  20.745  0.00  0.00    +0.000 HD
ENDROOT
TORSDOF 0
ENDMDL
MODEL 7
REMARK VINA RESULT:      -6.1      3.978      5.756
REMARK  Name = 
REMARK  3 active torsions:
REMARK  status: ('A' for Active; 'I' for Inactive)
REMARK    1  A    between atoms: C_1  and  C_2
REMARK    2  A    between atoms: C_4  and  C_5
REMARK    3  A    between atoms: N_14  and  C_15
REMARK                            x       y       z     vdW  Elec       q    Type
REMARK                         _______ _______ _______ _____ _____    ______ ____
ROOT
ATOM      1  C   UNL     1       0.304   9.373  22.348  0.00  0.00    +0.000 C 
ATOM      2  C   UNL     1       0.893   8.666  21.162  0.00  0.00    +0.000 A 
ATOM      3  C   UNL     1       1.029   9.331  19.950  0.00  0.00    +0.000 A 
ATOM      4  C   UNL     1       1.679   8.714  18.869  0.00  0.00    +0.000 A 
ATOM      5  C   UNL     1       1.799   9.492  17.583  0.00  0.00    +0.000 C 
ATOM      6  C   UNL     1       2.227   7.422  19.096  0.00  0.00    +0.000 A 
ATOM      7  C   UNL     1       3.151   6.576  18.349  0.00  0.00    +0.000 A 
ATOM      8  C   UNL     1       3.444   5.405  19.023  0.00  0.00    +0.000 A 
ATOM      9  S   UNL     1       2.553   5.266  20.480  0.00  0.00    +0.000 S 
ATOM     10  C   UNL     1       1.954   6.843  20.333  0.00  0.00    +0.000 A 
ATOM     11  N   UNL     1       1.303   7.404  21.369  0.00  0.00    +0.000 NA
ATOM     12  C   UNL     1       4.442   4.393  18.781  0.00  0.00    +0.000 C 
ATOM     13  O   UNL     1       4.370   3.220  19.138  0.00  0.00    +0.000 OA
ATOM     14  N   UNL     1       5.626   4.948  18.298  0.00  0.00    +0.000 N 
ATOM     15  C   UNL     1       6.860   4.392  18.807  0.00  0.00    +0.000 C 
ATOM     16  C   UNL     1       5.629   5.374  16.909  0.00  0.00    +0.000 C 
ATOM     17  C   UNL     1       4.872   6.640  16.545  0.00  0.00    +0.000 C 
ATOM     18  O   UNL     1       5.236   7.322  15.581  0.00  0.00    +0.000 OA
ATOM     19  N   UNL     1       3.720   7.010  17.159  0.00  0.00    +0.000 N 
ATOM     20  H   UNL     1       3.350   7.854  16.752  0.00  0.00    +0.000 HD
ENDROOT
TORSDOF 0
ENDMDL
MODEL 8
REMARK VINA RESULT:      -6.0      5.981      6.956
REMARK  Name = 
REMARK  3 active torsions:
REMARK  status: ('A' for Active; 'I' for Inactive)
REMARK    1  A    between atoms: C_1  and  C_2
REMARK    2  A    between atoms: C_4  and  C_5
REMARK    3  A    between atoms: N_14  and  C_15
REMARK                            x       y       z     vdW  Elec       q    Type
REMARK                         _______ _______ _______ _____ _____    ______ ____
ROOT
ATOM      1  C   UNL     1       5.057   5.754  17.253  0.00  0.00    +0.000 C 
ATOM      2  C   UNL     1       3.894   6.385  17.961  0.00  0.00    +0.000 A 
ATOM      3  C   UNL     1       3.346   5.774  19.082  0.00  0.00    +0.000 A 
ATOM      4  C   UNL     1       2.332   6.412  19.815  0.00  0.00    +0.000 A 
ATOM      5  C   UNL     1       1.784   5.699  21.025  0.00  0.00    +0.000 C 
ATOM      6  C   UNL     1       1.945   7.711  19.389  0.00  0.00    +0.000 A 
ATOM      7  C   UNL     1       1.142   8.770  19.990  0.00  0.00    +0.000 A 
ATOM      8  C   UNL     1       1.104   9.906  19.202  0.00  0.00    +0.000 A 
ATOM      9  S   UNL     1       1.930   9.681  17.717  0.00  0.00    +0.000 S 
ATOM     10  C   UNL     1       2.523   8.172  18.208  0.00  0.00    +0.000 A 
ATOM     11  N   UNL     1       3.471   7.562  17.473  0.00  0.00    +0.000 NA
ATOM     12  C   UNL     1       0.627  11.238  19.477  0.00  0.00    +0.000 C 
ATOM     13  O   UNL     1       0.239  12.044  18.635  0.00  0.00    +0.000 OA
ATOM     14  N   UNL     1       0.878  11.609  20.797  0.00  0.00    +0.000 N 
ATOM     15  C   UNL     1       1.308  12.972  21.018  0.00  0.00    +0.000 C 
ATOM     16  C   UNL     1       0.021  11.023  21.814  0.00  0.00    +0.000 C 
ATOM     17  C   UNL     1       0.229   9.562  22.172  0.00  0.00    +0.000 C 
ATOM     18  O   UNL     1      -0.053   9.157  23.305  0.00  0.00    +0.000 OA
ATOM     19  N   UNL     1       0.602   8.627  21.261  0.00  0.00    +0.000 N 
ATOM     20  H   UNL     1       0.648   7.713  21.682  0.00  0.00    +0.000 HD
ENDROOT
TORSDOF 0
ENDMDL
MODEL 9
REMARK VINA RESULT:      -5.8      3.566      5.084
REMARK  Name = 
REMARK  3 active torsions:
REMARK  status: ('A' for Active; 'I' for Inactive)
REMARK    1  A    between atoms: C_1  and  C_2
REMARK    2  A    between atoms: C_4  and  C_5
REMARK    3  A    between atoms: N_14  and  C_15
REMARK                            x       y       z     vdW  Elec       q    Type
REMARK                         _______ _______ _______ _____ _____    ______ ____
ROOT
ATOM      1  C   UNL     1       0.935   9.374  22.011  0.00  0.00    +0.000 C 
ATOM      2  C   UNL     1       1.263   8.371  20.944  0.00  0.00    +0.000 A 
ATOM      3  C   UNL     1       1.872   8.780  19.764  0.00  0.00    +0.000 A 
ATOM      4  C   UNL     1       2.282   7.836  18.810  0.00  0.00    +0.000 A 
ATOM      5  C   UNL     1       2.942   8.345  17.554  0.00  0.00    +0.000 C 
ATOM      6  C   UNL     1       2.095   6.465  19.136  0.00  0.00    +0.000 A 
ATOM      7  C   UNL     1       2.584   5.217  18.557  0.00  0.00    +0.000 A 
ATOM      8  C   UNL     1       2.174   4.113  19.282  0.00  0.00    +0.000 A 
ATOM      9  S   UNL     1       1.136   4.546  20.575  0.00  0.00    +0.000 S 
ATOM     10  C   UNL     1       1.407   6.198  20.316  0.00  0.00    +0.000 A 
ATOM     11  N   UNL     1       0.975   7.090  21.227  0.00  0.00    +0.000 NA
ATOM     12  C   UNL     1       2.577   2.730  19.216  0.00  0.00    +0.000 C 
ATOM     13  O   UNL     1       1.895   1.771  19.567  0.00  0.00    +0.000 OA
ATOM     14  N   UNL     1       3.935   2.607  18.928  0.00  0.00    +0.000 N 
ATOM     15  C   UNL     1       4.659   1.575  19.637  0.00  0.00    +0.000 C 
ATOM     16  C   UNL     1       4.336   2.856  17.553  0.00  0.00    +0.000 C 
ATOM     17  C   UNL     1       4.349   4.292  17.059  0.00  0.00    +0.000 C 
ATOM     18  O   UNL     1       5.128   4.629  16.160  0.00  0.00    +0.000 OA
ATOM     19  N   UNL     1       3.451   5.220  17.473  0.00  0.00    +0.000 N 
ATOM     20  H   UNL     1       3.598   6.099  17.003  0.00  0.00    +0.000 HD
ENDROOT
TORSDOF 0
ENDMDL
