MODEL 1
REMARK VINA RESULT:      -7.5      0.000      0.000
REMARK  Name = 
REMARK  5 active torsions:
REMARK  status: ('A' for Active; 'I' for Inactive)
REMARK    1  A    between atoms: C_2  and  C_17
REMARK    2  A    between atoms: N_3  and  C_4
REMARK    3  A    between atoms: C_4  and  C_5
REMARK    4  A    between atoms: C_5  and  C_6
REMARK    5  A    between atoms: C_6  and  C_8
REMARK                            x       y       z     vdW  Elec       q    Type
REMARK                         _______ _______ _______ _____ _____    ______ ____
ROOT
ATOM      1  C   UNL     1       7.028   4.354  16.793  0.00  0.00    +0.000 C 
ENDROOT
BRANCH   1   4
ATOM      2  O   UNL     1       7.561   5.278  14.193  0.00  0.00    +0.000 OA
ATOM      3  C   UNL     1       6.707   4.408  14.340  0.00  0.00    +0.000 C 
ATOM      4  N   UNL     1       6.353   3.926  15.579  0.00  0.00    +0.000 N 
ATOM      5  H   UNL     1       5.668   3.187  15.642  0.00  0.00    +0.000 HD
BRANCH   3   6
ATOM      6  C   UNL     1       6.014   3.815  13.214  0.00  0.00    +0.000 A 
ATOM      7  C   UNL     1       4.818   4.119  12.580  0.00  0.00    +0.000 A 
ATOM      8  C   UNL     1       4.642   3.184  11.540  0.00  0.00    +0.000 A 
ATOM      9 BR   UNL     1       3.173   3.156  10.380  0.00  0.00    +0.000 Br
ATOM     10  C   UNL     1       5.709   2.327  11.538  0.00  0.00    +0.000 A 
ATOM     11  N   UNL     1       6.542   2.722  12.550  0.00  0.00    +0.000 N 
ATOM     12  H   UNL     1       7.421   2.286  12.805  0.00  0.00    +0.000 HD
ENDBRANCH   3   6
ENDBRANCH   1   4
BRANCH   1  13
ATOM     13  C   UNL     1       6.201   5.357  17.588  0.00  0.00    +0.000 C 
BRANCH  13  14
ATOM     14  C   UNL     1       5.893   4.844  18.990  0.00  0.00    +0.000 C 
ATOM     15  O   UNL     1       6.592   5.174  19.947  0.00  0.00    +0.000 OA
BRANCH  14  16
ATOM     16  C   UNL     1       4.768   3.939  19.121  0.00  0.00    +0.000 A 
ATOM     17  C   UNL     1       4.688   2.595  18.809  0.00  0.00    +0.000 A 
ATOM     18  N   UNL     1       3.460   2.075  19.096  0.00  0.00    +0.000 NA
ATOM     19  C   UNL     1       2.747   3.071  19.575  0.00  0.00    +0.000 A 
ATOM     20  N   UNL     1       1.449   3.053  19.999  0.00  0.00    +0.000 NA
ATOM     21  C   UNL     1       0.965   4.183  20.412  0.00  0.00    +0.000 A 
ATOM     22  C   UNL     1       1.683   5.482  20.468  0.00  0.00    +0.000 A 
ATOM     23  C   UNL     1       2.956   5.447  20.051  0.00  0.00    +0.000 A 
ATOM     24  N   UNL     1       3.505   4.247  19.602  0.00  0.00    +0.000 N 
ENDBRANCH  14  16
ENDBRANCH  13  14
ENDBRANCH   1  13
TORSDOF 5
ENDMDL
MODEL 2
REMARK VINA RESULT:      -7.4      1.621      2.278
REMARK  Name = 
REMARK  5 active torsions:
REMARK  status: ('A' for Active; 'I' for Inactive)
REMARK    1  A    between atoms: C_2  and  C_17
REMARK    2  A    between atoms: N_3  and  C_4
REMARK    3  A    between atoms: C_4  and  C_5
REMARK    4  A    between atoms: C_5  and  C_6
REMARK    5  A    between atoms: C_6  and  C_8
REMARK                            x       y       z     vdW  Elec       q    Type
REMARK                         _______ _______ _______ _____ _____    ______ ____
ROOT
ATOM      1  C   UNL     1       7.349   4.536  16.396  0.00  0.00    +0.000 C 
ENDROOT
BRANCH   1   4
ATOM      2  O   UNL     1       7.616   5.367  13.726  0.00  0.00    +0.000 OA
ATOM      3  C   UNL     1       6.807   4.479  13.983  0.00  0.00    +0.000 C 
ATOM      4  N   UNL     1       6.583   4.038  15.267  0.00  0.00    +0.000 N 
ATOM      5  H   UNL     1       5.930   3.284  15.420  0.00  0.00    +0.000 HD
BRANCH   3   6
ATOM      6  C   UNL     1       6.036   3.820  12.949  0.00  0.00    +0.000 A 
ATOM      7  C   UNL     1       4.833   4.131  12.331  0.00  0.00    +0.000 A 
ATOM      8  C   UNL     1       4.562   3.109  11.398  0.00  0.00    +0.000 A 
ATOM      9 BR   UNL     1       3.046   3.054  10.300  0.00  0.00    +0.000 Br
ATOM     10  C   UNL     1       5.579   2.194  11.443  0.00  0.00    +0.000 A 
ATOM     11  N   UNL     1       6.475   2.637  12.379  0.00  0.00    +0.000 N 
ATOM     12  H   UNL     1       7.338   2.178  12.645  0.00  0.00    +0.000 HD
ENDBRANCH   3   6
ENDBRANCH   1   4
BRANCH   1  13
ATOM     13  C   UNL     1       6.455   4.988  17.545  0.00  0.00    +0.000 C 
BRANCH  13  14
ATOM     14  C   UNL     1       5.308   5.863  17.052  0.00  0.00    +0.000 C 
ATOM     15  O   UNL     1       5.486   6.687  16.156  0.00  0.00    +0.000 OA
BRANCH  14  16
ATOM     16  C   UNL     1       4.028   5.689  17.709  0.00  0.00    +0.000 A 
ATOM     17  C   UNL     1       3.222   6.636  18.315  0.00  0.00    +0.000 A 
ATOM     18  N   UNL     1       2.072   6.091  18.806  0.00  0.00    +0.000 NA
ATOM     19  C   UNL     1       2.136   4.805  18.536  0.00  0.00    +0.000 A 
ATOM     20  N   UNL     1       1.223   3.834  18.834  0.00  0.00    +0.000 NA
ATOM     21  C   UNL     1       1.533   2.627  18.474  0.00  0.00    +0.000 A 
ATOM     22  C   UNL     1       2.774   2.206  17.775  0.00  0.00    +0.000 A 
ATOM     23  C   UNL     1       3.634   3.196  17.495  0.00  0.00    +0.000 A 
ATOM     24  N   UNL     1       3.328   4.503  17.868  0.00  0.00    +0.000 N 
ENDBRANCH  14  16
ENDBRANCH  13  14
ENDBRANCH   1  13
TORSDOF 5
ENDMDL
MODEL 3
REMARK VINA RESULT:      -7.4      1.764      2.451
REMARK  Name = 
REMARK  5 active torsions:
REMARK  status: ('A' for Active; 'I' for Inactive)
REMARK    1  A    between atoms: C_2  and  C_17
REMARK    2  A    between atoms: N_3  and  C_4
REMARK    3  A    between atoms: C_4  and  C_5
REMARK    4  A    between atoms: C_5  and  C_6
REMARK    5  A    between atoms: C_6  and  C_8
REMARK                            x       y       z     vdW  Elec       q    Type
REMARK                         _______ _______ _______ _____ _____    ______ ____
ROOT
ATOM      1  C   UNL     1       6.522   6.611  17.083  0.00  0.00    +0.000 C 
ENDROOT
BRANCH   1   4
ATOM      2  O   UNL     1       7.719   4.291  16.043  0.00  0.00    +0.000 OA
ATOM      3  C   UNL     1       6.853   4.850  15.375  0.00  0.00    +0.000 C 
ATOM      4  N   UNL     1       6.243   6.013  15.788  0.00  0.00    +0.000 N 
ATOM      5  H   UNL     1       5.514   6.414  15.216  0.00  0.00    +0.000 HD
BRANCH   3   6
ATOM      6  C   UNL     1       6.402   4.320  14.105  0.00  0.00    +0.000 A 
ATOM      7  C   UNL     1       5.139   4.114  13.568  0.00  0.00    +0.000 A 
ATOM      8  C   UNL     1       5.313   3.554  12.286  0.00  0.00    +0.000 A 
ATOM      9 BR   UNL     1       3.910   3.082  11.139  0.00  0.00    +0.000 Br
ATOM     10  C   UNL     1       6.654   3.423  12.044  0.00  0.00    +0.000 A 
ATOM     11  N   UNL     1       7.308   3.898  13.148  0.00  0.00    +0.000 N 
ATOM     12  H   UNL     1       8.313   3.937  13.277  0.00  0.00    +0.000 HD
ENDBRANCH   3   6
ENDBRANCH   1   4
BRANCH   1  13
ATOM     13  C   UNL     1       5.612   6.065  18.177  0.00  0.00    +0.000 C 
BRANCH  13  14
ATOM     14  C   UNL     1       4.152   6.421  17.922  0.00  0.00    +0.000 C 
ATOM     15  O   UNL     1       3.847   7.243  17.059  0.00  0.00    +0.000 OA
BRANCH  14  16
ATOM     16  C   UNL     1       3.166   5.767  18.760  0.00  0.00    +0.000 A 
ATOM     17  C   UNL     1       2.508   6.253  19.874  0.00  0.00    +0.000 A 
ATOM     18  N   UNL     1       1.627   5.345  20.385  0.00  0.00    +0.000 NA
ATOM     19  C   UNL     1       1.722   4.279  19.620  0.00  0.00    +0.000 A 
ATOM     20  N   UNL     1       1.043   3.098  19.731  0.00  0.00    +0.000 NA
ATOM     21  C   UNL     1       1.334   2.187  18.857  0.00  0.00    +0.000 A 
ATOM     22  C   UNL     1       2.325   2.304  17.756  0.00  0.00    +0.000 A 
ATOM     23  C   UNL     1       2.957   3.483  17.682  0.00  0.00    +0.000 A 
ATOM     24  N   UNL     1       2.665   4.484  18.608  0.00  0.00    +0.000 N 
ENDBRANCH  14  16
ENDBRANCH  13  14
ENDBRANCH   1  13
TORSDOF 5
ENDMDL
MODEL 4
REMARK VINA RESULT:      -7.4      2.156      2.642
REMARK  Name = 
REMARK  5 active torsions:
REMARK  status: ('A' for Active; 'I' for Inactive)
REMARK    1  A    between atoms: C_2  and  C_17
REMARK    2  A    between atoms: N_3  and  C_4
REMARK    3  A    between atoms: C_4  and  C_5
REMARK    4  A    between atoms: C_5  and  C_6
REMARK    5  A    between atoms: C_6  and  C_8
REMARK                            x       y       z     vdW  Elec       q    Type
REMARK                         _______ _______ _______ _____ _____    ______ ____
ROOT
ATOM      1  C   UNL     1       4.886   5.761  17.769  0.00  0.00    +0.000 C 
ENDROOT
BRANCH   1   4
ATOM      2  O   UNL     1       7.222   6.183  16.266  0.00  0.00    +0.000 OA
ATOM      3  C   UNL     1       6.336   5.482  15.784  0.00  0.00    +0.000 C 
ATOM      4  N   UNL     1       5.144   5.255  16.432  0.00  0.00    +0.000 N 
ATOM      5  H   UNL     1       4.462   4.644  16.006  0.00  0.00    +0.000 HD
BRANCH   3   6
ATOM      6  C   UNL     1       6.487   4.832  14.499  0.00  0.00    +0.000 A 
ATOM      7  C   UNL     1       5.841   3.755  13.908  0.00  0.00    +0.000 A 
ATOM      8  C   UNL     1       6.421   3.559  12.638  0.00  0.00    +0.000 A 
ATOM      9 BR   UNL     1       5.905   2.222  11.434  0.00  0.00    +0.000 Br
ATOM     10  C   UNL     1       7.401   4.498  12.456  0.00  0.00    +0.000 A 
ATOM     11  N   UNL     1       7.429   5.272  13.585  0.00  0.00    +0.000 N 
ATOM     12  H   UNL     1       8.048   6.056  13.757  0.00  0.00    +0.000 HD
ENDBRANCH   3   6
ENDBRANCH   1   4
BRANCH   1  13
ATOM     13  C   UNL     1       3.960   6.972  17.757  0.00  0.00    +0.000 C 
BRANCH  13  14
ATOM     14  C   UNL     1       2.697   6.722  18.573  0.00  0.00    +0.000 C 
ATOM     15  O   UNL     1       2.189   7.624  19.237  0.00  0.00    +0.000 OA
BRANCH  14  16
ATOM     16  C   UNL     1       2.158   5.377  18.543  0.00  0.00    +0.000 A 
ATOM     17  C   UNL     1       1.614   4.677  17.482  0.00  0.00    +0.000 A 
ATOM     18  N   UNL     1       1.234   3.417  17.841  0.00  0.00    +0.000 NA
ATOM     19  C   UNL     1       1.515   3.304  19.121  0.00  0.00    +0.000 A 
ATOM     20  N   UNL     1       1.313   2.228  19.937  0.00  0.00    +0.000 NA
ATOM     21  C   UNL     1       1.660   2.377  21.178  0.00  0.00    +0.000 A 
ATOM     22  C   UNL     1       2.252   3.595  21.788  0.00  0.00    +0.000 A 
ATOM     23  C   UNL     1       2.441   4.620  20.945  0.00  0.00    +0.000 A 
ATOM     24  N   UNL     1       2.079   4.490  19.606  0.00  0.00    +0.000 N 
ENDBRANCH  14  16
ENDBRANCH  13  14
ENDBRANCH   1  13
TORSDOF 5
ENDMDL
MODEL 5
REMARK VINA RESULT:      -7.3      1.756      2.007
REMARK  Name = 
REMARK  5 active torsions:
REMARK  status: ('A' for Active; 'I' for Inactive)
REMARK    1  A    between atoms: C_2  and  C_17
REMARK    2  A    between atoms: N_3  and  C_4
REMARK    3  A    between atoms: C_4  and  C_5
REMARK    4  A    between atoms: C_5  and  C_6
REMARK    5  A    between atoms: C_6  and  C_8
REMARK                            x       y       z     vdW  Elec       q    Type
REMARK                         _______ _______ _______ _____ _____    ______ ____
ROOT
ATOM      1  C   UNL     1       7.479   5.486  18.382  0.00  0.00    +0.000 C 
ENDROOT
BRANCH   1   4
ATOM      2  O   UNL     1       6.417   6.837  16.159  0.00  0.00    +0.000 OA
ATOM      3  C   UNL     1       6.816   5.686  16.007  0.00  0.00    +0.000 C 
ATOM      4  N   UNL     1       7.314   4.936  17.048  0.00  0.00    +0.000 N 
ATOM      5  H   UNL     1       7.659   4.006  16.862  0.00  0.00    +0.000 HD
BRANCH   3   6
ATOM      6  C   UNL     1       6.803   5.034  14.713  0.00  0.00    +0.000 A 
ATOM      7  C   UNL     1       6.010   4.033  14.173  0.00  0.00    +0.000 A 
ATOM      8  C   UNL     1       6.469   3.791  12.862  0.00  0.00    +0.000 A 
ATOM      9 BR   UNL     1       5.732   2.522  11.699  0.00  0.00    +0.000 Br
ATOM     10  C   UNL     1       7.521   4.630  12.606  0.00  0.00    +0.000 A 
ATOM     11  N   UNL     1       7.712   5.387  13.730  0.00  0.00    +0.000 N 
ATOM     12  H   UNL     1       8.418   6.104  13.855  0.00  0.00    +0.000 HD
ENDBRANCH   3   6
ENDBRANCH   1   4
BRANCH   1  13
ATOM     13  C   UNL     1       6.379   5.029  19.333  0.00  0.00    +0.000 C 
BRANCH  13  14
ATOM     14  C   UNL     1       4.993   5.333  18.776  0.00  0.00    +0.000 C 
ATOM     15  O   UNL     1       4.631   6.494  18.590  0.00  0.00    +0.000 OA
BRANCH  14  16
ATOM     16  C   UNL     1       4.134   4.196  18.510  0.00  0.00    +0.000 A 
ATOM     17  C   UNL     1       4.297   3.174  17.593  0.00  0.00    +0.000 A 
ATOM     18  N   UNL     1       3.282   2.265  17.655  0.00  0.00    +0.000 NA
ATOM     19  C   UNL     1       2.464   2.697  18.590  0.00  0.00    +0.000 A 
ATOM     20  N   UNL     1       1.296   2.131  19.017  0.00  0.00    +0.000 NA
ATOM     21  C   UNL     1       0.657   2.770  19.946  0.00  0.00    +0.000 A 
ATOM     22  C   UNL     1       1.072   4.046  20.586  0.00  0.00    +0.000 A 
ATOM     23  C   UNL     1       2.229   4.555  20.141  0.00  0.00    +0.000 A 
ATOM     24  N   UNL     1       2.939   3.891  19.143  0.00  0.00    +0.000 N 
ENDBRANCH  14  16
ENDBRANCH  13  14
ENDBRANCH   1  13
TORSDOF 5
ENDMDL
MODEL 6
REMARK VINA RESULT:      -7.3      1.688      1.906
REMARK  Name = 
REMARK  5 active torsions:
REMARK  status: ('A' for Active; 'I' for Inactive)
REMARK    1  A    between atoms: C_2  and  C_17
REMARK    2  A    between atoms: N_3  and  C_4
REMARK    3  A    between atoms: C_4  and  C_5
REMARK    4  A    between atoms: C_5  and  C_6
REMARK    5  A    between atoms: C_6  and  C_8
REMARK                            x       y       z     vdW  Elec       q    Type
REMARK                         _______ _______ _______ _____ _____    ______ ____
ROOT
ATOM      1  C   UNL     1       6.528   6.590  17.507  0.00  0.00    +0.000 C 
ENDROOT
BRANCH   1   4
ATOM      2  O   UNL     1       7.864   4.404  16.352  0.00  0.00    +0.000 OA
ATOM      3  C   UNL     1       7.014   4.988  15.684  0.00  0.00    +0.000 C 
ATOM      4  N   UNL     1       6.339   6.091  16.155  0.00  0.00    +0.000 N 
ATOM      5  H   UNL     1       5.627   6.514  15.578  0.00  0.00    +0.000 HD
BRANCH   3   6
ATOM      6  C   UNL     1       6.649   4.549  14.353  0.00  0.00    +0.000 A 
ATOM      7  C   UNL     1       5.500   3.969  13.836  0.00  0.00    +0.000 A 
ATOM      8  C   UNL     1       5.721   3.745  12.462  0.00  0.00    +0.000 A 
ATOM      9 BR   UNL     1       4.471   2.973  11.301  0.00  0.00    +0.000 Br
ATOM     10  C   UNL     1       6.980   4.180  12.146  0.00  0.00    +0.000 A 
ATOM     11  N   UNL     1       7.533   4.676  13.296  0.00  0.00    +0.000 N 
ATOM     12  H   UNL     1       8.460   5.074  13.389  0.00  0.00    +0.000 HD
ENDBRANCH   3   6
ENDBRANCH   1   4
BRANCH   1  13
ATOM     13  C   UNL     1       5.229   6.596  18.304  0.00  0.00    +0.000 C 
BRANCH  13  14
ATOM     14  C   UNL     1       4.321   5.437  17.908  0.00  0.00    +0.000 C 
ATOM     15  O   UNL     1       3.701   5.460  16.846  0.00  0.00    +0.000 OA
BRANCH  14  16
ATOM     16  C   UNL     1       4.211   4.343  18.852  0.00  0.00    +0.000 A 
ATOM     17  C   UNL     1       5.150   3.386  19.193  0.00  0.00    +0.000 A 
ATOM     18  N   UNL     1       4.683   2.528  20.145  0.00  0.00    +0.000 NA
ATOM     19  C   UNL     1       3.454   2.914  20.409  0.00  0.00    +0.000 A 
ATOM     20  N   UNL     1       2.569   2.364  21.293  0.00  0.00    +0.000 NA
ATOM     21  C   UNL     1       1.400   2.921  21.354  0.00  0.00    +0.000 A 
ATOM     22  C   UNL     1       0.937   4.091  20.564  0.00  0.00    +0.000 A 
ATOM     23  C   UNL     1       1.844   4.601  19.719  0.00  0.00    +0.000 A 
ATOM     24  N   UNL     1       3.110   4.024  19.631  0.00  0.00    +0.000 N 
ENDBRANCH  14  16
ENDBRANCH  13  14
ENDBRANCH   1  13
TORSDOF 5
ENDMDL
MODEL 7
REMARK VINA RESULT:      -7.3      4.005      7.520
REMARK  Name = 
REMARK  5 active torsions:
REMARK  status: ('A' for Active; 'I' for Inactive)
REMARK    1  A    between atoms: C_2  and  C_17
REMARK    2  A    between atoms: N_3  and  C_4
REMARK    3  A    between atoms: C_4  and  C_5
REMARK    4  A    between atoms: C_5  and  C_6
REMARK    5  A    between atoms: C_6  and  C_8
REMARK                            x       y       z     vdW  Elec       q    Type
REMARK                         _______ _______ _______ _____ _____    ______ ____
ROOT
ATOM      1  C   UNL     1       2.855   4.944  17.835  0.00  0.00    +0.000 C 
ENDROOT
BRANCH   1   4
ATOM      2  O   UNL     1       3.328   7.713  17.853  0.00  0.00    +0.000 OA
ATOM      3  C   UNL     1       2.565   7.246  18.694  0.00  0.00    +0.000 C 
ATOM      4  N   UNL     1       2.306   5.897  18.784  0.00  0.00    +0.000 N 
ATOM      5  H   UNL     1       1.647   5.569  19.473  0.00  0.00    +0.000 HD
BRANCH   3   6
ATOM      6  C   UNL     1       1.870   8.084  19.649  0.00  0.00    +0.000 A 
ATOM      7  C   UNL     1       1.142   9.258  19.515  0.00  0.00    +0.000 A 
ATOM      8  C   UNL     1       0.703   9.632  20.801  0.00  0.00    +0.000 A 
ATOM      9 BR   UNL     1      -0.321  11.156  21.169  0.00  0.00    +0.000 Br
ATOM     10  C   UNL     1       1.152   8.704  21.703  0.00  0.00    +0.000 A 
ATOM     11  N   UNL     1       1.850   7.764  20.995  0.00  0.00    +0.000 N 
ATOM     12  H   UNL     1       2.308   6.944  21.379  0.00  0.00    +0.000 HD
ENDBRANCH   3   6
ENDBRANCH   1   4
BRANCH   1  13
ATOM     13  C   UNL     1       3.179   3.605  18.486  0.00  0.00    +0.000 C 
BRANCH  13  14
ATOM     14  C   UNL     1       4.635   3.535  18.932  0.00  0.00    +0.000 C 
ATOM     15  O   UNL     1       4.987   2.740  19.803  0.00  0.00    +0.000 OA
BRANCH  14  16
ATOM     16  C   UNL     1       5.554   4.463  18.304  0.00  0.00    +0.000 A 
ATOM     17  C   UNL     1       6.226   5.536  18.859  0.00  0.00    +0.000 A 
ATOM     18  N   UNL     1       7.028   6.163  17.951  0.00  0.00    +0.000 NA
ATOM     19  C   UNL     1       6.869   5.514  16.818  0.00  0.00    +0.000 A 
ATOM     20  N   UNL     1       7.457   5.767  15.611  0.00  0.00    +0.000 NA
ATOM     21  C   UNL     1       7.115   4.986  14.634  0.00  0.00    +0.000 A 
ATOM     22  C   UNL     1       6.156   3.854  14.702  0.00  0.00    +0.000 A 
ATOM     23  C   UNL     1       5.614   3.639  15.909  0.00  0.00    +0.000 A 
ATOM     24  N   UNL     1       5.962   4.461  16.980  0.00  0.00    +0.000 N 
ENDBRANCH  14  16
ENDBRANCH  13  14
ENDBRANCH   1  13
TORSDOF 5
ENDMDL
MODEL 8
REMARK VINA RESULT:      -7.2      1.713      1.883
REMARK  Name = 
REMARK  5 active torsions:
REMARK  status: ('A' for Active; 'I' for Inactive)
REMARK    1  A    between atoms: C_2  and  C_17
REMARK    2  A    between atoms: N_3  and  C_4
REMARK    3  A    between atoms: C_4  and  C_5
REMARK    4  A    between atoms: C_5  and  C_6
REMARK    5  A    between atoms: C_6  and  C_8
REMARK                            x       y       z     vdW  Elec       q    Type
REMARK                         _______ _______ _______ _____ _____    ______ ____
ROOT
ATOM      1  C   UNL     1       6.883   6.705  17.338  0.00  0.00    +0.000 C 
ENDROOT
BRANCH   1   4
ATOM      2  O   UNL     1       5.142   6.714  15.133  0.00  0.00    +0.000 OA
ATOM      3  C   UNL     1       6.068   5.908  15.142  0.00  0.00    +0.000 C 
ATOM      4  N   UNL     1       6.945   5.806  16.198  0.00  0.00    +0.000 N 
ATOM      5  H   UNL     1       7.708   5.148  16.140  0.00  0.00    +0.000 HD
BRANCH   3   6
ATOM      6  C   UNL     1       6.313   5.010  14.033  0.00  0.00    +0.000 A 
ATOM      7  C   UNL     1       5.649   3.882  13.571  0.00  0.00    +0.000 A 
ATOM      8  C   UNL     1       6.358   3.405  12.450  0.00  0.00    +0.000 A 
ATOM      9 BR   UNL     1       5.873   1.893  11.457  0.00  0.00    +0.000 Br
ATOM     10  C   UNL     1       7.432   4.225  12.229  0.00  0.00    +0.000 A 
ATOM     11  N   UNL     1       7.393   5.201  13.188  0.00  0.00    +0.000 N 
ATOM     12  H   UNL     1       8.055   5.962  13.293  0.00  0.00    +0.000 HD
ENDBRANCH   3   6
ENDBRANCH   1   4
BRANCH   1  13
ATOM     13  C   UNL     1       5.750   6.348  18.292  0.00  0.00    +0.000 C 
BRANCH  13  14
ATOM     14  C   UNL     1       5.597   4.839  18.443  0.00  0.00    +0.000 C 
ATOM     15  O   UNL     1       6.553   4.141  18.777  0.00  0.00    +0.000 OA
BRANCH  14  16
ATOM     16  C   UNL     1       4.291   4.283  18.146  0.00  0.00    +0.000 A 
ATOM     17  C   UNL     1       3.837   3.695  16.980  0.00  0.00    +0.000 A 
ATOM     18  N   UNL     1       2.546   3.268  17.091  0.00  0.00    +0.000 NA
ATOM     19  C   UNL     1       2.163   3.586  18.309  0.00  0.00    +0.000 A 
ATOM     20  N   UNL     1       0.947   3.371  18.893  0.00  0.00    +0.000 NA
ATOM     21  C   UNL     1       0.813   3.801  20.109  0.00  0.00    +0.000 A 
ATOM     22  C   UNL     1       1.846   4.497  20.919  0.00  0.00    +0.000 A 
ATOM     23  C   UNL     1       3.024   4.676  20.305  0.00  0.00    +0.000 A 
ATOM     24  N   UNL     1       3.200   4.224  18.999  0.00  0.00    +0.000 N 
ENDBRANCH  14  16
ENDBRANCH  13  14
ENDBRANCH   1  13
TORSDOF 5
ENDMDL
MODEL 9
REMARK VINA RESULT:      -7.2      1.031      1.864
REMARK  Name = 
REMARK  5 active torsions:
REMARK  status: ('A' for Active; 'I' for Inactive)
REMARK    1  A    between atoms: C_2  and  C_17
REMARK    2  A    between atoms: N_3  and  C_4
REMARK    3  A    between atoms: C_4  and  C_5
REMARK    4  A    between atoms: C_5  and  C_6
REMARK    5  A    between atoms: C_6  and  C_8
REMARK                            x       y       z     vdW  Elec       q    Type
REMARK                         _______ _______ _______ _____ _____    ______ ____
ROOT
ATOM      1  C   UNL     1       6.250   5.718  16.596  0.00  0.00    +0.000 C 
ENDROOT
BRANCH   1   4
ATOM      2  O   UNL     1       7.776   5.067  14.328  0.00  0.00    +0.000 OA
ATOM      3  C   UNL     1       6.586   4.761  14.339  0.00  0.00    +0.000 C 
ATOM      4  N   UNL     1       5.755   5.076  15.390  0.00  0.00    +0.000 N 
ATOM      5  H   UNL     1       4.793   4.773  15.362  0.00  0.00    +0.000 HD
BRANCH   3   6
ATOM      6  C   UNL     1       5.971   4.034  13.248  0.00  0.00    +0.000 A 
ATOM      7  C   UNL     1       4.777   4.201  12.562  0.00  0.00    +0.000 A 
ATOM      8  C   UNL     1       4.698   3.177  11.596  0.00  0.00    +0.000 A 
ATOM      9 BR   UNL     1       3.271   2.953  10.405  0.00  0.00    +0.000 Br
ATOM     10  C   UNL     1       5.822   2.401  11.689  0.00  0.00    +0.000 A 
ATOM     11  N   UNL     1       6.594   2.932  12.687  0.00  0.00    +0.000 N 
ATOM     12  H   UNL     1       7.493   2.582  12.998  0.00  0.00    +0.000 HD
ENDBRANCH   3   6
ENDBRANCH   1   4
BRANCH   1  13
ATOM     13  C   UNL     1       6.618   4.709  17.676  0.00  0.00    +0.000 C 
BRANCH  13  14
ATOM     14  C   UNL     1       5.975   5.058  19.014  0.00  0.00    +0.000 C 
ATOM     15  O   UNL     1       6.669   5.299  20.000  0.00  0.00    +0.000 OA
BRANCH  14  16
ATOM     16  C   UNL     1       4.526   5.059  19.060  0.00  0.00    +0.000 A 
ATOM     17  C   UNL     1       3.660   6.117  19.268  0.00  0.00    +0.000 A 
ATOM     18  N   UNL     1       2.354   5.728  19.217  0.00  0.00    +0.000 NA
ATOM     19  C   UNL     1       2.371   4.432  18.993  0.00  0.00    +0.000 A 
ATOM     20  N   UNL     1       1.308   3.583  18.866  0.00  0.00    +0.000 NA
ATOM     21  C   UNL     1       1.593   2.334  18.667  0.00  0.00    +0.000 A 
ATOM     22  C   UNL     1       2.952   1.745  18.563  0.00  0.00    +0.000 A 
ATOM     23  C   UNL     1       3.962   2.618  18.683  0.00  0.00    +0.000 A 
ATOM     24  N   UNL     1       3.688   3.968  18.897  0.00  0.00    +0.000 N 
ENDBRANCH  14  16
ENDBRANCH  13  14
ENDBRANCH   1  13
TORSDOF 5
ENDMDL
