MODEL 1
REMARK VINA RESULT:      -7.3      0.000      0.000
REMARK  Name = 
REMARK  6 active torsions:
REMARK  status: ('A' for Active; 'I' for Inactive)
REMARK    1  A    between atoms: C_1  and  C_2
REMARK    2  A    between atoms: C_6  and  O_7
REMARK    3  A    between atoms: O_7  and  C_8
REMARK    4  A    between atoms: C_8  and  C_9
REMARK    5  A    between atoms: N_11  and  C_12
REMARK    6  A    between atoms: C_19  and  C_20
REMARK                            x       y       z     vdW  Elec       q    Type
REMARK                         _______ _______ _______ _____ _____    ______ ____
ROOT
ATOM      1  C   UNL     1       7.287   4.917  17.632  0.00  0.00    +0.000 C 
ATOM      2  O   UNL     1       8.264   4.163  17.668  0.00  0.00    +0.000 OA
ATOM      3  N   UNL     1       6.642   5.237  16.449  0.00  0.00    +0.000 N 
ATOM      4  H   UNL     1       5.733   5.687  16.486  0.00  0.00    +0.000 HD
ENDROOT
BRANCH   3   5
ATOM      5  C   UNL     1       7.097   4.633  15.195  0.00  0.00    +0.000 C 
ATOM      6  C   UNL     1       6.143   3.513  14.741  0.00  0.00    +0.000 C 
ATOM      7  C   UNL     1       5.347   3.761  13.457  0.00  0.00    +0.000 C 
ATOM      8  C   UNL     1       6.162   3.504  12.190  0.00  0.00    +0.000 C 
ATOM      9  C   UNL     1       7.176   4.583  11.820  0.00  0.00    +0.000 C 
ATOM     10  C   UNL     1       8.136   5.011  12.926  0.00  0.00    +0.000 C 
ATOM     11  C   UNL     1       7.448   5.673  14.126  0.00  0.00    +0.000 C 
ENDBRANCH   3   5
BRANCH   1  12
ATOM     12  C   UNL     1       6.743   5.540  18.911  0.00  0.00    +0.000 C 
BRANCH  12  13
ATOM     13  O   UNL     1       5.827   4.623  19.497  0.00  0.00    +0.000 OA
BRANCH  13  19
ATOM     14  C   UNL     1       1.516   2.287  19.273  0.00  0.00    +0.000 C 
ATOM     15  C   UNL     1       2.372   3.500  19.020  0.00  0.00    +0.000 A 
ATOM     16  C   UNL     1       1.781   4.644  18.472  0.00  0.00    +0.000 A 
ATOM     17  C   UNL     1       2.542   5.787  18.230  0.00  0.00    +0.000 A 
ATOM     18  C   UNL     1       3.899   5.806  18.552  0.00  0.00    +0.000 A 
ATOM     19  C   UNL     1       4.512   4.681  19.113  0.00  0.00    +0.000 A 
ATOM     20  C   UNL     1       3.754   3.508  19.331  0.00  0.00    +0.000 A 
ATOM     21  C   UNL     1       4.399   2.261  19.887  0.00  0.00    +0.000 C 
ENDBRANCH  13  19
ENDBRANCH  12  13
ENDBRANCH   1  12
TORSDOF 4
ENDMDL
MODEL 2
REMARK VINA RESULT:      -7.2      4.747      8.267
REMARK  Name = 
REMARK  6 active torsions:
REMARK  status: ('A' for Active; 'I' for Inactive)
REMARK    1  A    between atoms: C_1  and  C_2
REMARK    2  A    between atoms: C_6  and  O_7
REMARK    3  A    between atoms: O_7  and  C_8
REMARK    4  A    between atoms: C_8  and  C_9
REMARK    5  A    between atoms: N_11  and  C_12
REMARK    6  A    between atoms: C_19  and  C_20
REMARK                            x       y       z     vdW  Elec       q    Type
REMARK                         _______ _______ _______ _____ _____    ______ ____
ROOT
ATOM      1  C   UNL     1       1.776   8.718  18.527  0.00  0.00    +0.000 C 
ATOM      2  O   UNL     1       1.131   9.415  17.739  0.00  0.00    +0.000 OA
ATOM      3  N   UNL     1       1.510   8.699  19.886  0.00  0.00    +0.000 N 
ATOM      4  H   UNL     1       1.919   7.968  20.461  0.00  0.00    +0.000 HD
ENDROOT
BRANCH   3   5
ATOM      5  C   UNL     1       0.401   9.495  20.415  0.00  0.00    +0.000 C 
ATOM      6  C   UNL     1      -0.278   8.782  21.599  0.00  0.00    +0.000 C 
ATOM      7  C   UNL     1      -0.141   9.441  22.973  0.00  0.00    +0.000 C 
ATOM      8  C   UNL     1      -1.119  10.598  23.181  0.00  0.00    +0.000 C 
ATOM      9  C   UNL     1      -0.765  11.903  22.473  0.00  0.00    +0.000 C 
ATOM     10  C   UNL     1      -0.461  11.799  20.982  0.00  0.00    +0.000 C 
ATOM     11  C   UNL     1       0.781  10.960  20.657  0.00  0.00    +0.000 C 
ENDBRANCH   3   5
BRANCH   1  12
ATOM     12  C   UNL     1       2.914   7.836  18.029  0.00  0.00    +0.000 C 
BRANCH  12  13
ATOM     13  O   UNL     1       3.075   6.761  18.946  0.00  0.00    +0.000 OA
BRANCH  13  19
ATOM     14  C   UNL     1       0.834   2.411  19.324  0.00  0.00    +0.000 C 
ATOM     15  C   UNL     1       1.840   3.322  18.672  0.00  0.00    +0.000 A 
ATOM     16  C   UNL     1       2.577   2.848  17.581  0.00  0.00    +0.000 A 
ATOM     17  C   UNL     1       3.513   3.667  16.950  0.00  0.00    +0.000 A 
ATOM     18  C   UNL     1       3.710   4.975  17.391  0.00  0.00    +0.000 A 
ATOM     19  C   UNL     1       2.976   5.478  18.472  0.00  0.00    +0.000 A 
ATOM     20  C   UNL     1       2.050   4.645  19.136  0.00  0.00    +0.000 A 
ATOM     21  C   UNL     1       1.282   5.142  20.337  0.00  0.00    +0.000 C 
ENDBRANCH  13  19
ENDBRANCH  12  13
ENDBRANCH   1  12
TORSDOF 4
ENDMDL
MODEL 3
REMARK VINA RESULT:      -7.0      4.906      8.425
REMARK  Name = 
REMARK  6 active torsions:
REMARK  status: ('A' for Active; 'I' for Inactive)
REMARK    1  A    between atoms: C_1  and  C_2
REMARK    2  A    between atoms: C_6  and  O_7
REMARK    3  A    between atoms: O_7  and  C_8
REMARK    4  A    between atoms: C_8  and  C_9
REMARK    5  A    between atoms: N_11  and  C_12
REMARK    6  A    between atoms: C_19  and  C_20
REMARK                            x       y       z     vdW  Elec       q    Type
REMARK                         _______ _______ _______ _____ _____    ______ ____
ROOT
ATOM      1  C   UNL     1       1.552   8.964  18.394  0.00  0.00    +0.000 C 
ATOM      2  O   UNL     1       0.711   9.494  17.662  0.00  0.00    +0.000 OA
ATOM      3  N   UNL     1       1.459   9.001  19.775  0.00  0.00    +0.000 N 
ATOM      4  H   UNL     1       2.048   8.387  20.329  0.00  0.00    +0.000 HD
ENDROOT
BRANCH   3   5
ATOM      5  C   UNL     1       0.305   9.650  20.403  0.00  0.00    +0.000 C 
ATOM      6  C   UNL     1      -0.207   8.831  21.602  0.00  0.00    +0.000 C 
ATOM      7  C   UNL     1      -0.051   9.463  22.987  0.00  0.00    +0.000 C 
ATOM      8  C   UNL     1      -1.137  10.493  23.298  0.00  0.00    +0.000 C 
ATOM      9  C   UNL     1      -0.982  11.850  22.616  0.00  0.00    +0.000 C 
ATOM     10  C   UNL     1      -0.771  11.822  21.105  0.00  0.00    +0.000 C 
ATOM     11  C   UNL     1       0.533  11.141  20.671  0.00  0.00    +0.000 C 
ENDBRANCH   3   5
BRANCH   1  12
ATOM     12  C   UNL     1       2.751   8.238  17.798  0.00  0.00    +0.000 C 
BRANCH  12  13
ATOM     13  O   UNL     1       2.974   7.055  18.556  0.00  0.00    +0.000 OA
BRANCH  13  19
ATOM     14  C   UNL     1       2.709   2.213  17.798  0.00  0.00    +0.000 C 
ATOM     15  C   UNL     1       3.353   3.552  17.551  0.00  0.00    +0.000 A 
ATOM     16  C   UNL     1       4.415   3.636  16.644  0.00  0.00    +0.000 A 
ATOM     17  C   UNL     1       5.030   4.861  16.386  0.00  0.00    +0.000 A 
ATOM     18  C   UNL     1       4.578   6.019  17.019  0.00  0.00    +0.000 A 
ATOM     19  C   UNL     1       3.509   5.964  17.920  0.00  0.00    +0.000 A 
ATOM     20  C   UNL     1       2.902   4.723  18.210  0.00  0.00    +0.000 A 
ATOM     21  C   UNL     1       1.781   4.624  19.217  0.00  0.00    +0.000 C 
ENDBRANCH  13  19
ENDBRANCH  12  13
ENDBRANCH   1  12
TORSDOF 4
ENDMDL
MODEL 4
REMARK VINA RESULT:      -6.9      4.969      6.858
REMARK  Name = 
REMARK  6 active torsions:
REMARK  status: ('A' for Active; 'I' for Inactive)
REMARK    1  A    between atoms: C_1  and  C_2
REMARK    2  A    between atoms: C_6  and  O_7
REMARK    3  A    between atoms: O_7  and  C_8
REMARK    4  A    between atoms: C_8  and  C_9
REMARK    5  A    between atoms: N_11  and  C_12
REMARK    6  A    between atoms: C_19  and  C_20
REMARK                            x       y       z     vdW  Elec       q    Type
REMARK                         _______ _______ _______ _____ _____    ______ ____
ROOT
ATOM      1  C   UNL     1       8.201   8.509  18.289  0.00  0.00    +0.000 C 
ATOM      2  O   UNL     1       7.463   9.102  17.497  0.00  0.00    +0.000 OA
ATOM      3  N   UNL     1       9.123   9.173  19.081  0.00  0.00    +0.000 N 
ATOM      4  H   UNL     1       9.557   8.681  19.855  0.00  0.00    +0.000 HD
ENDROOT
BRANCH   3   5
ATOM      5  C   UNL     1       9.207  10.634  19.019  0.00  0.00    +0.000 C 
ATOM      6  C   UNL     1       9.422  11.237  20.419  0.00  0.00    +0.000 C 
ATOM      7  C   UNL     1      10.765  11.924  20.676  0.00  0.00    +0.000 C 
ATOM      8  C   UNL     1      10.826  13.344  20.116  0.00  0.00    +0.000 C 
ATOM      9  C   UNL     1      11.011  13.456  18.604  0.00  0.00    +0.000 C 
ATOM     10  C   UNL     1      10.043  12.647  17.747  0.00  0.00    +0.000 C 
ATOM     11  C   UNL     1      10.166  11.130  17.932  0.00  0.00    +0.000 C 
ENDBRANCH   3   5
BRANCH   1  12
ATOM     12  C   UNL     1       8.129   6.993  18.429  0.00  0.00    +0.000 C 
BRANCH  12  13
ATOM     13  O   UNL     1       6.758   6.617  18.472  0.00  0.00    +0.000 OA
BRANCH  13  19
ATOM     14  C   UNL     1       3.191   3.509  17.168  0.00  0.00    +0.000 C 
ATOM     15  C   UNL     1       4.499   4.202  16.894  0.00  0.00    +0.000 A 
ATOM     16  C   UNL     1       5.145   3.973  15.674  0.00  0.00    +0.000 A 
ATOM     17  C   UNL     1       6.355   4.603  15.385  0.00  0.00    +0.000 A 
ATOM     18  C   UNL     1       6.924   5.483  16.305  0.00  0.00    +0.000 A 
ATOM     19  C   UNL     1       6.293   5.739  17.527  0.00  0.00    +0.000 A 
ATOM     20  C   UNL     1       5.083   5.081  17.840  0.00  0.00    +0.000 A 
ATOM     21  C   UNL     1       4.405   5.297  19.172  0.00  0.00    +0.000 C 
ENDBRANCH  13  19
ENDBRANCH  12  13
ENDBRANCH   1  12
TORSDOF 4
ENDMDL
MODEL 5
REMARK VINA RESULT:      -6.8      1.236      1.450
REMARK  Name = 
REMARK  6 active torsions:
REMARK  status: ('A' for Active; 'I' for Inactive)
REMARK    1  A    between atoms: C_1  and  C_2
REMARK    2  A    between atoms: C_6  and  O_7
REMARK    3  A    between atoms: O_7  and  C_8
REMARK    4  A    between atoms: C_8  and  C_9
REMARK    5  A    between atoms: N_11  and  C_12
REMARK    6  A    between atoms: C_19  and  C_20
REMARK                            x       y       z     vdW  Elec       q    Type
REMARK                         _______ _______ _______ _____ _____    ______ ____
ROOT
ATOM      1  C   UNL     1       6.530   4.867  17.430  0.00  0.00    +0.000 C 
ATOM      2  O   UNL     1       7.740   4.679  17.585  0.00  0.00    +0.000 OA
ATOM      3  N   UNL     1       5.921   4.791  16.189  0.00  0.00    +0.000 N 
ATOM      4  H   UNL     1       4.908   4.748  16.135  0.00  0.00    +0.000 HD
ENDROOT
BRANCH   3   5
ATOM      5  C   UNL     1       6.721   4.431  15.016  0.00  0.00    +0.000 C 
ATOM      6  C   UNL     1       6.072   3.272  14.237  0.00  0.00    +0.000 C 
ATOM      7  C   UNL     1       5.539   3.593  12.839  0.00  0.00    +0.000 C 
ATOM      8  C   UNL     1       6.635   3.621  11.774  0.00  0.00    +0.000 C 
ATOM      9  C   UNL     1       7.523   4.863  11.765  0.00  0.00    +0.000 C 
ATOM     10  C   UNL     1       8.147   5.252  13.102  0.00  0.00    +0.000 C 
ATOM     11  C   UNL     1       7.125   5.646  14.174  0.00  0.00    +0.000 C 
ENDBRANCH   3   5
BRANCH   1  12
ATOM     12  C   UNL     1       5.640   5.202  18.621  0.00  0.00    +0.000 C 
BRANCH  12  13
ATOM     13  O   UNL     1       4.337   5.493  18.132  0.00  0.00    +0.000 OA
BRANCH  13  19
ATOM     14  C   UNL     1       0.663   2.310  18.810  0.00  0.00    +0.000 C 
ATOM     15  C   UNL     1       1.440   3.532  19.222  0.00  0.00    +0.000 A 
ATOM     16  C   UNL     1       1.072   4.207  20.391  0.00  0.00    +0.000 A 
ATOM     17  C   UNL     1       1.772   5.339  20.806  0.00  0.00    +0.000 A 
ATOM     18  C   UNL     1       2.861   5.799  20.065  0.00  0.00    +0.000 A 
ATOM     19  C   UNL     1       3.257   5.136  18.899  0.00  0.00    +0.000 A 
ATOM     20  C   UNL     1       2.533   4.007  18.456  0.00  0.00    +0.000 A 
ATOM     21  C   UNL     1       2.905   3.301  17.174  0.00  0.00    +0.000 C 
ENDBRANCH  13  19
ENDBRANCH  12  13
ENDBRANCH   1  12
TORSDOF 4
ENDMDL
MODEL 6
REMARK VINA RESULT:      -6.8      5.575      7.870
REMARK  Name = 
REMARK  6 active torsions:
REMARK  status: ('A' for Active; 'I' for Inactive)
REMARK    1  A    between atoms: C_1  and  C_2
REMARK    2  A    between atoms: C_6  and  O_7
REMARK    3  A    between atoms: O_7  and  C_8
REMARK    4  A    between atoms: C_8  and  C_9
REMARK    5  A    between atoms: N_11  and  C_12
REMARK    6  A    between atoms: C_19  and  C_20
REMARK                            x       y       z     vdW  Elec       q    Type
REMARK                         _______ _______ _______ _____ _____    ______ ____
ROOT
ATOM      1  C   UNL     1       8.017   8.154  17.969  0.00  0.00    +0.000 C 
ATOM      2  O   UNL     1       8.511   7.447  18.852  0.00  0.00    +0.000 OA
ATOM      3  N   UNL     1       7.189   7.639  16.986  0.00  0.00    +0.000 N 
ATOM      4  H   UNL     1       6.647   8.277  16.411  0.00  0.00    +0.000 HD
ENDROOT
BRANCH   3   5
ATOM      5  C   UNL     1       6.842   6.217  17.007  0.00  0.00    +0.000 C 
ATOM      6  C   UNL     1       5.580   5.967  17.853  0.00  0.00    +0.000 C 
ATOM      7  C   UNL     1       4.333   5.487  17.107  0.00  0.00    +0.000 C 
ATOM      8  C   UNL     1       4.358   3.989  16.803  0.00  0.00    +0.000 C 
ATOM      9  C   UNL     1       5.264   3.559  15.652  0.00  0.00    +0.000 C 
ATOM     10  C   UNL     1       6.704   4.058  15.706  0.00  0.00    +0.000 C 
ATOM     11  C   UNL     1       6.838   5.583  15.612  0.00  0.00    +0.000 C 
ENDBRANCH   3   5
BRANCH   1  12
ATOM     12  C   UNL     1       8.308   9.649  17.921  0.00  0.00    +0.000 C 
BRANCH  12  13
ATOM     13  O   UNL     1       9.270   9.946  18.926  0.00  0.00    +0.000 OA
BRANCH  13  19
ATOM     14  C   UNL     1      10.473  14.084  21.274  0.00  0.00    +0.000 C 
ATOM     15  C   UNL     1      10.521  13.198  20.057  0.00  0.00    +0.000 A 
ATOM     16  C   UNL     1      11.279  13.604  18.953  0.00  0.00    +0.000 A 
ATOM     17  C   UNL     1      11.351  12.806  17.812  0.00  0.00    +0.000 A 
ATOM     18  C   UNL     1      10.680  11.583  17.769  0.00  0.00    +0.000 A 
ATOM     19  C   UNL     1       9.927  11.148  18.865  0.00  0.00    +0.000 A 
ATOM     20  C   UNL     1       9.823  11.966  20.011  0.00  0.00    +0.000 A 
ATOM     21  C   UNL     1       8.976  11.547  21.189  0.00  0.00    +0.000 C 
ENDBRANCH  13  19
ENDBRANCH  12  13
ENDBRANCH   1  12
TORSDOF 4
ENDMDL
MODEL 7
REMARK VINA RESULT:      -6.7      4.858      7.625
REMARK  Name = 
REMARK  6 active torsions:
REMARK  status: ('A' for Active; 'I' for Inactive)
REMARK    1  A    between atoms: C_1  and  C_2
REMARK    2  A    between atoms: C_6  and  O_7
REMARK    3  A    between atoms: O_7  and  C_8
REMARK    4  A    between atoms: C_8  and  C_9
REMARK    5  A    between atoms: N_11  and  C_12
REMARK    6  A    between atoms: C_19  and  C_20
REMARK                            x       y       z     vdW  Elec       q    Type
REMARK                         _______ _______ _______ _____ _____    ______ ____
ROOT
ATOM      1  C   UNL     1       2.694   7.781  17.999  0.00  0.00    +0.000 C 
ATOM      2  O   UNL     1       3.736   7.437  17.433  0.00  0.00    +0.000 OA
ATOM      3  N   UNL     1       1.917   6.892  18.722  0.00  0.00    +0.000 N 
ATOM      4  H   UNL     1       1.191   7.252  19.334  0.00  0.00    +0.000 HD
ENDROOT
BRANCH   3   5
ATOM      5  C   UNL     1       2.356   5.502  18.866  0.00  0.00    +0.000 C 
ATOM      6  C   UNL     1       2.201   5.020  20.320  0.00  0.00    +0.000 C 
ATOM      7  C   UNL     1       1.162   3.927  20.578  0.00  0.00    +0.000 C 
ATOM      8  C   UNL     1       1.666   2.527  20.226  0.00  0.00    +0.000 C 
ATOM      9  C   UNL     1       1.711   2.191  18.738  0.00  0.00    +0.000 C 
ATOM     10  C   UNL     1       2.430   3.196  17.843  0.00  0.00    +0.000 C 
ATOM     11  C   UNL     1       1.765   4.576  17.797  0.00  0.00    +0.000 C 
ENDBRANCH   3   5
BRANCH   1  12
ATOM     12  C   UNL     1       2.210   9.223  17.921  0.00  0.00    +0.000 C 
BRANCH  12  13
ATOM     13  O   UNL     1       1.380   9.474  19.048  0.00  0.00    +0.000 OA
BRANCH  13  19
ATOM     14  C   UNL     1      -1.939  12.702  20.675  0.00  0.00    +0.000 C 
ATOM     15  C   UNL     1      -1.475  11.685  19.667  0.00  0.00    +0.000 A 
ATOM     16  C   UNL     1      -2.269  11.435  18.541  0.00  0.00    +0.000 A 
ATOM     17  C   UNL     1      -1.867  10.504  17.584  0.00  0.00    +0.000 A 
ATOM     18  C   UNL     1      -0.658   9.824  17.732  0.00  0.00    +0.000 A 
ATOM     19  C   UNL     1       0.160  10.065  18.842  0.00  0.00    +0.000 A 
ATOM     20  C   UNL     1      -0.255  10.983  19.831  0.00  0.00    +0.000 A 
ATOM     21  C   UNL     1       0.582  11.225  21.064  0.00  0.00    +0.000 C 
ENDBRANCH  13  19
ENDBRANCH  12  13
ENDBRANCH   1  12
TORSDOF 4
ENDMDL
MODEL 8
REMARK VINA RESULT:      -6.7      1.636      6.481
REMARK  Name = 
REMARK  6 active torsions:
REMARK  status: ('A' for Active; 'I' for Inactive)
REMARK    1  A    between atoms: C_1  and  C_2
REMARK    2  A    between atoms: C_6  and  O_7
REMARK    3  A    between atoms: O_7  and  C_8
REMARK    4  A    between atoms: C_8  and  C_9
REMARK    5  A    between atoms: N_11  and  C_12
REMARK    6  A    between atoms: C_19  and  C_20
REMARK                            x       y       z     vdW  Elec       q    Type
REMARK                         _______ _______ _______ _____ _____    ______ ____
ROOT
ATOM      1  C   UNL     1       5.090   6.236  17.293  0.00  0.00    +0.000 C 
ATOM      2  O   UNL     1       4.406   7.260  17.368  0.00  0.00    +0.000 OA
ATOM      3  N   UNL     1       4.624   5.002  17.715  0.00  0.00    +0.000 N 
ATOM      4  H   UNL     1       5.130   4.163  17.449  0.00  0.00    +0.000 HD
ENDROOT
BRANCH   3   5
ATOM      5  C   UNL     1       3.258   4.885  18.230  0.00  0.00    +0.000 C 
ATOM      6  C   UNL     1       2.468   3.805  17.467  0.00  0.00    +0.000 C 
ATOM      7  C   UNL     1       2.068   2.557  18.256  0.00  0.00    +0.000 C 
ATOM      8  C   UNL     1       0.828   2.771  19.125  0.00  0.00    +0.000 C 
ATOM      9  C   UNL     1       1.045   3.565  20.411  0.00  0.00    +0.000 C 
ATOM     10  C   UNL     1       1.760   4.904  20.261  0.00  0.00    +0.000 C 
ATOM     11  C   UNL     1       3.203   4.787  19.758  0.00  0.00    +0.000 C 
ENDBRANCH   3   5
BRANCH   1  12
ATOM     12  C   UNL     1       6.503   6.288  16.725  0.00  0.00    +0.000 C 
BRANCH  12  13
ATOM     13  O   UNL     1       6.819   5.003  16.205  0.00  0.00    +0.000 OA
BRANCH  13  19
ATOM     14  C   UNL     1       5.350   2.864  12.039  0.00  0.00    +0.000 C 
ATOM     15  C   UNL     1       6.256   3.804  12.788  0.00  0.00    +0.000 A 
ATOM     16  C   UNL     1       7.201   4.548  12.074  0.00  0.00    +0.000 A 
ATOM     17  C   UNL     1       8.052   5.433  12.735  0.00  0.00    +0.000 A 
ATOM     18  C   UNL     1       7.956   5.597  14.116  0.00  0.00    +0.000 A 
ATOM     19  C   UNL     1       7.011   4.875  14.853  0.00  0.00    +0.000 A 
ATOM     20  C   UNL     1       6.167   3.954  14.195  0.00  0.00    +0.000 A 
ATOM     21  C   UNL     1       5.173   3.123  14.970  0.00  0.00    +0.000 C 
ENDBRANCH  13  19
ENDBRANCH  12  13
ENDBRANCH   1  12
TORSDOF 4
ENDMDL
MODEL 9
REMARK VINA RESULT:      -6.7      3.343      4.679
REMARK  Name = 
REMARK  6 active torsions:
REMARK  status: ('A' for Active; 'I' for Inactive)
REMARK    1  A    between atoms: C_1  and  C_2
REMARK    2  A    between atoms: C_6  and  O_7
REMARK    3  A    between atoms: O_7  and  C_8
REMARK    4  A    between atoms: C_8  and  C_9
REMARK    5  A    between atoms: N_11  and  C_12
REMARK    6  A    between atoms: C_19  and  C_20
REMARK                            x       y       z     vdW  Elec       q    Type
REMARK                         _______ _______ _______ _____ _____    ______ ____
ROOT
ATOM      1  C   UNL     1       2.287   5.473  17.972  0.00  0.00    +0.000 C 
ATOM      2  O   UNL     1       2.079   6.212  18.938  0.00  0.00    +0.000 OA
ATOM      3  N   UNL     1       3.530   5.378  17.368  0.00  0.00    +0.000 N 
ATOM      4  H   UNL     1       3.708   4.617  16.719  0.00  0.00    +0.000 HD
ENDROOT
BRANCH   3   5
ATOM      5  C   UNL     1       4.656   6.140  17.911  0.00  0.00    +0.000 C 
ATOM      6  C   UNL     1       5.305   5.402  19.096  0.00  0.00    +0.000 C 
ATOM      7  C   UNL     1       6.730   4.885  18.890  0.00  0.00    +0.000 C 
ATOM      8  C   UNL     1       7.791   5.973  19.060  0.00  0.00    +0.000 C 
ATOM      9  C   UNL     1       7.933   6.950  17.896  0.00  0.00    +0.000 C 
ATOM     10  C   UNL     1       6.646   7.610  17.411  0.00  0.00    +0.000 C 
ATOM     11  C   UNL     1       5.623   6.628  16.828  0.00  0.00    +0.000 C 
ENDBRANCH   3   5
BRANCH   1  12
ATOM     12  C   UNL     1       1.164   4.623  17.390  0.00  0.00    +0.000 C 
BRANCH  12  13
ATOM     13  O   UNL     1       1.389   3.272  17.771  0.00  0.00    +0.000 OA
BRANCH  13  19
ATOM     14  C   UNL     1       4.846   1.599  20.828  0.00  0.00    +0.000 C 
ATOM     15  C   UNL     1       3.480   2.181  20.576  0.00  0.00    +0.000 A 
ATOM     16  C   UNL     1       2.661   2.486  21.668  0.00  0.00    +0.000 A 
ATOM     17  C   UNL     1       1.392   3.031  21.471  0.00  0.00    +0.000 A 
ATOM     18  C   UNL     1       0.935   3.294  20.180  0.00  0.00    +0.000 A 
ATOM     19  C   UNL     1       1.740   3.010  19.071  0.00  0.00    +0.000 A 
ATOM     20  C   UNL     1       3.013   2.428  19.261  0.00  0.00    +0.000 A 
ATOM     21  C   UNL     1       3.882   2.063  18.081  0.00  0.00    +0.000 C 
ENDBRANCH  13  19
ENDBRANCH  12  13
ENDBRANCH   1  12
TORSDOF 4
ENDMDL
