MODEL 1
REMARK VINA RESULT:      -7.3      0.000      0.000
REMARK  Name = 
REMARK  9 active torsions:
REMARK  status: ('A' for Active; 'I' for Inactive)
REMARK    1  A    between atoms: C_1  and  C_2
REMARK    2  A    between atoms: C_4  and  C_5
REMARK    3  A    between atoms: N_8  and  C_9
REMARK    4  A    between atoms: C_9  and  C_10
REMARK    5  A    between atoms: C_10  and  O_11
REMARK    6  A    between atoms: C_10  and  C_12
REMARK    7  A    between atoms: C_12  and  O_13
REMARK    8  A    between atoms: O_13  and  C_14
REMARK    9  A    between atoms: C_19  and  C_20
REMARK                            x       y       z     vdW  Elec       q    Type
REMARK                         _______ _______ _______ _____ _____    ______ ____
ROOT
ATOM      1  C   UNL     1       6.554   5.921  17.779  0.00  0.00    +0.000 C 
ENDROOT
BRANCH   1   2
ATOM      2  O   UNL     1       6.540   7.005  16.838  0.00  0.00    +0.000 OA
ATOM      3  H   UNL     1       7.375   7.494  16.919  0.00  0.00    +0.000 HD
ENDBRANCH   1   2
BRANCH   1   4
ATOM      4  C   UNL     1       6.894   4.600  17.053  0.00  0.00    +0.000 C 
BRANCH   4  12
ATOM      5  C   UNL     1       8.847   6.096  12.678  0.00  0.00    +0.000 C 
ATOM      6  C   UNL     1       7.755   5.147  13.069  0.00  0.00    +0.000 A 
ATOM      7  C   UNL     1       7.163   4.326  12.133  0.00  0.00    +0.000 A 
ATOM      8  C   UNL     1       6.160   3.499  12.593  0.00  0.00    +0.000 A 
ATOM      9  C   UNL     1       5.437   2.570  11.666  0.00  0.00    +0.000 C 
ATOM     10  N   UNL     1       5.771   3.488  13.884  0.00  0.00    +0.000 NA
ATOM     11  C   UNL     1       6.383   4.325  14.725  0.00  0.00    +0.000 A 
ATOM     12  N   UNL     1       5.908   4.323  16.025  0.00  0.00    +0.000 N 
ATOM     13  N   UNL     1       7.382   5.149  14.367  0.00  0.00    +0.000 NA
ATOM     14  H   UNL     1       5.377   3.468  16.159  0.00  0.00    +0.000 HD
ENDBRANCH   4  12
ENDBRANCH   1   4
BRANCH   1  15
ATOM     15  C   UNL     1       5.197   5.757  18.489  0.00  0.00    +0.000 C 
BRANCH  15  16
ATOM     16  O   UNL     1       4.848   4.379  18.619  0.00  0.00    +0.000 OA
BRANCH  16  17
ATOM     17  C   UNL     1       3.612   4.091  19.141  0.00  0.00    +0.000 A 
ATOM     18  C   UNL     1       3.089   5.122  19.937  0.00  0.00    +0.000 A 
ATOM     19  C   UNL     1       1.875   4.978  20.609  0.00  0.00    +0.000 A 
ATOM     20  C   UNL     1       1.163   3.790  20.503  0.00  0.00    +0.000 A 
ATOM     21  C   UNL     1       1.674   2.754  19.725  0.00  0.00    +0.000 A 
ATOM     22  C   UNL     1       2.903   2.879  19.049  0.00  0.00    +0.000 A 
ATOM     23  C   UNL     1       3.377   1.660  18.306  0.00  0.00    +0.000 C 
ENDBRANCH  16  17
ENDBRANCH  15  16
ENDBRANCH   1  15
TORSDOF 6
ENDMDL
MODEL 2
REMARK VINA RESULT:      -7.2      0.745      1.680
REMARK  Name = 
REMARK  9 active torsions:
REMARK  status: ('A' for Active; 'I' for Inactive)
REMARK    1  A    between atoms: C_1  and  C_2
REMARK    2  A    between atoms: C_4  and  C_5
REMARK    3  A    between atoms: N_8  and  C_9
REMARK    4  A    between atoms: C_9  and  C_10
REMARK    5  A    between atoms: C_10  and  O_11
REMARK    6  A    between atoms: C_10  and  C_12
REMARK    7  A    between atoms: C_12  and  O_13
REMARK    8  A    between atoms: O_13  and  C_14
REMARK    9  A    between atoms: C_19  and  C_20
REMARK                            x       y       z     vdW  Elec       q    Type
REMARK                         _______ _______ _______ _____ _____    ______ ____
ROOT
ATOM      1  C   UNL     1       6.367   5.883  18.047  0.00  0.00    +0.000 C 
ENDROOT
BRANCH   1   2
ATOM      2  O   UNL     1       5.861   7.005  17.310  0.00  0.00    +0.000 OA
ATOM      3  H   UNL     1       5.901   7.791  17.878  0.00  0.00    +0.000 HD
ENDBRANCH   1   2
BRANCH   1   4
ATOM      4  C   UNL     1       6.923   4.821  17.071  0.00  0.00    +0.000 C 
BRANCH   4  12
ATOM      5  C   UNL     1       8.889   6.112  12.638  0.00  0.00    +0.000 C 
ATOM      6  C   UNL     1       7.790   5.188  13.068  0.00  0.00    +0.000 A 
ATOM      7  C   UNL     1       7.192   4.332  12.168  0.00  0.00    +0.000 A 
ATOM      8  C   UNL     1       6.184   3.533  12.663  0.00  0.00    +0.000 A 
ATOM      9  C   UNL     1       5.454   2.569  11.777  0.00  0.00    +0.000 C 
ATOM     10  N   UNL     1       5.794   3.580  13.953  0.00  0.00    +0.000 NA
ATOM     11  C   UNL     1       6.411   4.449  14.757  0.00  0.00    +0.000 A 
ATOM     12  N   UNL     1       5.935   4.507  16.056  0.00  0.00    +0.000 N 
ATOM     13  N   UNL     1       7.417   5.250  14.364  0.00  0.00    +0.000 NA
ATOM     14  H   UNL     1       5.398   3.662  16.226  0.00  0.00    +0.000 HD
ENDBRANCH   4  12
ENDBRANCH   1   4
BRANCH   1  15
ATOM     15  C   UNL     1       5.280   5.228  18.920  0.00  0.00    +0.000 C 
BRANCH  15  16
ATOM     16  O   UNL     1       3.985   5.405  18.347  0.00  0.00    +0.000 OA
BRANCH  16  17
ATOM     17  C   UNL     1       3.017   4.494  18.689  0.00  0.00    +0.000 A 
ATOM     18  C   UNL     1       3.012   3.353  17.872  0.00  0.00    +0.000 A 
ATOM     19  C   UNL     1       2.051   2.352  18.025  0.00  0.00    +0.000 A 
ATOM     20  C   UNL     1       1.069   2.480  18.998  0.00  0.00    +0.000 A 
ATOM     21  C   UNL     1       1.055   3.612  19.811  0.00  0.00    +0.000 A 
ATOM     22  C   UNL     1       2.011   4.636  19.663  0.00  0.00    +0.000 A 
ATOM     23  C   UNL     1       1.838   5.837  20.551  0.00  0.00    +0.000 C 
ENDBRANCH  16  17
ENDBRANCH  15  16
ENDBRANCH   1  15
TORSDOF 6
ENDMDL
MODEL 3
REMARK VINA RESULT:      -7.2      2.521      4.629
REMARK  Name = 
REMARK  9 active torsions:
REMARK  status: ('A' for Active; 'I' for Inactive)
REMARK    1  A    between atoms: C_1  and  C_2
REMARK    2  A    between atoms: C_4  and  C_5
REMARK    3  A    between atoms: N_8  and  C_9
REMARK    4  A    between atoms: C_9  and  C_10
REMARK    5  A    between atoms: C_10  and  O_11
REMARK    6  A    between atoms: C_10  and  C_12
REMARK    7  A    between atoms: C_12  and  O_13
REMARK    8  A    between atoms: O_13  and  C_14
REMARK    9  A    between atoms: C_19  and  C_20
REMARK                            x       y       z     vdW  Elec       q    Type
REMARK                         _______ _______ _______ _____ _____    ______ ____
ROOT
ATOM      1  C   UNL     1       2.291   4.038  18.312  0.00  0.00    +0.000 C 
ENDROOT
BRANCH   1   2
ATOM      2  O   UNL     1       1.072   3.461  17.822  0.00  0.00    +0.000 OA
ATOM      3  H   UNL     1       0.910   3.798  16.925  0.00  0.00    +0.000 HD
ENDBRANCH   1   2
BRANCH   1   4
ATOM      4  C   UNL     1       3.407   2.968  18.333  0.00  0.00    +0.000 C 
BRANCH   4  12
ATOM      5  C   UNL     1       6.040   4.023  14.192  0.00  0.00    +0.000 C 
ATOM      6  C   UNL     1       6.075   4.509  15.610  0.00  0.00    +0.000 A 
ATOM      7  C   UNL     1       6.859   5.584  15.969  0.00  0.00    +0.000 A 
ATOM      8  C   UNL     1       6.830   5.944  17.300  0.00  0.00    +0.000 A 
ATOM      9  C   UNL     1       7.648   7.091  17.811  0.00  0.00    +0.000 C 
ATOM     10  N   UNL     1       6.082   5.285  18.208  0.00  0.00    +0.000 NA
ATOM     11  C   UNL     1       5.363   4.243  17.782  0.00  0.00    +0.000 A 
ATOM     12  N   UNL     1       4.661   3.559  18.760  0.00  0.00    +0.000 N 
ATOM     13  N   UNL     1       5.317   3.838  16.502  0.00  0.00    +0.000 NA
ATOM     14  H   UNL     1       4.595   4.164  19.573  0.00  0.00    +0.000 HD
ENDBRANCH   4  12
ENDBRANCH   1   4
BRANCH   1  15
ATOM     15  C   UNL     1       2.130   4.607  19.734  0.00  0.00    +0.000 C 
BRANCH  15  16
ATOM     16  O   UNL     1       2.967   5.746  19.930  0.00  0.00    +0.000 OA
BRANCH  16  17
ATOM     17  C   UNL     1       2.409   6.981  19.710  0.00  0.00    +0.000 A 
ATOM     18  C   UNL     1       1.554   7.398  20.742  0.00  0.00    +0.000 A 
ATOM     19  C   UNL     1       0.842   8.595  20.658  0.00  0.00    +0.000 A 
ATOM     20  C   UNL     1       0.968   9.397  19.531  0.00  0.00    +0.000 A 
ATOM     21  C   UNL     1       1.806   8.992  18.495  0.00  0.00    +0.000 A 
ATOM     22  C   UNL     1       2.523   7.782  18.558  0.00  0.00    +0.000 A 
ATOM     23  C   UNL     1       3.332   7.426  17.341  0.00  0.00    +0.000 C 
ENDBRANCH  16  17
ENDBRANCH  15  16
ENDBRANCH   1  15
TORSDOF 6
ENDMDL
MODEL 4
REMARK VINA RESULT:      -7.1      2.243      6.600
REMARK  Name = 
REMARK  9 active torsions:
REMARK  status: ('A' for Active; 'I' for Inactive)
REMARK    1  A    between atoms: C_1  and  C_2
REMARK    2  A    between atoms: C_4  and  C_5
REMARK    3  A    between atoms: N_8  and  C_9
REMARK    4  A    between atoms: C_9  and  C_10
REMARK    5  A    between atoms: C_10  and  O_11
REMARK    6  A    between atoms: C_10  and  C_12
REMARK    7  A    between atoms: C_12  and  O_13
REMARK    8  A    between atoms: O_13  and  C_14
REMARK    9  A    between atoms: C_19  and  C_20
REMARK                            x       y       z     vdW  Elec       q    Type
REMARK                         _______ _______ _______ _____ _____    ______ ____
ROOT
ATOM      1  C   UNL     1       7.594   5.377  17.876  0.00  0.00    +0.000 C 
ENDROOT
BRANCH   1   2
ATOM      2  O   UNL     1       8.004   4.006  17.755  0.00  0.00    +0.000 OA
ATOM      3  H   UNL     1       8.118   3.639  18.646  0.00  0.00    +0.000 HD
ENDBRANCH   1   2
BRANCH   1   4
ATOM      4  C   UNL     1       6.709   5.551  19.131  0.00  0.00    +0.000 C 
BRANCH   4  12
ATOM      5  C   UNL     1       1.991   6.965  20.098  0.00  0.00    +0.000 C 
ATOM      6  C   UNL     1       2.631   5.689  19.642  0.00  0.00    +0.000 A 
ATOM      7  C   UNL     1       1.863   4.623  19.222  0.00  0.00    +0.000 A 
ATOM      8  C   UNL     1       2.548   3.492  18.835  0.00  0.00    +0.000 A 
ATOM      9  C   UNL     1       1.821   2.267  18.368  0.00  0.00    +0.000 C 
ATOM     10  N   UNL     1       3.895   3.419  18.865  0.00  0.00    +0.000 NA
ATOM     11  C   UNL     1       4.565   4.488  19.301  0.00  0.00    +0.000 A 
ATOM     12  N   UNL     1       5.940   4.345  19.374  0.00  0.00    +0.000 N 
ATOM     13  N   UNL     1       3.979   5.637  19.677  0.00  0.00    +0.000 NA
ATOM     14  H   UNL     1       6.199   3.549  18.800  0.00  0.00    +0.000 HD
ENDBRANCH   4  12
ENDBRANCH   1   4
BRANCH   1  15
ATOM     15  C   UNL     1       6.801   5.853  16.645  0.00  0.00    +0.000 C 
BRANCH  15  16
ATOM     16  O   UNL     1       7.583   5.746  15.456  0.00  0.00    +0.000 OA
BRANCH  16  17
ATOM     17  C   UNL     1       7.080   4.971  14.441  0.00  0.00    +0.000 A 
ATOM     18  C   UNL     1       7.788   5.103  13.236  0.00  0.00    +0.000 A 
ATOM     19  C   UNL     1       7.378   4.446  12.075  0.00  0.00    +0.000 A 
ATOM     20  C   UNL     1       6.241   3.648  12.097  0.00  0.00    +0.000 A 
ATOM     21  C   UNL     1       5.523   3.514  13.283  0.00  0.00    +0.000 A 
ATOM     22  C   UNL     1       5.917   4.178  14.461  0.00  0.00    +0.000 A 
ATOM     23  C   UNL     1       5.012   4.010  15.651  0.00  0.00    +0.000 C 
ENDBRANCH  16  17
ENDBRANCH  15  16
ENDBRANCH   1  15
TORSDOF 6
ENDMDL
MODEL 5
REMARK VINA RESULT:      -7.1      2.446      4.586
REMARK  Name = 
REMARK  9 active torsions:
REMARK  status: ('A' for Active; 'I' for Inactive)
REMARK    1  A    between atoms: C_1  and  C_2
REMARK    2  A    between atoms: C_4  and  C_5
REMARK    3  A    between atoms: N_8  and  C_9
REMARK    4  A    between atoms: C_9  and  C_10
REMARK    5  A    between atoms: C_10  and  O_11
REMARK    6  A    between atoms: C_10  and  C_12
REMARK    7  A    between atoms: C_12  and  O_13
REMARK    8  A    between atoms: O_13  and  C_14
REMARK    9  A    between atoms: C_19  and  C_20
REMARK                            x       y       z     vdW  Elec       q    Type
REMARK                         _______ _______ _______ _____ _____    ______ ____
ROOT
ATOM      1  C   UNL     1       2.480   2.974  20.233  0.00  0.00    +0.000 C 
ENDROOT
BRANCH   1   2
ATOM      2  O   UNL     1       2.649   2.938  21.659  0.00  0.00    +0.000 OA
ATOM      3  H   UNL     1       2.599   2.014  21.952  0.00  0.00    +0.000 HD
ENDBRANCH   1   2
BRANCH   1   4
ATOM      4  C   UNL     1       3.836   2.719  19.537  0.00  0.00    +0.000 C 
BRANCH   4  12
ATOM      5  C   UNL     1       7.831   5.739  19.209  0.00  0.00    +0.000 C 
ATOM      6  C   UNL     1       6.956   5.046  18.209  0.00  0.00    +0.000 A 
ATOM      7  C   UNL     1       7.285   5.031  16.871  0.00  0.00    +0.000 A 
ATOM      8  C   UNL     1       6.407   4.377  16.033  0.00  0.00    +0.000 A 
ATOM      9  C   UNL     1       6.655   4.302  14.557  0.00  0.00    +0.000 C 
ATOM     10  N   UNL     1       5.283   3.785  16.486  0.00  0.00    +0.000 NA
ATOM     11  C   UNL     1       5.027   3.860  17.795  0.00  0.00    +0.000 A 
ATOM     12  N   UNL     1       3.832   3.293  18.205  0.00  0.00    +0.000 N 
ATOM     13  N   UNL     1       5.837   4.458  18.684  0.00  0.00    +0.000 NA
ATOM     14  H   UNL     1       3.518   2.668  17.469  0.00  0.00    +0.000 HD
ENDBRANCH   4  12
ENDBRANCH   1   4
BRANCH   1  15
ATOM     15  C   UNL     1       1.927   4.328  19.752  0.00  0.00    +0.000 C 
BRANCH  15  16
ATOM     16  O   UNL     1       2.775   5.403  20.156  0.00  0.00    +0.000 OA
BRANCH  16  17
ATOM     17  C   UNL     1       2.367   6.676  19.846  0.00  0.00    +0.000 A 
ATOM     18  C   UNL     1       1.566   7.262  20.838  0.00  0.00    +0.000 A 
ATOM     19  C   UNL     1       1.000   8.526  20.665  0.00  0.00    +0.000 A 
ATOM     20  C   UNL     1       1.220   9.226  19.485  0.00  0.00    +0.000 A 
ATOM     21  C   UNL     1       2.004   8.653  18.487  0.00  0.00    +0.000 A 
ATOM     22  C   UNL     1       2.574   7.374  18.641  0.00  0.00    +0.000 A 
ATOM     23  C   UNL     1       3.334   6.840  17.458  0.00  0.00    +0.000 C 
ENDBRANCH  16  17
ENDBRANCH  15  16
ENDBRANCH   1  15
TORSDOF 6
ENDMDL
MODEL 6
REMARK VINA RESULT:      -7.0      1.252      2.002
REMARK  Name = 
REMARK  9 active torsions:
REMARK  status: ('A' for Active; 'I' for Inactive)
REMARK    1  A    between atoms: C_1  and  C_2
REMARK    2  A    between atoms: C_4  and  C_5
REMARK    3  A    between atoms: N_8  and  C_9
REMARK    4  A    between atoms: C_9  and  C_10
REMARK    5  A    between atoms: C_10  and  O_11
REMARK    6  A    between atoms: C_10  and  C_12
REMARK    7  A    between atoms: C_12  and  O_13
REMARK    8  A    between atoms: O_13  and  C_14
REMARK    9  A    between atoms: C_19  and  C_20
REMARK                            x       y       z     vdW  Elec       q    Type
REMARK                         _______ _______ _______ _____ _____    ______ ____
ROOT
ATOM      1  C   UNL     1       5.234   4.775  18.186  0.00  0.00    +0.000 C 
ENDROOT
BRANCH   1   2
ATOM      2  O   UNL     1       6.080   4.755  19.346  0.00  0.00    +0.000 OA
ATOM      3  H   UNL     1       5.517   4.751  20.137  0.00  0.00    +0.000 HD
ENDBRANCH   1   2
BRANCH   1   4
ATOM      4  C   UNL     1       6.097   4.695  16.906  0.00  0.00    +0.000 C 
BRANCH   4  12
ATOM      5  C   UNL     1       8.715   5.923  12.803  0.00  0.00    +0.000 C 
ATOM      6  C   UNL     1       7.549   5.020  13.072  0.00  0.00    +0.000 A 
ATOM      7  C   UNL     1       7.076   4.167  12.098  0.00  0.00    +0.000 A 
ATOM      8  C   UNL     1       5.992   3.387  12.443  0.00  0.00    +0.000 A 
ATOM      9  C   UNL     1       5.384   2.429  11.464  0.00  0.00    +0.000 C 
ATOM     10  N   UNL     1       5.418   3.450  13.661  0.00  0.00    +0.000 NA
ATOM     11  C   UNL     1       5.925   4.315  14.543  0.00  0.00    +0.000 A 
ATOM     12  N   UNL     1       5.265   4.390  15.758  0.00  0.00    +0.000 N 
ATOM     13  N   UNL     1       6.991   5.096  14.299  0.00  0.00    +0.000 NA
ATOM     14  H   UNL     1       4.694   3.555  15.851  0.00  0.00    +0.000 HD
ENDBRANCH   4  12
ENDBRANCH   1   4
BRANCH   1  15
ATOM     15  C   UNL     1       4.375   6.051  18.120  0.00  0.00    +0.000 C 
BRANCH  15  16
ATOM     16  O   UNL     1       3.038   5.750  17.723  0.00  0.00    +0.000 OA
BRANCH  16  17
ATOM     17  C   UNL     1       2.341   4.851  18.491  0.00  0.00    +0.000 A 
ATOM     18  C   UNL     1       2.088   3.636  17.835  0.00  0.00    +0.000 A 
ATOM     19  C   UNL     1       1.330   2.629  18.435  0.00  0.00    +0.000 A 
ATOM     20  C   UNL     1       0.803   2.824  19.705  0.00  0.00    +0.000 A 
ATOM     21  C   UNL     1       1.038   4.028  20.365  0.00  0.00    +0.000 A 
ATOM     22  C   UNL     1       1.791   5.058  19.770  0.00  0.00    +0.000 A 
ATOM     23  C   UNL     1       1.906   6.335  20.558  0.00  0.00    +0.000 C 
ENDBRANCH  16  17
ENDBRANCH  15  16
ENDBRANCH   1  15
TORSDOF 6
ENDMDL
MODEL 7
REMARK VINA RESULT:      -7.0      1.467      2.474
REMARK  Name = 
REMARK  9 active torsions:
REMARK  status: ('A' for Active; 'I' for Inactive)
REMARK    1  A    between atoms: C_1  and  C_2
REMARK    2  A    between atoms: C_4  and  C_5
REMARK    3  A    between atoms: N_8  and  C_9
REMARK    4  A    between atoms: C_9  and  C_10
REMARK    5  A    between atoms: C_10  and  O_11
REMARK    6  A    between atoms: C_10  and  C_12
REMARK    7  A    between atoms: C_12  and  O_13
REMARK    8  A    between atoms: O_13  and  C_14
REMARK    9  A    between atoms: C_19  and  C_20
REMARK                            x       y       z     vdW  Elec       q    Type
REMARK                         _______ _______ _______ _____ _____    ______ ____
ROOT
ATOM      1  C   UNL     1       4.678   4.218  18.088  0.00  0.00    +0.000 C 
ENDROOT
BRANCH   1   2
ATOM      2  O   UNL     1       5.811   3.519  18.624  0.00  0.00    +0.000 OA
ATOM      3  H   UNL     1       5.539   2.613  18.844  0.00  0.00    +0.000 HD
ENDBRANCH   1   2
BRANCH   1   4
ATOM      4  C   UNL     1       4.813   4.340  16.553  0.00  0.00    +0.000 C 
BRANCH   4  12
ATOM      5  C   UNL     1       5.415   2.648  11.867  0.00  0.00    +0.000 C 
ATOM      6  C   UNL     1       6.162   3.612  12.737  0.00  0.00    +0.000 A 
ATOM      7  C   UNL     1       7.178   4.389  12.223  0.00  0.00    +0.000 A 
ATOM      8  C   UNL     1       7.810   5.235  13.109  0.00  0.00    +0.000 A 
ATOM      9  C   UNL     1       8.935   6.120  12.668  0.00  0.00    +0.000 C 
ATOM     10  N   UNL     1       7.462   5.305  14.410  0.00  0.00    +0.000 NA
ATOM     11  C   UNL     1       6.479   4.507  14.834  0.00  0.00    +0.000 A 
ATOM     12  N   UNL     1       6.199   4.568  16.189  0.00  0.00    +0.000 N 
ATOM     13  N   UNL     1       5.796   3.669  14.036  0.00  0.00    +0.000 NA
ATOM     14  H   UNL     1       6.602   5.428  16.549  0.00  0.00    +0.000 HD
ENDBRANCH   4  12
ENDBRANCH   1   4
BRANCH   1  15
ATOM     15  C   UNL     1       4.537   5.631  18.684  0.00  0.00    +0.000 C 
BRANCH  15  16
ATOM     16  O   UNL     1       3.176   5.923  18.999  0.00  0.00    +0.000 OA
BRANCH  16  17
ATOM     17  C   UNL     1       2.429   4.914  19.553  0.00  0.00    +0.000 A 
ATOM     18  C   UNL     1       2.712   4.693  20.910  0.00  0.00    +0.000 A 
ATOM     19  C   UNL     1       2.101   3.659  21.622  0.00  0.00    +0.000 A 
ATOM     20  C   UNL     1       1.198   2.820  20.983  0.00  0.00    +0.000 A 
ATOM     21  C   UNL     1       0.914   3.021  19.635  0.00  0.00    +0.000 A 
ATOM     22  C   UNL     1       1.529   4.052  18.899  0.00  0.00    +0.000 A 
ATOM     23  C   UNL     1       1.194   4.113  17.434  0.00  0.00    +0.000 C 
ENDBRANCH  16  17
ENDBRANCH  15  16
ENDBRANCH   1  15
TORSDOF 6
ENDMDL
MODEL 8
REMARK VINA RESULT:      -7.0      2.527      4.816
REMARK  Name = 
REMARK  9 active torsions:
REMARK  status: ('A' for Active; 'I' for Inactive)
REMARK    1  A    between atoms: C_1  and  C_2
REMARK    2  A    between atoms: C_4  and  C_5
REMARK    3  A    between atoms: N_8  and  C_9
REMARK    4  A    between atoms: C_9  and  C_10
REMARK    5  A    between atoms: C_10  and  O_11
REMARK    6  A    between atoms: C_10  and  C_12
REMARK    7  A    between atoms: C_12  and  O_13
REMARK    8  A    between atoms: O_13  and  C_14
REMARK    9  A    between atoms: C_19  and  C_20
REMARK                            x       y       z     vdW  Elec       q    Type
REMARK                         _______ _______ _______ _____ _____    ______ ____
ROOT
ATOM      1  C   UNL     1       2.426   3.955  18.376  0.00  0.00    +0.000 C 
ENDROOT
BRANCH   1   2
ATOM      2  O   UNL     1       1.222   3.402  17.822  0.00  0.00    +0.000 OA
ATOM      3  H   UNL     1       1.458   2.628  17.284  0.00  0.00    +0.000 HD
ENDBRANCH   1   2
BRANCH   1   4
ATOM      4  C   UNL     1       3.504   2.854  18.495  0.00  0.00    +0.000 C 
BRANCH   4  12
ATOM      5  C   UNL     1       5.953   4.098  14.295  0.00  0.00    +0.000 C 
ATOM      6  C   UNL     1       6.047   4.525  15.728  0.00  0.00    +0.000 A 
ATOM      7  C   UNL     1       6.840   5.589  16.100  0.00  0.00    +0.000 A 
ATOM      8  C   UNL     1       6.866   5.892  17.444  0.00  0.00    +0.000 A 
ATOM      9  C   UNL     1       7.700   7.022  17.968  0.00  0.00    +0.000 C 
ATOM     10  N   UNL     1       6.160   5.191  18.355  0.00  0.00    +0.000 NA
ATOM     11  C   UNL     1       5.429   4.163  17.916  0.00  0.00    +0.000 A 
ATOM     12  N   UNL     1       4.772   3.435  18.893  0.00  0.00    +0.000 N 
ATOM     13  N   UNL     1       5.330   3.812  16.623  0.00  0.00    +0.000 NA
ATOM     14  H   UNL     1       4.738   4.005  19.733  0.00  0.00    +0.000 HD
ENDBRANCH   4  12
ENDBRANCH   1   4
BRANCH   1  15
ATOM     15  C   UNL     1       2.191   4.567  19.769  0.00  0.00    +0.000 C 
BRANCH  15  16
ATOM     16  O   UNL     1       2.988   5.735  19.959  0.00  0.00    +0.000 OA
BRANCH  16  17
ATOM     17  C   UNL     1       2.555   6.895  19.366  0.00  0.00    +0.000 A 
ATOM     18  C   UNL     1       3.126   7.122  18.104  0.00  0.00    +0.000 A 
ATOM     19  C   UNL     1       2.859   8.287  17.383  0.00  0.00    +0.000 A 
ATOM     20  C   UNL     1       2.017   9.253  17.919  0.00  0.00    +0.000 A 
ATOM     21  C   UNL     1       1.450   9.046  19.174  0.00  0.00    +0.000 A 
ATOM     22  C   UNL     1       1.717   7.881  19.919  0.00  0.00    +0.000 A 
ATOM     23  C   UNL     1       1.103   7.816  21.290  0.00  0.00    +0.000 C 
ENDBRANCH  16  17
ENDBRANCH  15  16
ENDBRANCH   1  15
TORSDOF 6
ENDMDL
MODEL 9
REMARK VINA RESULT:      -6.9      1.252      1.670
REMARK  Name = 
REMARK  9 active torsions:
REMARK  status: ('A' for Active; 'I' for Inactive)
REMARK    1  A    between atoms: C_1  and  C_2
REMARK    2  A    between atoms: C_4  and  C_5
REMARK    3  A    between atoms: N_8  and  C_9
REMARK    4  A    between atoms: C_9  and  C_10
REMARK    5  A    between atoms: C_10  and  O_11
REMARK    6  A    between atoms: C_10  and  C_12
REMARK    7  A    between atoms: C_12  and  O_13
REMARK    8  A    between atoms: O_13  and  C_14
REMARK    9  A    between atoms: C_19  and  C_20
REMARK                            x       y       z     vdW  Elec       q    Type
REMARK                         _______ _______ _______ _____ _____    ______ ____
ROOT
ATOM      1  C   UNL     1       6.162   4.773  18.722  0.00  0.00    +0.000 C 
ENDROOT
BRANCH   1   2
ATOM      2  O   UNL     1       7.068   5.339  19.681  0.00  0.00    +0.000 OA
ATOM      3  H   UNL     1       6.773   5.085  20.571  0.00  0.00    +0.000 HD
ENDBRANCH   1   2
BRANCH   1   4
ATOM      4  C   UNL     1       6.832   4.729  17.330  0.00  0.00    +0.000 C 
BRANCH   4  12
ATOM      5  C   UNL     1       8.958   6.006  12.966  0.00  0.00    +0.000 C 
ATOM      6  C   UNL     1       7.772   5.175  13.351  0.00  0.00    +0.000 A 
ATOM      7  C   UNL     1       7.104   4.418  12.412  0.00  0.00    +0.000 A 
ATOM      8  C   UNL     1       6.019   3.699  12.867  0.00  0.00    +0.000 A 
ATOM      9  C   UNL     1       5.209   2.847  11.937  0.00  0.00    +0.000 C 
ATOM     10  N   UNL     1       5.621   3.731  14.155  0.00  0.00    +0.000 NA
ATOM     11  C   UNL     1       6.311   4.503  14.999  0.00  0.00    +0.000 A 
ATOM     12  N   UNL     1       5.830   4.554  16.296  0.00  0.00    +0.000 N 
ATOM     13  N   UNL     1       7.393   5.219  14.646  0.00  0.00    +0.000 NA
ATOM     14  H   UNL     1       5.213   3.758  16.427  0.00  0.00    +0.000 HD
ENDBRANCH   4  12
ENDBRANCH   1   4
BRANCH   1  15
ATOM     15  C   UNL     1       4.856   5.581  18.614  0.00  0.00    +0.000 C 
BRANCH  15  16
ATOM     16  O   UNL     1       3.971   5.274  19.691  0.00  0.00    +0.000 OA
BRANCH  16  17
ATOM     17  C   UNL     1       2.909   4.449  19.416  0.00  0.00    +0.000 A 
ATOM     18  C   UNL     1       2.519   4.473  18.068  0.00  0.00    +0.000 A 
ATOM     19  C   UNL     1       1.412   3.752  17.617  0.00  0.00    +0.000 A 
ATOM     20  C   UNL     1       0.667   2.997  18.514  0.00  0.00    +0.000 A 
ATOM     21  C   UNL     1       1.036   2.971  19.856  0.00  0.00    +0.000 A 
ATOM     22  C   UNL     1       2.144   3.700  20.330  0.00  0.00    +0.000 A 
ATOM     23  C   UNL     1       2.388   3.647  21.813  0.00  0.00    +0.000 C 
ENDBRANCH  16  17
ENDBRANCH  15  16
ENDBRANCH   1  15
TORSDOF 6
ENDMDL
