MODEL 1
REMARK VINA RESULT:      -8.3      0.000      0.000
REMARK  Name = 
REMARK  1 active torsions:
REMARK  status: ('A' for Active; 'I' for Inactive)
REMARK    1  A    between atoms: C_2  and  C_14
REMARK                            x       y       z     vdW  Elec       q    Type
REMARK                         _______ _______ _______ _____ _____    ______ ____
ROOT
ATOM      1  O   UNL     1       4.476   5.164  17.845  0.00  0.00    +0.000 OA
ATOM      2  C   UNL     1       5.002   4.171  17.351  0.00  0.00    +0.000 C 
ATOM      3  N   UNL     1       5.031   2.907  17.907  0.00  0.00    +0.000 N 
ATOM      4  C   UNL     1       4.382   2.674  19.102  0.00  0.00    +0.000 A 
ATOM      5  N   UNL     1       5.023   2.048  20.094  0.00  0.00    +0.000 NA
ATOM      6  N   UNL     1       4.174   2.160  21.132  0.00  0.00    +0.000 N 
ATOM      7  C   UNL     1       2.943   2.661  20.802  0.00  0.00    +0.000 A 
ATOM      8  C   UNL     1       1.778   2.855  21.553  0.00  0.00    +0.000 A 
ATOM      9  C   UNL     1       0.653   3.342  20.876  0.00  0.00    +0.000 A 
ATOM     10  C   UNL     1       0.701   3.624  19.511  0.00  0.00    +0.000 A 
ATOM     11  C   UNL     1       1.890   3.456  18.796  0.00  0.00    +0.000 A 
ATOM     12  F   UNL     1       1.893   3.687  17.476  0.00  0.00    +0.000 F 
ATOM     13  C   UNL     1       3.039   2.982  19.451  0.00  0.00    +0.000 A 
ATOM     14  H   UNL     1       5.880   2.373  17.790  0.00  0.00    +0.000 HD
ATOM     15  H   UNL     1       4.486   1.845  22.044  0.00  0.00    +0.000 HD
ENDROOT
BRANCH   2  16
ATOM     16  C   UNL     1       5.773   4.329  16.094  0.00  0.00    +0.000 A 
ATOM     17  C   UNL     1       6.824   5.270  16.059  0.00  0.00    +0.000 A 
ATOM     18  C   UNL     1       7.513   5.521  14.872  0.00  0.00    +0.000 A 
ATOM     19  C   UNL     1       7.125   4.823  13.747  0.00  0.00    +0.000 A 
ATOM     20  C   UNL     1       6.091   3.899  13.770  0.00  0.00    +0.000 A 
ATOM     21  C   UNL     1       5.397   3.631  14.938  0.00  0.00    +0.000 A 
ATOM     22  C   UNL     1       5.840   3.423  12.390  0.00  0.00    +0.000 C 
ATOM     23  C   UNL     1       7.123   3.920  11.723  0.00  0.00    +0.000 C 
ATOM     24  O   UNL     1       7.677   5.004  12.504  0.00  0.00    +0.000 OA
ENDBRANCH   2  16
TORSDOF 1
ENDMDL
MODEL 2
REMARK VINA RESULT:      -7.9      4.742      7.539
REMARK  Name = 
REMARK  1 active torsions:
REMARK  status: ('A' for Active; 'I' for Inactive)
REMARK    1  A    between atoms: C_2  and  C_14
REMARK                            x       y       z     vdW  Elec       q    Type
REMARK                         _______ _______ _______ _____ _____    ______ ____
ROOT
ATOM      1  O   UNL     1       1.595   5.833  20.778  0.00  0.00    +0.000 OA
ATOM      2  C   UNL     1       2.045   6.752  20.100  0.00  0.00    +0.000 C 
ATOM      3  N   UNL     1       3.170   6.695  19.300  0.00  0.00    +0.000 N 
ATOM      4  C   UNL     1       3.861   5.506  19.181  0.00  0.00    +0.000 A 
ATOM      5  N   UNL     1       5.187   5.490  19.346  0.00  0.00    +0.000 NA
ATOM      6  N   UNL     1       5.485   4.177  19.344  0.00  0.00    +0.000 N 
ATOM      7  C   UNL     1       4.440   3.364  18.996  0.00  0.00    +0.000 A 
ATOM      8  C   UNL     1       4.354   1.980  18.800  0.00  0.00    +0.000 A 
ATOM      9  C   UNL     1       3.120   1.468  18.381  0.00  0.00    +0.000 A 
ATOM     10  C   UNL     1       2.025   2.307  18.175  0.00  0.00    +0.000 A 
ATOM     11  C   UNL     1       2.132   3.680  18.414  0.00  0.00    +0.000 A 
ATOM     12  F   UNL     1       1.078   4.467  18.159  0.00  0.00    +0.000 F 
ATOM     13  C   UNL     1       3.353   4.221  18.849  0.00  0.00    +0.000 A 
ATOM     14  H   UNL     1       3.759   7.515  19.276  0.00  0.00    +0.000 HD
ATOM     15  H   UNL     1       6.436   3.900  19.559  0.00  0.00    +0.000 HD
ENDROOT
BRANCH   2  16
ATOM     16  C   UNL     1       1.407   8.086  20.202  0.00  0.00    +0.000 A 
ATOM     17  C   UNL     1       1.550   8.988  19.126  0.00  0.00    +0.000 A 
ATOM     18  C   UNL     1       1.049  10.288  19.217  0.00  0.00    +0.000 A 
ATOM     19  C   UNL     1       0.420  10.650  20.390  0.00  0.00    +0.000 A 
ATOM     20  C   UNL     1       0.277   9.772  21.455  0.00  0.00    +0.000 A 
ATOM     21  C   UNL     1       0.762   8.477  21.383  0.00  0.00    +0.000 A 
ATOM     22  C   UNL     1      -0.322  10.496  22.599  0.00  0.00    +0.000 C 
ATOM     23  C   UNL     1      -0.823  11.741  21.865  0.00  0.00    +0.000 C 
ATOM     24  O   UNL     1      -0.074  11.905  20.639  0.00  0.00    +0.000 OA
ENDBRANCH   2  16
TORSDOF 1
ENDMDL
MODEL 3
REMARK VINA RESULT:      -7.9      5.990      7.072
REMARK  Name = 
REMARK  1 active torsions:
REMARK  status: ('A' for Active; 'I' for Inactive)
REMARK    1  A    between atoms: C_2  and  C_14
REMARK                            x       y       z     vdW  Elec       q    Type
REMARK                         _______ _______ _______ _____ _____    ______ ____
ROOT
ATOM      1  O   UNL     1       2.189   9.442  17.576  0.00  0.00    +0.000 OA
ATOM      2  C   UNL     1       2.102   8.496  18.355  0.00  0.00    +0.000 C 
ATOM      3  N   UNL     1       1.469   8.513  19.583  0.00  0.00    +0.000 N 
ATOM      4  C   UNL     1       0.819   9.656  19.999  0.00  0.00    +0.000 A 
ATOM      5  N   UNL     1       1.052  10.145  21.221  0.00  0.00    +0.000 NA
ATOM      6  N   UNL     1       0.410  11.328  21.210  0.00  0.00    +0.000 N 
ATOM      7  C   UNL     1      -0.376  11.532  20.108  0.00  0.00    +0.000 A 
ATOM      8  C   UNL     1      -1.249  12.570  19.758  0.00  0.00    +0.000 A 
ATOM      9  C   UNL     1      -1.960  12.432  18.560  0.00  0.00    +0.000 A 
ATOM     10  C   UNL     1      -1.796  11.308  17.751  0.00  0.00    +0.000 A 
ATOM     11  C   UNL     1      -0.890  10.305  18.109  0.00  0.00    +0.000 A 
ATOM     12  F   UNL     1      -0.791   9.214  17.338  0.00  0.00    +0.000 F 
ATOM     13  C   UNL     1      -0.152  10.423  19.299  0.00  0.00    +0.000 A 
ATOM     14  H   UNL     1       1.906   7.994  20.331  0.00  0.00    +0.000 HD
ATOM     15  H   UNL     1       0.527  11.945  22.006  0.00  0.00    +0.000 HD
ENDROOT
BRANCH   2  16
ATOM     16  C   UNL     1       2.815   7.239  18.025  0.00  0.00    +0.000 A 
ATOM     17  C   UNL     1       4.050   7.319  17.349  0.00  0.00    +0.000 A 
ATOM     18  C   UNL     1       4.710   6.162  16.933  0.00  0.00    +0.000 A 
ATOM     19  C   UNL     1       4.108   4.950  17.204  0.00  0.00    +0.000 A 
ATOM     20  C   UNL     1       2.892   4.860  17.866  0.00  0.00    +0.000 A 
ATOM     21  C   UNL     1       2.223   5.996  18.291  0.00  0.00    +0.000 A 
ATOM     22  C   UNL     1       2.460   3.444  17.887  0.00  0.00    +0.000 C 
ATOM     23  C   UNL     1       3.782   2.779  17.504  0.00  0.00    +0.000 C 
ATOM     24  O   UNL     1       4.614   3.738  16.812  0.00  0.00    +0.000 OA
ENDBRANCH   2  16
TORSDOF 1
ENDMDL
MODEL 4
REMARK VINA RESULT:      -7.8      5.878      6.862
REMARK  Name = 
REMARK  1 active torsions:
REMARK  status: ('A' for Active; 'I' for Inactive)
REMARK    1  A    between atoms: C_2  and  C_14
REMARK                            x       y       z     vdW  Elec       q    Type
REMARK                         _______ _______ _______ _____ _____    ______ ____
ROOT
ATOM      1  O   UNL     1       2.240   9.456  17.598  0.00  0.00    +0.000 OA
ATOM      2  C   UNL     1       2.142   8.447  18.290  0.00  0.00    +0.000 C 
ATOM      3  N   UNL     1       1.509   8.363  19.515  0.00  0.00    +0.000 N 
ATOM      4  C   UNL     1       0.872   9.473  20.030  0.00  0.00    +0.000 A 
ATOM      5  N   UNL     1       1.111   9.849  21.291  0.00  0.00    +0.000 NA
ATOM      6  N   UNL     1       0.483  11.036  21.385  0.00  0.00    +0.000 N 
ATOM      7  C   UNL     1      -0.301  11.346  20.306  0.00  0.00    +0.000 A 
ATOM      8  C   UNL     1      -1.161  12.420  20.049  0.00  0.00    +0.000 A 
ATOM      9  C   UNL     1      -1.873  12.398  18.843  0.00  0.00    +0.000 A 
ATOM     10  C   UNL     1      -1.722  11.347  17.939  0.00  0.00    +0.000 A 
ATOM     11  C   UNL     1      -0.828  10.306  18.206  0.00  0.00    +0.000 A 
ATOM     12  F   UNL     1      -0.742   9.286  17.342  0.00  0.00    +0.000 F 
ATOM     13  C   UNL     1      -0.090  10.309  19.401  0.00  0.00    +0.000 A 
ATOM     14  H   UNL     1       1.939   7.775  20.215  0.00  0.00    +0.000 HD
ATOM     15  H   UNL     1       0.607  11.579  22.232  0.00  0.00    +0.000 HD
ENDROOT
BRANCH   2  16
ATOM     16  C   UNL     1       2.840   7.215  17.850  0.00  0.00    +0.000 A 
ATOM     17  C   UNL     1       2.270   5.965  18.169  0.00  0.00    +0.000 A 
ATOM     18  C   UNL     1       2.938   4.779  17.861  0.00  0.00    +0.000 A 
ATOM     19  C   UNL     1       4.168   4.881  17.243  0.00  0.00    +0.000 A 
ATOM     20  C   UNL     1       4.739   6.105  16.928  0.00  0.00    +0.000 A 
ATOM     21  C   UNL     1       4.090   7.293  17.221  0.00  0.00    +0.000 A 
ATOM     22  C   UNL     1       6.101   5.877  16.395  0.00  0.00    +0.000 C 
ATOM     23  C   UNL     1       6.006   4.378  16.113  0.00  0.00    +0.000 C 
ATOM     24  O   UNL     1       4.958   3.805  16.928  0.00  0.00    +0.000 OA
ENDBRANCH   2  16
TORSDOF 1
ENDMDL
MODEL 5
REMARK VINA RESULT:      -7.8      4.799      7.318
REMARK  Name = 
REMARK  1 active torsions:
REMARK  status: ('A' for Active; 'I' for Inactive)
REMARK    1  A    between atoms: C_2  and  C_14
REMARK                            x       y       z     vdW  Elec       q    Type
REMARK                         _______ _______ _______ _____ _____    ______ ____
ROOT
ATOM      1  O   UNL     1       1.582   5.827  20.848  0.00  0.00    +0.000 OA
ATOM      2  C   UNL     1       2.112   6.776  20.276  0.00  0.00    +0.000 C 
ATOM      3  N   UNL     1       3.268   6.725  19.522  0.00  0.00    +0.000 N 
ATOM      4  C   UNL     1       3.899   5.514  19.323  0.00  0.00    +0.000 A 
ATOM      5  N   UNL     1       5.213   5.407  19.541  0.00  0.00    +0.000 NA
ATOM      6  N   UNL     1       5.440   4.085  19.431  0.00  0.00    +0.000 N 
ATOM      7  C   UNL     1       4.370   3.367  18.968  0.00  0.00    +0.000 A 
ATOM      8  C   UNL     1       4.219   2.014  18.643  0.00  0.00    +0.000 A 
ATOM      9  C   UNL     1       2.981   1.612  18.128  0.00  0.00    +0.000 A 
ATOM     10  C   UNL     1       1.943   2.528  17.953  0.00  0.00    +0.000 A 
ATOM     11  C   UNL     1       2.112   3.866  18.322  0.00  0.00    +0.000 A 
ATOM     12  F   UNL     1       1.115   4.732  18.096  0.00  0.00    +0.000 F 
ATOM     13  C   UNL     1       3.339   4.295  18.854  0.00  0.00    +0.000 A 
ATOM     14  H   UNL     1       3.900   7.509  19.597  0.00  0.00    +0.000 HD
ATOM     15  H   UNL     1       6.364   3.735  19.660  0.00  0.00    +0.000 HD
ENDROOT
BRANCH   2  16
ATOM     16  C   UNL     1       1.542   8.130  20.473  0.00  0.00    +0.000 A 
ATOM     17  C   UNL     1       1.139   8.512  21.770  0.00  0.00    +0.000 A 
ATOM     18  C   UNL     1       0.509   9.739  21.986  0.00  0.00    +0.000 A 
ATOM     19  C   UNL     1       0.297  10.550  20.891  0.00  0.00    +0.000 A 
ATOM     20  C   UNL     1       0.686  10.183  19.612  0.00  0.00    +0.000 A 
ATOM     21  C   UNL     1       1.316   8.973  19.375  0.00  0.00    +0.000 A 
ATOM     22  C   UNL     1       0.206  11.203  18.652  0.00  0.00    +0.000 C 
ATOM     23  C   UNL     1      -0.133  12.324  19.634  0.00  0.00    +0.000 C 
ATOM     24  O   UNL     1      -0.354  11.756  20.946  0.00  0.00    +0.000 OA
ENDBRANCH   2  16
TORSDOF 1
ENDMDL
MODEL 6
REMARK VINA RESULT:      -7.8      4.842      7.999
REMARK  Name = 
REMARK  1 active torsions:
REMARK  status: ('A' for Active; 'I' for Inactive)
REMARK    1  A    between atoms: C_2  and  C_14
REMARK                            x       y       z     vdW  Elec       q    Type
REMARK                         _______ _______ _______ _____ _____    ______ ____
ROOT
ATOM      1  O   UNL     1       2.501   6.316  20.609  0.00  0.00    +0.000 OA
ATOM      2  C   UNL     1       2.132   7.143  19.780  0.00  0.00    +0.000 C 
ATOM      3  N   UNL     1       2.454   7.143  18.436  0.00  0.00    +0.000 N 
ATOM      4  C   UNL     1       3.218   6.117  17.919  0.00  0.00    +0.000 A 
ATOM      5  N   UNL     1       4.282   6.400  17.161  0.00  0.00    +0.000 NA
ATOM      6  N   UNL     1       4.872   5.201  16.995  0.00  0.00    +0.000 N 
ATOM      7  C   UNL     1       4.135   4.142  17.452  0.00  0.00    +0.000 A 
ATOM      8  C   UNL     1       4.347   2.759  17.399  0.00  0.00    +0.000 A 
ATOM      9  C   UNL     1       3.341   1.936  17.920  0.00  0.00    +0.000 A 
ATOM     10  C   UNL     1       2.181   2.479  18.471  0.00  0.00    +0.000 A 
ATOM     11  C   UNL     1       2.014   3.865  18.544  0.00  0.00    +0.000 A 
ATOM     12  F   UNL     1       0.868   4.356  19.034  0.00  0.00    +0.000 F 
ATOM     13  C   UNL     1       3.013   4.716  18.042  0.00  0.00    +0.000 A 
ATOM     14  H   UNL     1       2.627   8.040  18.006  0.00  0.00    +0.000 HD
ATOM     15  H   UNL     1       5.773   5.170  16.531  0.00  0.00    +0.000 HD
ENDROOT
BRANCH   2  16
ATOM     16  C   UNL     1       1.353   8.315  20.246  0.00  0.00    +0.000 A 
ATOM     17  C   UNL     1       1.273   9.449  19.410  0.00  0.00    +0.000 A 
ATOM     18  C   UNL     1       0.632  10.610  19.846  0.00  0.00    +0.000 A 
ATOM     19  C   UNL     1       0.092  10.603  21.116  0.00  0.00    +0.000 A 
ATOM     20  C   UNL     1       0.168   9.495  21.946  0.00  0.00    +0.000 A 
ATOM     21  C   UNL     1       0.794   8.332  21.531  0.00  0.00    +0.000 A 
ATOM     22  C   UNL     1      -0.389   9.848  23.272  0.00  0.00    +0.000 C 
ATOM     23  C   UNL     1      -1.110  11.143  22.897  0.00  0.00    +0.000 C 
ATOM     24  O   UNL     1      -0.520  11.686  21.694  0.00  0.00    +0.000 OA
ENDBRANCH   2  16
TORSDOF 1
ENDMDL
MODEL 7
REMARK VINA RESULT:      -7.8      4.499      7.881
REMARK  Name = 
REMARK  1 active torsions:
REMARK  status: ('A' for Active; 'I' for Inactive)
REMARK    1  A    between atoms: C_2  and  C_14
REMARK                            x       y       z     vdW  Elec       q    Type
REMARK                         _______ _______ _______ _____ _____    ______ ____
ROOT
ATOM      1  O   UNL     1       2.033   6.408  17.909  0.00  0.00    +0.000 OA
ATOM      2  C   UNL     1       2.531   6.994  18.867  0.00  0.00    +0.000 C 
ATOM      3  N   UNL     1       3.745   6.698  19.456  0.00  0.00    +0.000 N 
ATOM      4  C   UNL     1       4.531   5.692  18.930  0.00  0.00    +0.000 A 
ATOM      5  N   UNL     1       5.030   4.751  19.736  0.00  0.00    +0.000 NA
ATOM      6  N   UNL     1       5.569   3.863  18.879  0.00  0.00    +0.000 N 
ATOM      7  C   UNL     1       5.603   4.285  17.577  0.00  0.00    +0.000 A 
ATOM      8  C   UNL     1       6.140   3.712  16.419  0.00  0.00    +0.000 A 
ATOM      9  C   UNL     1       6.053   4.455  15.235  0.00  0.00    +0.000 A 
ATOM     10  C   UNL     1       5.449   5.713  15.219  0.00  0.00    +0.000 A 
ATOM     11  C   UNL     1       4.889   6.243  16.384  0.00  0.00    +0.000 A 
ATOM     12  F   UNL     1       4.361   7.474  16.348  0.00  0.00    +0.000 F 
ATOM     13  C   UNL     1       4.949   5.514  17.583  0.00  0.00    +0.000 A 
ATOM     14  H   UNL     1       3.799   6.776  20.462  0.00  0.00    +0.000 HD
ATOM     15  H   UNL     1       5.928   2.991  19.253  0.00  0.00    +0.000 HD
ENDROOT
BRANCH   2  16
ATOM     16  C   UNL     1       1.741   8.053  19.539  0.00  0.00    +0.000 A 
ATOM     17  C   UNL     1       1.426   9.223  18.816  0.00  0.00    +0.000 A 
ATOM     18  C   UNL     1       0.768  10.286  19.436  0.00  0.00    +0.000 A 
ATOM     19  C   UNL     1       0.448  10.148  20.771  0.00  0.00    +0.000 A 
ATOM     20  C   UNL     1       0.757   9.004  21.492  0.00  0.00    +0.000 A 
ATOM     21  C   UNL     1       1.404   7.936  20.894  0.00  0.00    +0.000 A 
ATOM     22  C   UNL     1       0.399   9.219  22.912  0.00  0.00    +0.000 C 
ATOM     23  C   UNL     1      -0.484  10.457  22.758  0.00  0.00    +0.000 C 
ATOM     24  O   UNL     1      -0.151  11.128  21.521  0.00  0.00    +0.000 OA
ENDBRANCH   2  16
TORSDOF 1
ENDMDL
MODEL 8
REMARK VINA RESULT:      -7.8      4.504      7.684
REMARK  Name = 
REMARK  1 active torsions:
REMARK  status: ('A' for Active; 'I' for Inactive)
REMARK    1  A    between atoms: C_2  and  C_14
REMARK                            x       y       z     vdW  Elec       q    Type
REMARK                         _______ _______ _______ _____ _____    ______ ____
ROOT
ATOM      1  O   UNL     1       2.090   6.359  17.850  0.00  0.00    +0.000 OA
ATOM      2  C   UNL     1       2.623   6.832  18.849  0.00  0.00    +0.000 C 
ATOM      3  N   UNL     1       3.817   6.416  19.405  0.00  0.00    +0.000 N 
ATOM      4  C   UNL     1       4.540   5.413  18.794  0.00  0.00    +0.000 A 
ATOM      5  N   UNL     1       4.983   4.379  19.517  0.00  0.00    +0.000 NA
ATOM      6  N   UNL     1       5.467   3.534  18.587  0.00  0.00    +0.000 N 
ATOM      7  C   UNL     1       5.525   4.060  17.324  0.00  0.00    +0.000 A 
ATOM      8  C   UNL     1       6.025   3.552  16.119  0.00  0.00    +0.000 A 
ATOM      9  C   UNL     1       5.982   4.394  15.002  0.00  0.00    +0.000 A 
ATOM     10  C   UNL     1       5.455   5.683  15.092  0.00  0.00    +0.000 A 
ATOM     11  C   UNL     1       4.929   6.148  16.300  0.00  0.00    +0.000 A 
ATOM     12  F   UNL     1       4.476   7.407  16.368  0.00  0.00    +0.000 F 
ATOM     13  C   UNL     1       4.946   5.321  17.435  0.00  0.00    +0.000 A 
ATOM     14  H   UNL     1       3.876   6.408  20.414  0.00  0.00    +0.000 HD
ATOM     15  H   UNL     1       5.772   2.615  18.886  0.00  0.00    +0.000 HD
ENDROOT
BRANCH   2  16
ATOM     16  C   UNL     1       1.899   7.878  19.611  0.00  0.00    +0.000 A 
ATOM     17  C   UNL     1       1.548   7.617  20.952  0.00  0.00    +0.000 A 
ATOM     18  C   UNL     1       0.783   8.532  21.678  0.00  0.00    +0.000 A 
ATOM     19  C   UNL     1       0.386   9.685  21.034  0.00  0.00    +0.000 A 
ATOM     20  C   UNL     1       0.722   9.950  19.715  0.00  0.00    +0.000 A 
ATOM     21  C   UNL     1       1.484   9.058  18.979  0.00  0.00    +0.000 A 
ATOM     22  C   UNL     1       0.043  11.194  19.286  0.00  0.00    +0.000 C 
ATOM     23  C   UNL     1      -0.363  11.736  20.656  0.00  0.00    +0.000 C 
ATOM     24  O   UNL     1      -0.409  10.646  21.605  0.00  0.00    +0.000 OA
ENDBRANCH   2  16
TORSDOF 1
ENDMDL
MODEL 9
REMARK VINA RESULT:      -7.8      5.022      8.080
REMARK  Name = 
REMARK  1 active torsions:
REMARK  status: ('A' for Active; 'I' for Inactive)
REMARK    1  A    between atoms: C_2  and  C_14
REMARK                            x       y       z     vdW  Elec       q    Type
REMARK                         _______ _______ _______ _____ _____    ______ ____
ROOT
ATOM      1  O   UNL     1       1.856   7.433  18.013  0.00  0.00    +0.000 OA
ATOM      2  C   UNL     1       2.157   7.423  19.204  0.00  0.00    +0.000 C 
ATOM      3  N   UNL     1       2.894   6.447  19.845  0.00  0.00    +0.000 N 
ATOM      4  C   UNL     1       3.404   5.391  19.118  0.00  0.00    +0.000 A 
ATOM      5  N   UNL     1       3.219   4.139  19.548  0.00  0.00    +0.000 NA
ATOM      6  N   UNL     1       3.674   3.389  18.527  0.00  0.00    +0.000 N 
ATOM      7  C   UNL     1       4.313   4.100  17.547  0.00  0.00    +0.000 A 
ATOM      8  C   UNL     1       4.984   3.701  16.385  0.00  0.00    +0.000 A 
ATOM      9  C   UNL     1       5.589   4.704  15.618  0.00  0.00    +0.000 A 
ATOM     10  C   UNL     1       5.518   6.044  16.000  0.00  0.00    +0.000 A 
ATOM     11  C   UNL     1       4.809   6.415  17.146  0.00  0.00    +0.000 A 
ATOM     12  F   UNL     1       4.800   7.703  17.515  0.00  0.00    +0.000 F 
ATOM     13  C   UNL     1       4.179   5.432  17.928  0.00  0.00    +0.000 A 
ATOM     14  H   UNL     1       2.613   6.201  20.783  0.00  0.00    +0.000 HD
ATOM     15  H   UNL     1       3.543   2.385  18.573  0.00  0.00    +0.000 HD
ENDROOT
BRANCH   2  16
ATOM     16  C   UNL     1       1.610   8.485  20.082  0.00  0.00    +0.000 A 
ATOM     17  C   UNL     1       1.489   8.224  21.463  0.00  0.00    +0.000 A 
ATOM     18  C   UNL     1       0.892   9.157  22.313  0.00  0.00    +0.000 A 
ATOM     19  C   UNL     1       0.427  10.328  21.751  0.00  0.00    +0.000 A 
ATOM     20  C   UNL     1       0.538  10.593  20.394  0.00  0.00    +0.000 A 
ATOM     21  C   UNL     1       1.132   9.683  19.534  0.00  0.00    +0.000 A 
ATOM     22  C   UNL     1      -0.163  11.861  20.092  0.00  0.00    +0.000 C 
ATOM     23  C   UNL     1      -0.308  12.405  21.514  0.00  0.00    +0.000 C 
ATOM     24  O   UNL     1      -0.225  11.309  22.453  0.00  0.00    +0.000 OA
ENDBRANCH   2  16
TORSDOF 1
ENDMDL
