MODEL 1
REMARK VINA RESULT:      -6.8      0.000      0.000
REMARK  Name = 
REMARK  3 active torsions:
REMARK  status: ('A' for Active; 'I' for Inactive)
REMARK    1  A    between atoms: C_1  and  O_2
REMARK    2  A    between atoms: O_2  and  C_3
REMARK    3  A    between atoms: C_11  and  C_12
REMARK                            x       y       z     vdW  Elec       q    Type
REMARK                         _______ _______ _______ _____ _____    ______ ____
ROOT
ATOM      1  C   UNL     1       0.522  10.782  20.222  0.00  0.00    +0.000 A 
ATOM      2  C   UNL     1       0.323   9.894  21.296  0.00  0.00    +0.000 A 
ATOM      3  C   UNL     1       0.801   8.586  21.235  0.00  0.00    +0.000 A 
ATOM      4  C   UNL     1       1.460   8.200  20.083  0.00  0.00    +0.000 A 
ATOM      5  C   UNL     1       1.651   9.050  18.998  0.00  0.00    +0.000 A 
ATOM      6  C   UNL     1       1.177  10.353  19.056  0.00  0.00    +0.000 A 
ATOM      7  C   UNL     1       2.387   8.365  17.886  0.00  0.00    +0.000 C 
ATOM      8  C   UNL     1       2.577   6.950  18.393  0.00  0.00    +0.000 C 
ATOM      9  C   UNL     1       3.111   5.927  17.709  0.00  0.00    +0.000 C 
ATOM     10  C   UNL     1       2.030   6.888  19.788  0.00  0.00    +0.000 C 
ATOM     11  O   UNL     1       2.035   5.951  20.564  0.00  0.00    +0.000 OA
ENDROOT
BRANCH   9  12
ATOM     12  C   UNL     1       3.266   4.573  18.242  0.00  0.00    +0.000 A 
ATOM     13  C   UNL     1       4.385   4.230  18.999  0.00  0.00    +0.000 A 
ATOM     14  C   UNL     1       4.505   2.917  19.431  0.00  0.00    +0.000 A 
ATOM     15  N   UNL     1       3.596   1.953  19.175  0.00  0.00    +0.000 NA
ATOM     16  C   UNL     1       2.528   2.312  18.428  0.00  0.00    +0.000 A 
ATOM     17  C   UNL     1       2.318   3.594  17.949  0.00  0.00    +0.000 A 
ENDBRANCH   9  12
BRANCH   1  19
ATOM     18  C   UNL     1      -0.324  12.562  18.919  0.00  0.00    +0.000 C 
ATOM     19  O   UNL     1       0.079  12.079  20.197  0.00  0.00    +0.000 OA
ENDBRANCH   1  19
TORSDOF 2
ENDMDL
MODEL 2
REMARK VINA RESULT:      -6.7      0.161      1.091
REMARK  Name = 
REMARK  3 active torsions:
REMARK  status: ('A' for Active; 'I' for Inactive)
REMARK    1  A    between atoms: C_1  and  O_2
REMARK    2  A    between atoms: O_2  and  C_3
REMARK    3  A    between atoms: C_11  and  C_12
REMARK                            x       y       z     vdW  Elec       q    Type
REMARK                         _______ _______ _______ _____ _____    ______ ____
ROOT
ATOM      1  C   UNL     1       0.545  10.700  20.238  0.00  0.00    +0.000 A 
ATOM      2  C   UNL     1       0.361   9.798  21.303  0.00  0.00    +0.000 A 
ATOM      3  C   UNL     1       0.853   8.496  21.226  0.00  0.00    +0.000 A 
ATOM      4  C   UNL     1       1.511   8.130  20.066  0.00  0.00    +0.000 A 
ATOM      5  C   UNL     1       1.687   8.994  18.990  0.00  0.00    +0.000 A 
ATOM      6  C   UNL     1       1.198  10.291  19.065  0.00  0.00    +0.000 A 
ATOM      7  C   UNL     1       2.425   8.330  17.867  0.00  0.00    +0.000 C 
ATOM      8  C   UNL     1       2.634   6.912  18.357  0.00  0.00    +0.000 C 
ATOM      9  C   UNL     1       3.177   5.903  17.660  0.00  0.00    +0.000 C 
ATOM     10  C   UNL     1       2.095   6.828  19.755  0.00  0.00    +0.000 C 
ATOM     11  O   UNL     1       2.113   5.883  20.519  0.00  0.00    +0.000 OA
ENDROOT
BRANCH   9  12
ATOM     12  C   UNL     1       3.349   4.544  18.177  0.00  0.00    +0.000 A 
ATOM     13  C   UNL     1       2.381   3.568  17.949  0.00  0.00    +0.000 A 
ATOM     14  C   UNL     1       2.572   2.315  18.510  0.00  0.00    +0.000 A 
ATOM     15  N   UNL     1       3.647   1.976  19.253  0.00  0.00    +0.000 NA
ATOM     16  C   UNL     1       4.562   2.946  19.467  0.00  0.00    +0.000 A 
ATOM     17  C   UNL     1       4.463   4.229  18.953  0.00  0.00    +0.000 A 
ENDBRANCH   9  12
BRANCH   1  19
ATOM     18  C   UNL     1       0.250  12.689  18.999  0.00  0.00    +0.000 C 
ATOM     19  O   UNL     1       0.087  11.992  20.230  0.00  0.00    +0.000 OA
ENDBRANCH   1  19
TORSDOF 2
ENDMDL
MODEL 3
REMARK VINA RESULT:      -6.7      4.530      6.892
REMARK  Name = 
REMARK  3 active torsions:
REMARK  status: ('A' for Active; 'I' for Inactive)
REMARK    1  A    between atoms: C_1  and  O_2
REMARK    2  A    between atoms: O_2  and  C_3
REMARK    3  A    between atoms: C_11  and  C_12
REMARK                            x       y       z     vdW  Elec       q    Type
REMARK                         _______ _______ _______ _____ _____    ______ ____
ROOT
ATOM      1  C   UNL     1       7.170   5.113  14.408  0.00  0.00    +0.000 A 
ATOM      2  C   UNL     1       6.337   4.004  14.169  0.00  0.00    +0.000 A 
ATOM      3  C   UNL     1       5.361   3.635  15.094  0.00  0.00    +0.000 A 
ATOM      4  C   UNL     1       5.256   4.390  16.247  0.00  0.00    +0.000 A 
ATOM      5  C   UNL     1       6.081   5.478  16.518  0.00  0.00    +0.000 A 
ATOM      6  C   UNL     1       7.052   5.847  15.599  0.00  0.00    +0.000 A 
ATOM      7  C   UNL     1       5.749   6.103  17.839  0.00  0.00    +0.000 C 
ATOM      8  C   UNL     1       4.647   5.223  18.392  0.00  0.00    +0.000 C 
ATOM      9  C   UNL     1       4.078   5.328  19.602  0.00  0.00    +0.000 C 
ATOM     10  C   UNL     1       4.326   4.188  17.355  0.00  0.00    +0.000 C 
ATOM     11  O   UNL     1       3.469   3.325  17.383  0.00  0.00    +0.000 OA
ENDROOT
BRANCH   9  12
ATOM     12  C   UNL     1       3.020   4.444  20.094  0.00  0.00    +0.000 A 
ATOM     13  C   UNL     1       1.678   4.749  19.873  0.00  0.00    +0.000 A 
ATOM     14  C   UNL     1       0.719   3.905  20.410  0.00  0.00    +0.000 A 
ATOM     15  N   UNL     1       1.004   2.796  21.123  0.00  0.00    +0.000 NA
ATOM     16  C   UNL     1       2.312   2.532  21.332  0.00  0.00    +0.000 A 
ATOM     17  C   UNL     1       3.345   3.312  20.840  0.00  0.00    +0.000 A 
ENDBRANCH   9  12
BRANCH   1  19
ATOM     18  C   UNL     1       7.851   5.435  12.169  0.00  0.00    +0.000 C 
ATOM     19  O   UNL     1       8.157   5.537  13.557  0.00  0.00    +0.000 OA
ENDBRANCH   1  19
TORSDOF 2
ENDMDL
MODEL 4
REMARK VINA RESULT:      -6.7      2.307      3.340
REMARK  Name = 
REMARK  3 active torsions:
REMARK  status: ('A' for Active; 'I' for Inactive)
REMARK    1  A    between atoms: C_1  and  O_2
REMARK    2  A    between atoms: O_2  and  C_3
REMARK    3  A    between atoms: C_11  and  C_12
REMARK                            x       y       z     vdW  Elec       q    Type
REMARK                         _______ _______ _______ _____ _____    ______ ____
ROOT
ATOM      1  C   UNL     1       0.529   8.980  20.739  0.00  0.00    +0.000 A 
ATOM      2  C   UNL     1       1.009   9.586  19.563  0.00  0.00    +0.000 A 
ATOM      3  C   UNL     1       1.909   8.918  18.733  0.00  0.00    +0.000 A 
ATOM      4  C   UNL     1       2.313   7.653  19.119  0.00  0.00    +0.000 A 
ATOM      5  C   UNL     1       1.872   7.039  20.287  0.00  0.00    +0.000 A 
ATOM      6  C   UNL     1       0.976   7.703  21.113  0.00  0.00    +0.000 A 
ATOM      7  C   UNL     1       2.478   5.679  20.455  0.00  0.00    +0.000 C 
ATOM      8  C   UNL     1       3.409   5.545  19.268  0.00  0.00    +0.000 C 
ATOM      9  C   UNL     1       4.248   4.527  19.027  0.00  0.00    +0.000 C 
ATOM     10  C   UNL     1       3.250   6.775  18.423  0.00  0.00    +0.000 C 
ATOM     11  O   UNL     1       3.777   7.038  17.359  0.00  0.00    +0.000 OA
ENDROOT
BRANCH   9  12
ATOM     12  C   UNL     1       5.136   4.449  17.866  0.00  0.00    +0.000 A 
ATOM     13  C   UNL     1       4.677   3.942  16.652  0.00  0.00    +0.000 A 
ATOM     14  C   UNL     1       5.578   3.840  15.603  0.00  0.00    +0.000 A 
ATOM     15  N   UNL     1       6.872   4.216  15.681  0.00  0.00    +0.000 NA
ATOM     16  C   UNL     1       7.292   4.693  16.874  0.00  0.00    +0.000 A 
ATOM     17  C   UNL     1       6.471   4.832  17.981  0.00  0.00    +0.000 A 
ENDBRANCH   9  12
BRANCH   1  19
ATOM     18  C   UNL     1       0.017   9.495  22.986  0.00  0.00    +0.000 C 
ATOM     19  O   UNL     1      -0.348   9.570  21.611  0.00  0.00    +0.000 OA
ENDBRANCH   1  19
TORSDOF 2
ENDMDL
MODEL 5
REMARK VINA RESULT:      -6.7      2.144      2.879
REMARK  Name = 
REMARK  3 active torsions:
REMARK  status: ('A' for Active; 'I' for Inactive)
REMARK    1  A    between atoms: C_1  and  O_2
REMARK    2  A    between atoms: O_2  and  C_3
REMARK    3  A    between atoms: C_11  and  C_12
REMARK                            x       y       z     vdW  Elec       q    Type
REMARK                         _______ _______ _______ _____ _____    ______ ____
ROOT
ATOM      1  C   UNL     1       0.536   9.894  19.758  0.00  0.00    +0.000 A 
ATOM      2  C   UNL     1       1.133  10.259  18.537  0.00  0.00    +0.000 A 
ATOM      3  C   UNL     1       2.045   9.411  17.910  0.00  0.00    +0.000 A 
ATOM      4  C   UNL     1       2.342   8.216  18.538  0.00  0.00    +0.000 A 
ATOM      5  C   UNL     1       1.783   7.841  19.756  0.00  0.00    +0.000 A 
ATOM      6  C   UNL     1       0.875   8.683  20.382  0.00  0.00    +0.000 A 
ATOM      7  C   UNL     1       2.290   6.503  20.204  0.00  0.00    +0.000 C 
ATOM      8  C   UNL     1       3.291   6.116  19.135  0.00  0.00    +0.000 C 
ATOM      9  C   UNL     1       4.080   5.031  19.141  0.00  0.00    +0.000 C 
ATOM     10  C   UNL     1       3.269   7.183  18.081  0.00  0.00    +0.000 C 
ATOM     11  O   UNL     1       3.884   7.228  17.033  0.00  0.00    +0.000 OA
ENDROOT
BRANCH   9  12
ATOM     12  C   UNL     1       5.040   4.706  18.086  0.00  0.00    +0.000 A 
ATOM     13  C   UNL     1       6.379   5.072  18.205  0.00  0.00    +0.000 A 
ATOM     14  C   UNL     1       7.232   4.787  17.149  0.00  0.00    +0.000 A 
ATOM     15  N   UNL     1       6.847   4.161  16.017  0.00  0.00    +0.000 NA
ATOM     16  C   UNL     1       5.541   3.828  15.925  0.00  0.00    +0.000 A 
ATOM     17  C   UNL     1       4.610   4.071  16.922  0.00  0.00    +0.000 A 
ENDBRANCH   9  12
BRANCH   1  19
ATOM     18  C   UNL     1      -0.165  10.731  21.853  0.00  0.00    +0.000 C 
ATOM     19  O   UNL     1      -0.361  10.671  20.443  0.00  0.00    +0.000 OA
ENDBRANCH   1  19
TORSDOF 2
ENDMDL
MODEL 6
REMARK VINA RESULT:      -6.7      1.398      1.895
REMARK  Name = 
REMARK  3 active torsions:
REMARK  status: ('A' for Active; 'I' for Inactive)
REMARK    1  A    between atoms: C_1  and  O_2
REMARK    2  A    between atoms: O_2  and  C_3
REMARK    3  A    between atoms: C_11  and  C_12
REMARK                            x       y       z     vdW  Elec       q    Type
REMARK                         _______ _______ _______ _____ _____    ______ ____
ROOT
ATOM      1  C   UNL     1      -0.530  11.109  21.760  0.00  0.00    +0.000 A 
ATOM      2  C   UNL     1      -0.410  10.003  22.623  0.00  0.00    +0.000 A 
ATOM      3  C   UNL     1       0.279   8.859  22.222  0.00  0.00    +0.000 A 
ATOM      4  C   UNL     1       0.822   8.854  20.951  0.00  0.00    +0.000 A 
ATOM      5  C   UNL     1       0.699   9.924  20.070  0.00  0.00    +0.000 A 
ATOM      6  C   UNL     1       0.015  11.064  20.467  0.00  0.00    +0.000 A 
ATOM      7  C   UNL     1       1.377   9.640  18.763  0.00  0.00    +0.000 C 
ATOM      8  C   UNL     1       1.888   8.222  18.918  0.00  0.00    +0.000 C 
ATOM      9  C   UNL     1       2.491   7.487  17.972  0.00  0.00    +0.000 C 
ATOM     10  C   UNL     1       1.568   7.772  20.313  0.00  0.00    +0.000 C 
ATOM     11  O   UNL     1       1.852   6.721  20.855  0.00  0.00    +0.000 OA
ENDROOT
BRANCH   9  12
ATOM     12  C   UNL     1       2.959   6.115  18.169  0.00  0.00    +0.000 A 
ATOM     13  C   UNL     1       4.269   5.861  18.571  0.00  0.00    +0.000 A 
ATOM     14  C   UNL     1       4.673   4.540  18.689  0.00  0.00    +0.000 A 
ATOM     15  N   UNL     1       3.870   3.482  18.451  0.00  0.00    +0.000 NA
ATOM     16  C   UNL     1       2.609   3.758  18.051  0.00  0.00    +0.000 A 
ATOM     17  C   UNL     1       2.110   5.042  17.903  0.00  0.00    +0.000 A 
ENDBRANCH   9  12
BRANCH   1  19
ATOM     18  C   UNL     1      -2.176  12.147  23.099  0.00  0.00    +0.000 C 
ATOM     19  O   UNL     1      -1.196  12.265  22.072  0.00  0.00    +0.000 OA
ENDBRANCH   1  19
TORSDOF 2
ENDMDL
MODEL 7
REMARK VINA RESULT:      -6.6      4.454      6.857
REMARK  Name = 
REMARK  3 active torsions:
REMARK  status: ('A' for Active; 'I' for Inactive)
REMARK    1  A    between atoms: C_1  and  O_2
REMARK    2  A    between atoms: O_2  and  C_3
REMARK    3  A    between atoms: C_11  and  C_12
REMARK                            x       y       z     vdW  Elec       q    Type
REMARK                         _______ _______ _______ _____ _____    ______ ____
ROOT
ATOM      1  C   UNL     1       7.203   5.071  14.427  0.00  0.00    +0.000 A 
ATOM      2  C   UNL     1       6.295   4.030  14.157  0.00  0.00    +0.000 A 
ATOM      3  C   UNL     1       5.304   3.694  15.079  0.00  0.00    +0.000 A 
ATOM      4  C   UNL     1       5.261   4.411  16.260  0.00  0.00    +0.000 A 
ATOM      5  C   UNL     1       6.160   5.430  16.561  0.00  0.00    +0.000 A 
ATOM      6  C   UNL     1       7.146   5.767  15.645  0.00  0.00    +0.000 A 
ATOM      7  C   UNL     1       5.883   6.026  17.908  0.00  0.00    +0.000 C 
ATOM      8  C   UNL     1       4.728   5.202  18.441  0.00  0.00    +0.000 C 
ATOM      9  C   UNL     1       4.179   5.299  19.661  0.00  0.00    +0.000 C 
ATOM     10  C   UNL     1       4.328   4.230  17.370  0.00  0.00    +0.000 C 
ATOM     11  O   UNL     1       3.415   3.428  17.376  0.00  0.00    +0.000 OA
ENDROOT
BRANCH   9  12
ATOM     12  C   UNL     1       3.068   4.472  20.132  0.00  0.00    +0.000 A 
ATOM     13  C   UNL     1       3.303   3.227  20.711  0.00  0.00    +0.000 A 
ATOM     14  C   UNL     1       2.209   2.463  21.088  0.00  0.00    +0.000 A 
ATOM     15  N   UNL     1       0.927   2.858  20.942  0.00  0.00    +0.000 NA
ATOM     16  C   UNL     1       0.729   4.064  20.366  0.00  0.00    +0.000 A 
ATOM     17  C   UNL     1       1.753   4.901  19.954  0.00  0.00    +0.000 A 
ENDBRANCH   9  12
BRANCH   1  19
ATOM     18  C   UNL     1       7.880   5.441  12.195  0.00  0.00    +0.000 C 
ATOM     19  O   UNL     1       8.208   5.459  13.581  0.00  0.00    +0.000 OA
ENDBRANCH   1  19
TORSDOF 2
ENDMDL
MODEL 8
REMARK VINA RESULT:      -6.6      1.333      2.065
REMARK  Name = 
REMARK  3 active torsions:
REMARK  status: ('A' for Active; 'I' for Inactive)
REMARK    1  A    between atoms: C_1  and  O_2
REMARK    2  A    between atoms: O_2  and  C_3
REMARK    3  A    between atoms: C_11  and  C_12
REMARK                            x       y       z     vdW  Elec       q    Type
REMARK                         _______ _______ _______ _____ _____    ______ ____
ROOT
ATOM      1  C   UNL     1      -0.534  10.988  21.589  0.00  0.00    +0.000 A 
ATOM      2  C   UNL     1      -0.465   9.876  22.449  0.00  0.00    +0.000 A 
ATOM      3  C   UNL     1       0.239   8.731  22.078  0.00  0.00    +0.000 A 
ATOM      4  C   UNL     1       0.850   8.732  20.837  0.00  0.00    +0.000 A 
ATOM      5  C   UNL     1       0.779   9.809  19.959  0.00  0.00    +0.000 A 
ATOM      6  C   UNL     1       0.078  10.949  20.327  0.00  0.00    +0.000 A 
ATOM      7  C   UNL     1       1.524   9.531  18.688  0.00  0.00    +0.000 C 
ATOM      8  C   UNL     1       2.020   8.110  18.860  0.00  0.00    +0.000 C 
ATOM      9  C   UNL     1       2.669   7.379  17.942  0.00  0.00    +0.000 C 
ATOM     10  C   UNL     1       1.625   7.651  20.233  0.00  0.00    +0.000 C 
ATOM     11  O   UNL     1       1.874   6.596  20.781  0.00  0.00    +0.000 OA
ENDROOT
BRANCH   9  12
ATOM     12  C   UNL     1       3.121   6.003  18.155  0.00  0.00    +0.000 A 
ATOM     13  C   UNL     1       2.275   4.928  17.892  0.00  0.00    +0.000 A 
ATOM     14  C   UNL     1       2.737   3.649  18.164  0.00  0.00    +0.000 A 
ATOM     15  N   UNL     1       3.965   3.380  18.656  0.00  0.00    +0.000 NA
ATOM     16  C   UNL     1       4.759   4.443  18.912  0.00  0.00    +0.000 A 
ATOM     17  C   UNL     1       4.390   5.757  18.676  0.00  0.00    +0.000 A 
ENDBRANCH   9  12
BRANCH   1  19
ATOM     18  C   UNL     1      -1.964  12.130  23.083  0.00  0.00    +0.000 C 
ATOM     19  O   UNL     1      -1.211  12.145  21.874  0.00  0.00    +0.000 OA
ENDBRANCH   1  19
TORSDOF 2
ENDMDL
MODEL 9
REMARK VINA RESULT:      -6.6      3.245      7.220
REMARK  Name = 
REMARK  3 active torsions:
REMARK  status: ('A' for Active; 'I' for Inactive)
REMARK    1  A    between atoms: C_1  and  O_2
REMARK    2  A    between atoms: O_2  and  C_3
REMARK    3  A    between atoms: C_11  and  C_12
REMARK                            x       y       z     vdW  Elec       q    Type
REMARK                         _______ _______ _______ _____ _____    ______ ____
ROOT
ATOM      1  C   UNL     1       4.256   5.024  18.369  0.00  0.00    +0.000 A 
ATOM      2  C   UNL     1       4.342   5.812  17.206  0.00  0.00    +0.000 A 
ATOM      3  C   UNL     1       3.666   7.029  17.119  0.00  0.00    +0.000 A 
ATOM      4  C   UNL     1       2.907   7.416  18.207  0.00  0.00    +0.000 A 
ATOM      5  C   UNL     1       2.786   6.646  19.359  0.00  0.00    +0.000 A 
ATOM      6  C   UNL     1       3.458   5.436  19.448  0.00  0.00    +0.000 A 
ATOM      7  C   UNL     1       1.896   7.305  20.370  0.00  0.00    +0.000 C 
ATOM      8  C   UNL     1       1.423   8.564  19.672  0.00  0.00    +0.000 C 
ATOM      9  C   UNL     1       0.530   9.446  20.144  0.00  0.00    +0.000 C 
ATOM     10  C   UNL     1       2.108   8.632  18.339  0.00  0.00    +0.000 C 
ATOM     11  O   UNL     1       2.043   9.506  17.496  0.00  0.00    +0.000 OA
ENDROOT
BRANCH   9  12
ATOM     12  C   UNL     1       0.097  10.646  19.426  0.00  0.00    +0.000 A 
ATOM     13  C   UNL     1       0.797  11.844  19.556  0.00  0.00    +0.000 A 
ATOM     14  C   UNL     1       0.310  12.961  18.895  0.00  0.00    +0.000 A 
ATOM     15  N   UNL     1      -0.795  12.957  18.120  0.00  0.00    +0.000 NA
ATOM     16  C   UNL     1      -1.460  11.784  18.022  0.00  0.00    +0.000 A 
ATOM     17  C   UNL     1      -1.056  10.614  18.643  0.00  0.00    +0.000 A 
ENDBRANCH   9  12
BRANCH   1  19
ATOM     18  C   UNL     1       4.396   3.020  19.610  0.00  0.00    +0.000 C 
ATOM     19  O   UNL     1       4.880   3.816  18.532  0.00  0.00    +0.000 OA
ENDBRANCH   1  19
TORSDOF 2
ENDMDL
