MODEL 1
REMARK VINA RESULT:      -7.8      0.000      0.000
REMARK  Name = 
REMARK  12 active torsions:
REMARK  status: ('A' for Active; 'I' for Inactive)
REMARK    1  A    between atoms: C_1  and  C_2
REMARK    2  A    between atoms: N_4  and  C_5
REMARK    3  A    between atoms: C_5  and  C_6
REMARK    4  A    between atoms: C_8  and  N_9
REMARK    5  A    between atoms: C_10  and  C_12
REMARK    6  A    between atoms: C_12  and  N_13
REMARK    7  A    between atoms: C_12  and  C_14
REMARK    8  A    between atoms: C_14  and  C_15
REMARK    9  A    between atoms: C_15  and  C_16
REMARK   10  A    between atoms: C_15  and  C_17
REMARK   11  A    between atoms: C_18  and  C_19
REMARK   12  A    between atoms: C_19  and  O_20
REMARK                            x       y       z     vdW  Elec       q    Type
REMARK                         _______ _______ _______ _____ _____    ______ ____
ROOT
ATOM      1  C   UNL     1       3.377   2.191  18.867  0.00  0.00    +0.000 C 
ATOM      2  C   UNL     1       3.734   2.377  17.392  0.00  0.00    +0.000 C 
ATOM      3  C   UNL     1       4.479   3.691  17.368  0.00  0.00    +0.000 C 
ATOM      4  C   UNL     1       5.223   3.662  18.704  0.00  0.00    +0.000 C 
ATOM      5  O   UNL     1       4.429   2.851  19.607  0.00  0.00    +0.000 OA
ENDROOT
BRANCH   3   6
ATOM      6  N   UNL     1       5.333   3.806  16.198  0.00  0.00    +0.000 N 
ATOM      7  C   UNL     1       5.493   5.019  15.554  0.00  0.00    +0.000 C 
ATOM      8  O   UNL     1       4.892   6.026  15.898  0.00  0.00    +0.000 OA
ATOM      9  H   UNL     1       5.976   3.058  15.974  0.00  0.00    +0.000 HD
BRANCH   7  10
ATOM     10  C   UNL     1       6.382   4.946  14.300  0.00  0.00    +0.000 C 
BRANCH  10  11
ATOM     11  N   UNL     1       7.774   5.265  14.705  0.00  0.00    +0.000 NA
ATOM     12  H   UNL     1       8.359   5.306  13.867  0.00  0.00    +0.000 HD
ATOM     13  H   UNL     1       8.159   4.495  15.258  0.00  0.00    +0.000 HD
ENDBRANCH  10  11
BRANCH  10  14
ATOM     14  C   UNL     1       6.326   3.545  13.671  0.00  0.00    +0.000 C 
BRANCH  14  15
ATOM     15  C   UNL     1       6.187   3.523  12.128  0.00  0.00    +0.000 C 
ATOM     16  C   UNL     1       7.051   2.465  11.442  0.00  0.00    +0.000 C 
ATOM     17  C   UNL     1       4.718   3.284  11.758  0.00  0.00    +0.000 C 
ENDBRANCH  14  15
ENDBRANCH  10  14
ENDBRANCH   7  10
ENDBRANCH   3   6
BRANCH   1  18
ATOM     18  C   UNL     1       2.012   2.833  19.238  0.00  0.00    +0.000 C 
BRANCH  18  22
ATOM     19  C   UNL     1       2.076   7.585  17.749  0.00  0.00    +0.000 C 
ATOM     20  C   UNL     1       2.060   6.539  18.816  0.00  0.00    +0.000 A 
ATOM     21  C   UNL     1       2.062   5.222  18.571  0.00  0.00    +0.000 A 
ATOM     22  N   UNL     1       2.073   4.271  19.578  0.00  0.00    +0.000 N 
ATOM     23  C   UNL     1       2.078   4.642  20.916  0.00  0.00    +0.000 A 
ATOM     24  O   UNL     1       2.049   3.841  21.846  0.00  0.00    +0.000 OA
ATOM     25  N   UNL     1       2.092   5.992  21.163  0.00  0.00    +0.000 N 
ATOM     26  C   UNL     1       2.046   6.985  20.231  0.00  0.00    +0.000 A 
ATOM     27  O   UNL     1       1.989   8.172  20.542  0.00  0.00    +0.000 OA
ATOM     28  H   UNL     1       2.069   6.269  22.132  0.00  0.00    +0.000 HD
ENDBRANCH  18  22
ENDBRANCH   1  18
BRANCH   4  29
ATOM     29  C   UNL     1       5.407   5.056  19.305  0.00  0.00    +0.000 C 
BRANCH  29  30
ATOM     30  O   UNL     1       6.750   5.254  19.742  0.00  0.00    +0.000 OA
ATOM     31  H   UNL     1       7.304   4.640  19.224  0.00  0.00    +0.000 HD
ENDBRANCH  29  30
ENDBRANCH   4  29
TORSDOF 9
ENDMDL
MODEL 2
REMARK VINA RESULT:      -7.3      2.649      7.050
REMARK  Name = 
REMARK  12 active torsions:
REMARK  status: ('A' for Active; 'I' for Inactive)
REMARK    1  A    between atoms: C_1  and  C_2
REMARK    2  A    between atoms: N_4  and  C_5
REMARK    3  A    between atoms: C_5  and  C_6
REMARK    4  A    between atoms: C_8  and  N_9
REMARK    5  A    between atoms: C_10  and  C_12
REMARK    6  A    between atoms: C_12  and  N_13
REMARK    7  A    between atoms: C_12  and  C_14
REMARK    8  A    between atoms: C_14  and  C_15
REMARK    9  A    between atoms: C_15  and  C_16
REMARK   10  A    between atoms: C_15  and  C_17
REMARK   11  A    between atoms: C_18  and  C_19
REMARK   12  A    between atoms: C_19  and  O_20
REMARK                            x       y       z     vdW  Elec       q    Type
REMARK                         _______ _______ _______ _____ _____    ______ ____
ROOT
ATOM      1  C   UNL     1       4.372   4.771  19.666  0.00  0.00    +0.000 C 
ATOM      2  C   UNL     1       3.994   6.160  19.150  0.00  0.00    +0.000 C 
ATOM      3  C   UNL     1       2.484   6.146  19.158  0.00  0.00    +0.000 C 
ATOM      4  C   UNL     1       2.178   5.288  20.386  0.00  0.00    +0.000 C 
ATOM      5  O   UNL     1       3.299   4.382  20.553  0.00  0.00    +0.000 OA
ENDROOT
BRANCH   3   6
ATOM      6  N   UNL     1       1.932   7.489  19.201  0.00  0.00    +0.000 N 
ATOM      7  C   UNL     1       2.083   8.352  18.130  0.00  0.00    +0.000 C 
ATOM      8  O   UNL     1       2.725   8.052  17.135  0.00  0.00    +0.000 OA
ATOM      9  H   UNL     1       1.258   7.729  19.916  0.00  0.00    +0.000 HD
BRANCH   7  10
ATOM     10  C   UNL     1       1.490   9.752  18.370  0.00  0.00    +0.000 C 
BRANCH  10  11
ATOM     11  N   UNL     1       2.232  10.716  17.519  0.00  0.00    +0.000 NA
ATOM     12  H   UNL     1       2.591  11.469  18.112  0.00  0.00    +0.000 HD
ATOM     13  H   UNL     1       1.586  11.176  16.872  0.00  0.00    +0.000 HD
ENDBRANCH  10  11
BRANCH  10  14
ATOM     14  C   UNL     1      -0.005   9.780  18.016  0.00  0.00    +0.000 C 
BRANCH  14  15
ATOM     15  C   UNL     1      -0.815  10.925  18.676  0.00  0.00    +0.000 C 
ATOM     16  C   UNL     1      -2.303  10.913  18.327  0.00  0.00    +0.000 C 
ATOM     17  C   UNL     1      -0.659  10.838  20.199  0.00  0.00    +0.000 C 
ENDBRANCH  14  15
ENDBRANCH  10  14
ENDBRANCH   7  10
ENDBRANCH   3   6
BRANCH   1  18
ATOM     18  C   UNL     1       4.496   3.723  18.527  0.00  0.00    +0.000 C 
BRANCH  18  22
ATOM     19  C   UNL     1       5.416   4.305  13.667  0.00  0.00    +0.000 C 
ATOM     20  C   UNL     1       5.818   4.392  15.104  0.00  0.00    +0.000 A 
ATOM     21  C   UNL     1       5.032   4.023  16.123  0.00  0.00    +0.000 A 
ATOM     22  N   UNL     1       5.437   4.089  17.446  0.00  0.00    +0.000 N 
ATOM     23  C   UNL     1       6.700   4.554  17.788  0.00  0.00    +0.000 A 
ATOM     24  O   UNL     1       7.094   4.668  18.945  0.00  0.00    +0.000 OA
ATOM     25  N   UNL     1       7.508   4.916  16.740  0.00  0.00    +0.000 N 
ATOM     26  C   UNL     1       7.170   4.914  15.420  0.00  0.00    +0.000 A 
ATOM     27  O   UNL     1       7.933   5.324  14.549  0.00  0.00    +0.000 OA
ATOM     28  H   UNL     1       8.417   5.280  16.982  0.00  0.00    +0.000 HD
ENDBRANCH  18  22
ENDBRANCH   1  18
BRANCH   4  29
ATOM     29  C   UNL     1       0.891   4.476  20.232  0.00  0.00    +0.000 C 
BRANCH  29  30
ATOM     30  O   UNL     1       0.957   3.263  20.977  0.00  0.00    +0.000 OA
ATOM     31  H   UNL     1       1.231   3.505  21.881  0.00  0.00    +0.000 HD
ENDBRANCH  29  30
ENDBRANCH   4  29
TORSDOF 9
ENDMDL
MODEL 3
REMARK VINA RESULT:      -7.3      3.916      5.974
REMARK  Name = 
REMARK  12 active torsions:
REMARK  status: ('A' for Active; 'I' for Inactive)
REMARK    1  A    between atoms: C_1  and  C_2
REMARK    2  A    between atoms: N_4  and  C_5
REMARK    3  A    between atoms: C_5  and  C_6
REMARK    4  A    between atoms: C_8  and  N_9
REMARK    5  A    between atoms: C_10  and  C_12
REMARK    6  A    between atoms: C_12  and  N_13
REMARK    7  A    between atoms: C_12  and  C_14
REMARK    8  A    between atoms: C_14  and  C_15
REMARK    9  A    between atoms: C_15  and  C_16
REMARK   10  A    between atoms: C_15  and  C_17
REMARK   11  A    between atoms: C_18  and  C_19
REMARK   12  A    between atoms: C_19  and  O_20
REMARK                            x       y       z     vdW  Elec       q    Type
REMARK                         _______ _______ _______ _____ _____    ______ ____
ROOT
ATOM      1  C   UNL     1       4.585   4.975  17.446  0.00  0.00    +0.000 C 
ATOM      2  C   UNL     1       5.259   6.244  17.967  0.00  0.00    +0.000 C 
ATOM      3  C   UNL     1       6.588   6.264  17.250  0.00  0.00    +0.000 C 
ATOM      4  C   UNL     1       6.226   5.668  15.890  0.00  0.00    +0.000 C 
ATOM      5  O   UNL     1       5.093   4.789  16.105  0.00  0.00    +0.000 OA
ENDROOT
BRANCH   3   6
ATOM      6  N   UNL     1       7.154   7.601  17.199  0.00  0.00    +0.000 N 
ATOM      7  C   UNL     1       8.139   7.989  18.090  0.00  0.00    +0.000 C 
ATOM      8  O   UNL     1       8.536   7.256  18.984  0.00  0.00    +0.000 OA
ATOM      9  H   UNL     1       6.988   8.182  16.388  0.00  0.00    +0.000 HD
BRANCH   7  10
ATOM     10  C   UNL     1       8.579   9.454  17.932  0.00  0.00    +0.000 C 
BRANCH  10  11
ATOM     11  N   UNL     1       7.420  10.229  17.423  0.00  0.00    +0.000 NA
ATOM     12  H   UNL     1       6.776   9.588  16.953  0.00  0.00    +0.000 HD
ATOM     13  H   UNL     1       7.728  10.875  16.691  0.00  0.00    +0.000 HD
ENDBRANCH  10  11
BRANCH  10  14
ATOM     14  C   UNL     1       9.049  10.033  19.275  0.00  0.00    +0.000 C 
BRANCH  14  15
ATOM     15  C   UNL     1      10.321  10.915  19.203  0.00  0.00    +0.000 C 
ATOM     16  C   UNL     1      10.335  11.888  18.025  0.00  0.00    +0.000 C 
ATOM     17  C   UNL     1      10.457  11.708  20.508  0.00  0.00    +0.000 C 
ENDBRANCH  14  15
ENDBRANCH  10  14
ENDBRANCH   7  10
ENDBRANCH   3   6
BRANCH   1  18
ATOM     18  C   UNL     1       4.925   3.723  18.299  0.00  0.00    +0.000 C 
BRANCH  18  22
ATOM     19  C   UNL     1       0.619   4.708  20.599  0.00  0.00    +0.000 C 
ATOM     20  C   UNL     1       1.887   3.930  20.453  0.00  0.00    +0.000 A 
ATOM     21  C   UNL     1       2.803   4.168  19.506  0.00  0.00    +0.000 A 
ATOM     22  N   UNL     1       3.984   3.450  19.406  0.00  0.00    +0.000 N 
ATOM     23  C   UNL     1       4.279   2.426  20.297  0.00  0.00    +0.000 A 
ATOM     24  O   UNL     1       5.291   1.735  20.230  0.00  0.00    +0.000 OA
ATOM     25  N   UNL     1       3.345   2.196  21.275  0.00  0.00    +0.000 N 
ATOM     26  C   UNL     1       2.149   2.833  21.416  0.00  0.00    +0.000 A 
ATOM     27  O   UNL     1       1.336   2.514  22.281  0.00  0.00    +0.000 OA
ATOM     28  H   UNL     1       3.539   1.437  21.910  0.00  0.00    +0.000 HD
ENDBRANCH  18  22
ENDBRANCH   1  18
BRANCH   4  29
ATOM     29  C   UNL     1       7.375   4.869  15.273  0.00  0.00    +0.000 C 
BRANCH  29  30
ATOM     30  O   UNL     1       7.781   5.430  14.027  0.00  0.00    +0.000 OA
ATOM     31  H   UNL     1       8.248   6.261  14.235  0.00  0.00    +0.000 HD
ENDBRANCH  29  30
ENDBRANCH   4  29
TORSDOF 9
ENDMDL
MODEL 4
REMARK VINA RESULT:      -7.2      2.556      8.074
REMARK  Name = 
REMARK  12 active torsions:
REMARK  status: ('A' for Active; 'I' for Inactive)
REMARK    1  A    between atoms: C_1  and  C_2
REMARK    2  A    between atoms: N_4  and  C_5
REMARK    3  A    between atoms: C_5  and  C_6
REMARK    4  A    between atoms: C_8  and  N_9
REMARK    5  A    between atoms: C_10  and  C_12
REMARK    6  A    between atoms: C_12  and  N_13
REMARK    7  A    between atoms: C_12  and  C_14
REMARK    8  A    between atoms: C_14  and  C_15
REMARK    9  A    between atoms: C_15  and  C_16
REMARK   10  A    between atoms: C_15  and  C_17
REMARK   11  A    between atoms: C_18  and  C_19
REMARK   12  A    between atoms: C_19  and  O_20
REMARK                            x       y       z     vdW  Elec       q    Type
REMARK                         _______ _______ _______ _____ _____    ______ ____
ROOT
ATOM      1  C   UNL     1       4.272   4.952  18.657  0.00  0.00    +0.000 C 
ATOM      2  C   UNL     1       3.712   6.161  19.407  0.00  0.00    +0.000 C 
ATOM      3  C   UNL     1       2.327   5.718  19.817  0.00  0.00    +0.000 C 
ATOM      4  C   UNL     1       2.537   4.229  20.094  0.00  0.00    +0.000 C 
ATOM      5  O   UNL     1       3.639   3.798  19.255  0.00  0.00    +0.000 OA
ENDROOT
BRANCH   3   6
ATOM      6  N   UNL     1       1.827   6.483  20.945  0.00  0.00    +0.000 N 
ATOM      7  C   UNL     1       1.454   7.807  20.795  0.00  0.00    +0.000 C 
ATOM      8  O   UNL     1       1.575   8.403  19.735  0.00  0.00    +0.000 OA
ATOM      9  H   UNL     1       1.550   6.002  21.791  0.00  0.00    +0.000 HD
BRANCH   7  10
ATOM     10  C   UNL     1       1.006   8.480  22.104  0.00  0.00    +0.000 C 
BRANCH  10  11
ATOM     11  N   UNL     1       2.054   9.454  22.501  0.00  0.00    +0.000 NA
ATOM     12  H   UNL     1       2.295   9.295  23.482  0.00  0.00    +0.000 HD
ATOM     13  H   UNL     1       1.674  10.403  22.473  0.00  0.00    +0.000 HD
ENDBRANCH  10  11
BRANCH  10  14
ATOM     14  C   UNL     1      -0.337   9.202  21.916  0.00  0.00    +0.000 C 
BRANCH  14  15
ATOM     15  C   UNL     1      -0.290  10.739  22.108  0.00  0.00    +0.000 C 
ATOM     16  C   UNL     1      -0.459  11.531  20.812  0.00  0.00    +0.000 C 
ATOM     17  C   UNL     1      -1.387  11.157  23.095  0.00  0.00    +0.000 C 
ENDBRANCH  14  15
ENDBRANCH  10  14
ENDBRANCH   7  10
ENDBRANCH   3   6
BRANCH   1  18
ATOM     18  C   UNL     1       3.945   4.984  17.140  0.00  0.00    +0.000 C 
BRANCH  18  22
ATOM     19  C   UNL     1       6.210   3.560  12.939  0.00  0.00    +0.000 C 
ATOM     20  C   UNL     1       6.156   4.358  14.201  0.00  0.00    +0.000 A 
ATOM     21  C   UNL     1       5.141   4.308  15.073  0.00  0.00    +0.000 A 
ATOM     22  N   UNL     1       5.126   5.038  16.250  0.00  0.00    +0.000 N 
ATOM     23  C   UNL     1       6.179   5.877  16.589  0.00  0.00    +0.000 A 
ATOM     24  O   UNL     1       6.199   6.574  17.600  0.00  0.00    +0.000 OA
ATOM     25  N   UNL     1       7.224   5.914  15.701  0.00  0.00    +0.000 N 
ATOM     26  C   UNL     1       7.297   5.255  14.510  0.00  0.00    +0.000 A 
ATOM     27  O   UNL     1       8.242   5.401  13.738  0.00  0.00    +0.000 OA
ATOM     28  H   UNL     1       7.981   6.541  15.926  0.00  0.00    +0.000 HD
ENDBRANCH  18  22
ENDBRANCH   1  18
BRANCH   4  29
ATOM     29  C   UNL     1       1.300   3.390  19.772  0.00  0.00    +0.000 C 
BRANCH  29  30
ATOM     30  O   UNL     1       0.647   2.958  20.964  0.00  0.00    +0.000 OA
ATOM     31  H   UNL     1       1.145   2.184  21.289  0.00  0.00    +0.000 HD
ENDBRANCH  29  30
ENDBRANCH   4  29
TORSDOF 9
ENDMDL
MODEL 5
REMARK VINA RESULT:      -7.2      1.785      2.692
REMARK  Name = 
REMARK  12 active torsions:
REMARK  status: ('A' for Active; 'I' for Inactive)
REMARK    1  A    between atoms: C_1  and  C_2
REMARK    2  A    between atoms: N_4  and  C_5
REMARK    3  A    between atoms: C_5  and  C_6
REMARK    4  A    between atoms: C_8  and  N_9
REMARK    5  A    between atoms: C_10  and  C_12
REMARK    6  A    between atoms: C_12  and  N_13
REMARK    7  A    between atoms: C_12  and  C_14
REMARK    8  A    between atoms: C_14  and  C_15
REMARK    9  A    between atoms: C_15  and  C_16
REMARK   10  A    between atoms: C_15  and  C_17
REMARK   11  A    between atoms: C_18  and  C_19
REMARK   12  A    between atoms: C_19  and  O_20
REMARK                            x       y       z     vdW  Elec       q    Type
REMARK                         _______ _______ _______ _____ _____    ______ ____
ROOT
ATOM      1  C   UNL     1       2.405   2.139  18.082  0.00  0.00    +0.000 C 
ATOM      2  C   UNL     1       3.459   3.093  17.518  0.00  0.00    +0.000 C 
ATOM      3  C   UNL     1       4.400   3.310  18.679  0.00  0.00    +0.000 C 
ATOM      4  C   UNL     1       4.381   1.945  19.367  0.00  0.00    +0.000 C 
ATOM      5  O   UNL     1       3.090   1.350  19.080  0.00  0.00    +0.000 OA
ENDROOT
BRANCH   3   6
ATOM      6  N   UNL     1       5.712   3.750  18.235  0.00  0.00    +0.000 N 
ATOM      7  C   UNL     1       6.201   4.994  18.593  0.00  0.00    +0.000 C 
ATOM      8  O   UNL     1       5.543   5.792  19.244  0.00  0.00    +0.000 OA
ATOM      9  H   UNL     1       6.358   3.078  17.843  0.00  0.00    +0.000 HD
BRANCH   7  10
ATOM     10  C   UNL     1       7.577   5.320  17.986  0.00  0.00    +0.000 C 
BRANCH  10  11
ATOM     11  N   UNL     1       8.335   4.049  17.861  0.00  0.00    +0.000 NA
ATOM     12  H   UNL     1       8.329   3.572  18.765  0.00  0.00    +0.000 HD
ATOM     13  H   UNL     1       9.322   4.251  17.676  0.00  0.00    +0.000 HD
ENDBRANCH  10  11
BRANCH  10  14
ATOM     14  C   UNL     1       7.425   5.979  16.606  0.00  0.00    +0.000 C 
BRANCH  14  15
ATOM     15  C   UNL     1       6.272   5.420  15.735  0.00  0.00    +0.000 C 
ATOM     16  C   UNL     1       5.156   6.428  15.461  0.00  0.00    +0.000 C 
ATOM     17  C   UNL     1       6.843   4.931  14.398  0.00  0.00    +0.000 C 
ENDBRANCH  14  15
ENDBRANCH  10  14
ENDBRANCH   7  10
ENDBRANCH   3   6
BRANCH   1  18
ATOM     18  C   UNL     1       1.217   2.885  18.747  0.00  0.00    +0.000 C 
BRANCH  18  22
ATOM     19  C   UNL     1       2.327   7.623  17.689  0.00  0.00    +0.000 C 
ATOM     20  C   UNL     1       2.017   6.527  18.657  0.00  0.00    +0.000 A 
ATOM     21  C   UNL     1       1.785   5.258  18.297  0.00  0.00    +0.000 A 
ATOM     22  N   UNL     1       1.526   4.254  19.215  0.00  0.00    +0.000 N 
ATOM     23  C   UNL     1       1.487   4.518  20.578  0.00  0.00    +0.000 A 
ATOM     24  O   UNL     1       1.225   3.674  21.430  0.00  0.00    +0.000 OA
ATOM     25  N   UNL     1       1.741   5.816  20.943  0.00  0.00    +0.000 N 
ATOM     26  C   UNL     1       1.969   6.863  20.101  0.00  0.00    +0.000 A 
ATOM     27  O   UNL     1       2.116   8.012  20.511  0.00  0.00    +0.000 OA
ATOM     28  H   UNL     1       1.690   6.022  21.929  0.00  0.00    +0.000 HD
ENDBRANCH  18  22
ENDBRANCH   1  18
BRANCH   4  29
ATOM     29  C   UNL     1       4.565   2.047  20.882  0.00  0.00    +0.000 C 
BRANCH  29  30
ATOM     30  O   UNL     1       3.312   1.966  21.558  0.00  0.00    +0.000 OA
ATOM     31  H   UNL     1       3.328   1.138  22.074  0.00  0.00    +0.000 HD
ENDBRANCH  29  30
ENDBRANCH   4  29
TORSDOF 9
ENDMDL
MODEL 6
REMARK VINA RESULT:      -7.2      2.640      6.985
REMARK  Name = 
REMARK  12 active torsions:
REMARK  status: ('A' for Active; 'I' for Inactive)
REMARK    1  A    between atoms: C_1  and  C_2
REMARK    2  A    between atoms: N_4  and  C_5
REMARK    3  A    between atoms: C_5  and  C_6
REMARK    4  A    between atoms: C_8  and  N_9
REMARK    5  A    between atoms: C_10  and  C_12
REMARK    6  A    between atoms: C_12  and  N_13
REMARK    7  A    between atoms: C_12  and  C_14
REMARK    8  A    between atoms: C_14  and  C_15
REMARK    9  A    between atoms: C_15  and  C_16
REMARK   10  A    between atoms: C_15  and  C_17
REMARK   11  A    between atoms: C_18  and  C_19
REMARK   12  A    between atoms: C_19  and  O_20
REMARK                            x       y       z     vdW  Elec       q    Type
REMARK                         _______ _______ _______ _____ _____    ______ ____
ROOT
ATOM      1  C   UNL     1       4.581   4.777  19.552  0.00  0.00    +0.000 C 
ATOM      2  C   UNL     1       4.344   6.062  18.758  0.00  0.00    +0.000 C 
ATOM      3  C   UNL     1       2.908   5.942  18.304  0.00  0.00    +0.000 C 
ATOM      4  C   UNL     1       2.258   5.222  19.485  0.00  0.00    +0.000 C 
ATOM      5  O   UNL     1       3.296   4.425  20.112  0.00  0.00    +0.000 OA
ENDROOT
BRANCH   3   6
ATOM      6  N   UNL     1       2.331   7.237  17.989  0.00  0.00    +0.000 N 
ATOM      7  C   UNL     1       1.969   8.116  18.994  0.00  0.00    +0.000 C 
ATOM      8  O   UNL     1       2.065   7.829  20.178  0.00  0.00    +0.000 OA
ATOM      9  H   UNL     1       2.385   7.591  17.042  0.00  0.00    +0.000 HD
BRANCH   7  10
ATOM     10  C   UNL     1       1.320   9.414  18.483  0.00  0.00    +0.000 C 
BRANCH  10  11
ATOM     11  N   UNL     1       2.172   9.956  17.394  0.00  0.00    +0.000 NA
ATOM     12  H   UNL     1       2.777   9.207  17.047  0.00  0.00    +0.000 HD
ATOM     13  H   UNL     1       2.813  10.658  17.772  0.00  0.00    +0.000 HD
ENDBRANCH  10  11
BRANCH  10  14
ATOM     14  C   UNL     1      -0.098   9.145  17.956  0.00  0.00    +0.000 C 
BRANCH  14  15
ATOM     15  C   UNL     1      -1.074  10.345  18.052  0.00  0.00    +0.000 C 
ATOM     16  C   UNL     1      -2.507  10.013  17.638  0.00  0.00    +0.000 C 
ATOM     17  C   UNL     1      -1.080  10.875  19.490  0.00  0.00    +0.000 C 
ENDBRANCH  14  15
ENDBRANCH  10  14
ENDBRANCH   7  10
ENDBRANCH   3   6
BRANCH   1  18
ATOM     18  C   UNL     1       5.087   3.609  18.663  0.00  0.00    +0.000 C 
BRANCH  18  22
ATOM     19  C   UNL     1       5.302   4.109  13.713  0.00  0.00    +0.000 C 
ATOM     20  C   UNL     1       5.879   4.282  15.080  0.00  0.00    +0.000 A 
ATOM     21  C   UNL     1       5.272   3.876  16.203  0.00  0.00    +0.000 A 
ATOM     22  N   UNL     1       5.838   4.024  17.458  0.00  0.00    +0.000 N 
ATOM     23  C   UNL     1       7.083   4.618  17.619  0.00  0.00    +0.000 A 
ATOM     24  O   UNL     1       7.613   4.808  18.710  0.00  0.00    +0.000 OA
ATOM     25  N   UNL     1       7.708   5.019  16.465  0.00  0.00    +0.000 N 
ATOM     26  C   UNL     1       7.203   4.939  15.202  0.00  0.00    +0.000 A 
ATOM     27  O   UNL     1       7.802   5.390  14.229  0.00  0.00    +0.000 OA
ATOM     28  H   UNL     1       8.601   5.474  16.575  0.00  0.00    +0.000 HD
ENDBRANCH  18  22
ENDBRANCH   1  18
BRANCH   4  29
ATOM     29  C   UNL     1       1.109   4.308  19.057  0.00  0.00    +0.000 C 
BRANCH  29  30
ATOM     30  O   UNL     1       1.108   4.110  17.645  0.00  0.00    +0.000 OA
ATOM     31  H   UNL     1       1.890   4.579  17.298  0.00  0.00    +0.000 HD
ENDBRANCH  29  30
ENDBRANCH   4  29
TORSDOF 9
ENDMDL
MODEL 7
REMARK VINA RESULT:      -7.1      5.924      8.524
REMARK  Name = 
REMARK  12 active torsions:
REMARK  status: ('A' for Active; 'I' for Inactive)
REMARK    1  A    between atoms: C_1  and  C_2
REMARK    2  A    between atoms: N_4  and  C_5
REMARK    3  A    between atoms: C_5  and  C_6
REMARK    4  A    between atoms: C_8  and  N_9
REMARK    5  A    between atoms: C_10  and  C_12
REMARK    6  A    between atoms: C_12  and  N_13
REMARK    7  A    between atoms: C_12  and  C_14
REMARK    8  A    between atoms: C_14  and  C_15
REMARK    9  A    between atoms: C_15  and  C_16
REMARK   10  A    between atoms: C_15  and  C_17
REMARK   11  A    between atoms: C_18  and  C_19
REMARK   12  A    between atoms: C_19  and  O_20
REMARK                            x       y       z     vdW  Elec       q    Type
REMARK                         _______ _______ _______ _____ _____    ______ ____
ROOT
ATOM      1  C   UNL     1      -1.165  11.442  19.343  0.00  0.00    +0.000 C 
ATOM      2  C   UNL     1      -0.682   9.992  19.388  0.00  0.00    +0.000 C 
ATOM      3  C   UNL     1       0.732  10.069  18.863  0.00  0.00    +0.000 C 
ATOM      4  C   UNL     1       1.200  11.421  19.403  0.00  0.00    +0.000 C 
ATOM      5  O   UNL     1       0.018  12.250  19.538  0.00  0.00    +0.000 OA
ENDROOT
BRANCH   3   6
ATOM      6  N   UNL     1       1.529   8.933  19.291  0.00  0.00    +0.000 N 
ATOM      7  C   UNL     1       2.281   8.212  18.381  0.00  0.00    +0.000 C 
ATOM      8  O   UNL     1       2.269   8.457  17.184  0.00  0.00    +0.000 OA
ATOM      9  H   UNL     1       1.708   8.792  20.277  0.00  0.00    +0.000 HD
BRANCH   7  10
ATOM     10  C   UNL     1       3.015   7.006  18.996  0.00  0.00    +0.000 C 
BRANCH  10  11
ATOM     11  N   UNL     1       2.362   6.684  20.290  0.00  0.00    +0.000 NA
ATOM     12  H   UNL     1       1.351   6.797  20.185  0.00  0.00    +0.000 HD
ATOM     13  H   UNL     1       2.633   7.374  20.996  0.00  0.00    +0.000 HD
ENDBRANCH  10  11
BRANCH  10  14
ATOM     14  C   UNL     1       2.951   5.791  18.058  0.00  0.00    +0.000 C 
BRANCH  14  15
ATOM     15  C   UNL     1       4.199   4.874  18.084  0.00  0.00    +0.000 C 
ATOM     16  C   UNL     1       4.012   3.594  18.898  0.00  0.00    +0.000 C 
ATOM     17  C   UNL     1       4.580   4.501  16.647  0.00  0.00    +0.000 C 
ENDBRANCH  14  15
ENDBRANCH  10  14
ENDBRANCH   7  10
ENDBRANCH   3   6
BRANCH   1  18
ATOM     18  C   UNL     1      -1.819  11.814  17.985  0.00  0.00    +0.000 C 
BRANCH  18  22
ATOM     19  C   UNL     1      -6.162  12.369  20.358  0.00  0.00    +0.000 C 
ATOM     20  C   UNL     1      -5.358  12.064  19.135  0.00  0.00    +0.000 A 
ATOM     21  C   UNL     1      -4.019  12.056  19.105  0.00  0.00    +0.000 A 
ATOM     22  N   UNL     1      -3.296  11.745  17.966  0.00  0.00    +0.000 N 
ATOM     23  C   UNL     1      -3.934  11.425  16.775  0.00  0.00    +0.000 A 
ATOM     24  O   UNL     1      -3.342  11.178  15.728  0.00  0.00    +0.000 OA
ATOM     25  N   UNL     1      -5.306  11.419  16.814  0.00  0.00    +0.000 N 
ATOM     26  C   UNL     1      -6.086  11.747  17.882  0.00  0.00    +0.000 A 
ATOM     27  O   UNL     1      -7.312  11.786  17.810  0.00  0.00    +0.000 OA
ATOM     28  H   UNL     1      -5.777  11.213  15.947  0.00  0.00    +0.000 HD
ENDBRANCH  18  22
ENDBRANCH   1  18
BRANCH   4  29
ATOM     29  C   UNL     1       2.199  12.112  18.474  0.00  0.00    +0.000 C 
BRANCH  29  30
ATOM     30  O   UNL     1       2.445  11.327  17.309  0.00  0.00    +0.000 OA
ATOM     31  H   UNL     1       1.858  11.672  16.611  0.00  0.00    +0.000 HD
ENDBRANCH  29  30
ENDBRANCH   4  29
TORSDOF 9
ENDMDL
MODEL 8
REMARK VINA RESULT:      -7.1      2.323      3.265
REMARK  Name = 
REMARK  12 active torsions:
REMARK  status: ('A' for Active; 'I' for Inactive)
REMARK    1  A    between atoms: C_1  and  C_2
REMARK    2  A    between atoms: N_4  and  C_5
REMARK    3  A    between atoms: C_5  and  C_6
REMARK    4  A    between atoms: C_8  and  N_9
REMARK    5  A    between atoms: C_10  and  C_12
REMARK    6  A    between atoms: C_12  and  N_13
REMARK    7  A    between atoms: C_12  and  C_14
REMARK    8  A    between atoms: C_14  and  C_15
REMARK    9  A    between atoms: C_15  and  C_16
REMARK   10  A    between atoms: C_15  and  C_17
REMARK   11  A    between atoms: C_18  and  C_19
REMARK   12  A    between atoms: C_19  and  O_20
REMARK                            x       y       z     vdW  Elec       q    Type
REMARK                         _______ _______ _______ _____ _____    ______ ____
ROOT
ATOM      1  C   UNL     1       2.273   2.095  17.895  0.00  0.00    +0.000 C 
ATOM      2  C   UNL     1       3.313   2.986  17.215  0.00  0.00    +0.000 C 
ATOM      3  C   UNL     1       4.260   3.348  18.334  0.00  0.00    +0.000 C 
ATOM      4  C   UNL     1       4.260   2.073  19.178  0.00  0.00    +0.000 C 
ATOM      5  O   UNL     1       2.973   1.436  18.973  0.00  0.00    +0.000 OA
ENDROOT
BRANCH   3   6
ATOM      6  N   UNL     1       5.563   3.745  17.831  0.00  0.00    +0.000 N 
ATOM      7  C   UNL     1       5.693   4.815  16.963  0.00  0.00    +0.000 C 
ATOM      8  O   UNL     1       4.727   5.434  16.541  0.00  0.00    +0.000 OA
ATOM      9  H   UNL     1       6.399   3.384  18.271  0.00  0.00    +0.000 HD
BRANCH   7  10
ATOM     10  C   UNL     1       7.135   5.058  16.484  0.00  0.00    +0.000 C 
BRANCH  10  11
ATOM     11  N   UNL     1       7.234   4.595  15.077  0.00  0.00    +0.000 NA
ATOM     12  H   UNL     1       7.679   3.674  15.065  0.00  0.00    +0.000 HD
ATOM     13  H   UNL     1       7.872   5.202  14.556  0.00  0.00    +0.000 HD
ENDBRANCH  10  11
BRANCH  10  14
ATOM     14  C   UNL     1       7.497   6.548  16.574  0.00  0.00    +0.000 C 
BRANCH  14  15
ATOM     15  C   UNL     1       7.448   7.152  18.000  0.00  0.00    +0.000 C 
ATOM     16  C   UNL     1       8.107   6.278  19.067  0.00  0.00    +0.000 C 
ATOM     17  C   UNL     1       8.130   8.525  17.989  0.00  0.00    +0.000 C 
ENDBRANCH  14  15
ENDBRANCH  10  14
ENDBRANCH   7  10
ENDBRANCH   3   6
BRANCH   1  18
ATOM     18  C   UNL     1       1.082   2.902  18.478  0.00  0.00    +0.000 C 
BRANCH  18  22
ATOM     19  C   UNL     1       2.296   7.683  17.791  0.00  0.00    +0.000 C 
ATOM     20  C   UNL     1       1.983   6.517  18.672  0.00  0.00    +0.000 A 
ATOM     21  C   UNL     1       1.705   5.290  18.213  0.00  0.00    +0.000 A 
ATOM     22  N   UNL     1       1.443   4.218  19.050  0.00  0.00    +0.000 N 
ATOM     23  C   UNL     1       1.451   4.366  20.431  0.00  0.00    +0.000 A 
ATOM     24  O   UNL     1       1.189   3.459  21.216  0.00  0.00    +0.000 OA
ATOM     25  N   UNL     1       1.752   5.621  20.897  0.00  0.00    +0.000 N 
ATOM     26  C   UNL     1       1.985   6.729  20.139  0.00  0.00    +0.000 A 
ATOM     27  O   UNL     1       2.177   7.835  20.640  0.00  0.00    +0.000 OA
ATOM     28  H   UNL     1       1.735   5.742  21.897  0.00  0.00    +0.000 HD
ENDBRANCH  18  22
ENDBRANCH   1  18
BRANCH   4  29
ATOM     29  C   UNL     1       4.453   2.354  20.669  0.00  0.00    +0.000 C 
BRANCH  29  30
ATOM     30  O   UNL     1       5.413   1.466  21.239  0.00  0.00    +0.000 OA
ATOM     31  H   UNL     1       6.050   2.021  21.726  0.00  0.00    +0.000 HD
ENDBRANCH  29  30
ENDBRANCH   4  29
TORSDOF 9
ENDMDL
MODEL 9
REMARK VINA RESULT:      -7.1      2.249      3.358
REMARK  Name = 
REMARK  12 active torsions:
REMARK  status: ('A' for Active; 'I' for Inactive)
REMARK    1  A    between atoms: C_1  and  C_2
REMARK    2  A    between atoms: N_4  and  C_5
REMARK    3  A    between atoms: C_5  and  C_6
REMARK    4  A    between atoms: C_8  and  N_9
REMARK    5  A    between atoms: C_10  and  C_12
REMARK    6  A    between atoms: C_12  and  N_13
REMARK    7  A    between atoms: C_12  and  C_14
REMARK    8  A    between atoms: C_14  and  C_15
REMARK    9  A    between atoms: C_15  and  C_16
REMARK   10  A    between atoms: C_15  and  C_17
REMARK   11  A    between atoms: C_18  and  C_19
REMARK   12  A    between atoms: C_19  and  O_20
REMARK                            x       y       z     vdW  Elec       q    Type
REMARK                         _______ _______ _______ _____ _____    ______ ____
ROOT
ATOM      1  C   UNL     1       2.195   6.028  18.669  0.00  0.00    +0.000 C 
ATOM      2  C   UNL     1       3.059   6.212  17.421  0.00  0.00    +0.000 C 
ATOM      3  C   UNL     1       4.210   5.259  17.639  0.00  0.00    +0.000 C 
ATOM      4  C   UNL     1       3.531   4.099  18.368  0.00  0.00    +0.000 C 
ATOM      5  O   UNL     1       2.400   4.659  19.084  0.00  0.00    +0.000 OA
ENDROOT
BRANCH   3   6
ATOM      6  N   UNL     1       4.857   4.898  16.390  0.00  0.00    +0.000 N 
ATOM      7  C   UNL     1       5.846   5.698  15.847  0.00  0.00    +0.000 C 
ATOM      8  O   UNL     1       6.182   6.757  16.355  0.00  0.00    +0.000 OA
ATOM      9  H   UNL     1       4.741   3.964  16.020  0.00  0.00    +0.000 HD
BRANCH   7  10
ATOM     10  C   UNL     1       6.378   5.197  14.492  0.00  0.00    +0.000 C 
BRANCH  10  11
ATOM     11  N   UNL     1       7.840   4.975  14.627  0.00  0.00    +0.000 NA
ATOM     12  H   UNL     1       8.264   5.814  15.031  0.00  0.00    +0.000 HD
ATOM     13  H   UNL     1       8.264   4.886  13.700  0.00  0.00    +0.000 HD
ENDBRANCH  10  11
BRANCH  10  14
ATOM     14  C   UNL     1       5.683   3.890  14.081  0.00  0.00    +0.000 C 
BRANCH  14  15
ATOM     15  C   UNL     1       6.009   3.394  12.650  0.00  0.00    +0.000 C 
ATOM     16  C   UNL     1       4.774   3.150  11.782  0.00  0.00    +0.000 C 
ATOM     17  C   UNL     1       6.912   4.420  11.955  0.00  0.00    +0.000 C 
ENDBRANCH  14  15
ENDBRANCH  10  14
ENDBRANCH   7  10
ENDBRANCH   3   6
BRANCH   1  18
ATOM     18  C   UNL     1       2.604   6.979  19.826  0.00  0.00    +0.000 C 
BRANCH  18  22
ATOM     19  C   UNL     1      -0.592   9.269  22.884  0.00  0.00    +0.000 C 
ATOM     20  C   UNL     1       0.166   9.177  21.599  0.00  0.00    +0.000 A 
ATOM     21  C   UNL     1       0.989   8.167  21.289  0.00  0.00    +0.000 A 
ATOM     22  N   UNL     1       1.662   8.091  20.081  0.00  0.00    +0.000 N 
ATOM     23  C   UNL     1       1.517   9.078  19.115  0.00  0.00    +0.000 A 
ATOM     24  O   UNL     1       2.117   9.078  18.044  0.00  0.00    +0.000 OA
ATOM     25  N   UNL     1       0.661  10.102  19.430  0.00  0.00    +0.000 N 
ATOM     26  C   UNL     1      -0.006  10.265  20.607  0.00  0.00    +0.000 A 
ATOM     27  O   UNL     1      -0.700  11.254  20.834  0.00  0.00    +0.000 OA
ATOM     28  H   UNL     1       0.570  10.836  18.744  0.00  0.00    +0.000 HD
ENDBRANCH  18  22
ENDBRANCH   1  18
BRANCH   4  29
ATOM     29  C   UNL     1       4.462   3.402  19.361  0.00  0.00    +0.000 C 
BRANCH  29  30
ATOM     30  O   UNL     1       5.823   3.753  19.122  0.00  0.00    +0.000 OA
ATOM     31  H   UNL     1       5.874   4.726  19.175  0.00  0.00    +0.000 HD
ENDBRANCH  29  30
ENDBRANCH   4  29
TORSDOF 9
ENDMDL
