MODEL 1
REMARK VINA RESULT:      -7.7      0.000      0.000
REMARK  Name = 
REMARK  5 active torsions:
REMARK  status: ('A' for Active; 'I' for Inactive)
REMARK    1  A    between atoms: C_1  and  S_2
REMARK    2  A    between atoms: S_2  and  C_3
REMARK    3  A    between atoms: C_3  and  N_5
REMARK    4  A    between atoms: N_16  and  C_17
REMARK    5  A    between atoms: C_20  and  C_21
REMARK                            x       y       z     vdW  Elec       q    Type
REMARK                         _______ _______ _______ _____ _____    ______ ____
ROOT
ATOM      1  N   UNL     1       3.502   4.356  19.036  0.00  0.00    +0.000 N 
ATOM      2  C   UNL     1       4.967   4.137  18.852  0.00  0.00    +0.000 C 
ATOM      3  C   UNL     1       5.535   4.742  17.542  0.00  0.00    +0.000 C 
ATOM      4  C   UNL     1       7.068   4.575  17.411  0.00  0.00    +0.000 C 
ATOM      5  C   UNL     1       7.592   5.121  16.069  0.00  0.00    +0.000 C 
ATOM      6  C   UNL     1       6.850   4.556  14.856  0.00  0.00    +0.000 C 
ATOM      7  C   UNL     1       5.333   4.568  15.001  0.00  0.00    +0.000 C 
ATOM      8  C   UNL     1       4.901   3.986  16.340  0.00  0.00    +0.000 C 
ATOM      9  C   UNL     1       5.258   6.249  17.599  0.00  0.00    +0.000 C 
ATOM     10  S   UNL     1       3.519   6.551  17.547  0.00  0.00    +0.000 S 
ATOM     11  C   UNL     1       3.037   5.679  18.988  0.00  0.00    +0.000 C 
ATOM     12  N   UNL     1       2.280   6.175  19.925  0.00  0.00    +0.000 NA
ENDROOT
BRANCH  12  13
ATOM     13  C   UNL     1       1.913   7.549  19.928  0.00  0.00    +0.000 A 
ATOM     14  C   UNL     1       1.466   8.230  21.070  0.00  0.00    +0.000 A 
ATOM     15  C   UNL     1       0.831   9.471  20.978  0.00  0.00    +0.000 A 
ATOM     16  C   UNL     1       0.792  10.139  19.757  0.00  0.00    +0.000 A 
ATOM     17  C   UNL     1       1.396   9.558  18.639  0.00  0.00    +0.000 A 
ATOM     18  C   UNL     1       1.936   8.267  18.726  0.00  0.00    +0.000 A 
BRANCH  16  19
ATOM     19  C   UNL     1       0.133  11.408  19.650  0.00  0.00    +0.000 C 
ATOM     20  N   UNL     1      -0.413  12.424  19.548  0.00  0.00    +0.000 NA
ENDBRANCH  16  19
ENDBRANCH  12  13
BRANCH   1  21
ATOM     21  C   UNL     1       2.653   3.305  19.421  0.00  0.00    +0.000 C 
ATOM     22  S   UNL     1       1.257   2.822  18.606  0.00  0.00    +0.000 S 
BRANCH  21  24
ATOM     23  C   UNL     1       1.328   2.739  21.786  0.00  0.00    +0.000 C 
ATOM     24  S   UNL     1       2.975   2.682  21.056  0.00  0.00    +0.000 S 
ENDBRANCH  21  24
ENDBRANCH   1  21
TORSDOF 4
ENDMDL
MODEL 2
REMARK VINA RESULT:      -7.6      0.738      1.113
REMARK  Name = 
REMARK  5 active torsions:
REMARK  status: ('A' for Active; 'I' for Inactive)
REMARK    1  A    between atoms: C_1  and  S_2
REMARK    2  A    between atoms: S_2  and  C_3
REMARK    3  A    between atoms: C_3  and  N_5
REMARK    4  A    between atoms: N_16  and  C_17
REMARK    5  A    between atoms: C_20  and  C_21
REMARK                            x       y       z     vdW  Elec       q    Type
REMARK                         _______ _______ _______ _____ _____    ______ ____
ROOT
ATOM      1  N   UNL     1       3.523   4.602  19.372  0.00  0.00    +0.000 N 
ATOM      2  C   UNL     1       4.989   4.404  19.180  0.00  0.00    +0.000 C 
ATOM      3  C   UNL     1       5.504   4.831  17.781  0.00  0.00    +0.000 C 
ATOM      4  C   UNL     1       7.039   4.693  17.632  0.00  0.00    +0.000 C 
ATOM      5  C   UNL     1       7.512   5.056  16.211  0.00  0.00    +0.000 C 
ATOM      6  C   UNL     1       6.761   4.301  15.112  0.00  0.00    +0.000 C 
ATOM      7  C   UNL     1       5.247   4.288  15.298  0.00  0.00    +0.000 C 
ATOM      8  C   UNL     1       4.868   3.892  16.718  0.00  0.00    +0.000 C 
ATOM      9  C   UNL     1       5.178   6.321  17.630  0.00  0.00    +0.000 C 
ATOM     10  S   UNL     1       3.429   6.560  17.585  0.00  0.00    +0.000 S 
ATOM     11  C   UNL     1       3.011   5.891  19.150  0.00  0.00    +0.000 C 
ATOM     12  N   UNL     1       2.261   6.493  20.027  0.00  0.00    +0.000 NA
ENDROOT
BRANCH  12  13
ATOM     13  C   UNL     1       1.848   7.841  19.845  0.00  0.00    +0.000 A 
ATOM     14  C   UNL     1       1.260   8.616  20.855  0.00  0.00    +0.000 A 
ATOM     15  C   UNL     1       0.595   9.810  20.566  0.00  0.00    +0.000 A 
ATOM     16  C   UNL     1       0.661  10.344  19.282  0.00  0.00    +0.000 A 
ATOM     17  C   UNL     1       1.398   9.679  18.299  0.00  0.00    +0.000 A 
ATOM     18  C   UNL     1       1.971   8.430  18.580  0.00  0.00    +0.000 A 
BRANCH  16  19
ATOM     19  C   UNL     1      -0.028  11.564  18.973  0.00  0.00    +0.000 C 
ATOM     20  N   UNL     1      -0.591  12.539  18.703  0.00  0.00    +0.000 NA
ENDBRANCH  16  19
ENDBRANCH  12  13
BRANCH   1  21
ATOM     21  C   UNL     1       2.719   3.593  19.927  0.00  0.00    +0.000 C 
ATOM     22  S   UNL     1       2.303   3.454  21.556  0.00  0.00    +0.000 S 
BRANCH  21  24
ATOM     23  C   UNL     1       0.604   2.263  18.732  0.00  0.00    +0.000 C 
ATOM     24  S   UNL     1       2.404   2.235  18.822  0.00  0.00    +0.000 S 
ENDBRANCH  21  24
ENDBRANCH   1  21
TORSDOF 4
ENDMDL
MODEL 3
REMARK VINA RESULT:      -7.3      0.816      1.521
REMARK  Name = 
REMARK  5 active torsions:
REMARK  status: ('A' for Active; 'I' for Inactive)
REMARK    1  A    between atoms: C_1  and  S_2
REMARK    2  A    between atoms: S_2  and  C_3
REMARK    3  A    between atoms: C_3  and  N_5
REMARK    4  A    between atoms: N_16  and  C_17
REMARK    5  A    between atoms: C_20  and  C_21
REMARK                            x       y       z     vdW  Elec       q    Type
REMARK                         _______ _______ _______ _____ _____    ______ ____
ROOT
ATOM      1  N   UNL     1       3.493   4.631  19.429  0.00  0.00    +0.000 N 
ATOM      2  C   UNL     1       4.967   4.481  19.254  0.00  0.00    +0.000 C 
ATOM      3  C   UNL     1       5.479   4.889  17.847  0.00  0.00    +0.000 C 
ATOM      4  C   UNL     1       7.019   4.804  17.715  0.00  0.00    +0.000 C 
ATOM      5  C   UNL     1       7.491   5.145  16.288  0.00  0.00    +0.000 C 
ATOM      6  C   UNL     1       6.778   4.332  15.205  0.00  0.00    +0.000 C 
ATOM      7  C   UNL     1       5.264   4.268  15.379  0.00  0.00    +0.000 C 
ATOM      8  C   UNL     1       4.887   3.897  16.807  0.00  0.00    +0.000 C 
ATOM      9  C   UNL     1       5.099   6.361  17.652  0.00  0.00    +0.000 C 
ATOM     10  S   UNL     1       3.343   6.533  17.587  0.00  0.00    +0.000 S 
ATOM     11  C   UNL     1       2.937   5.893  19.166  0.00  0.00    +0.000 C 
ATOM     12  N   UNL     1       2.156   6.491  20.021  0.00  0.00    +0.000 NA
ENDROOT
BRANCH  12  13
ATOM     13  C   UNL     1       1.695   7.817  19.797  0.00  0.00    +0.000 A 
ATOM     14  C   UNL     1       1.805   8.478  18.565  0.00  0.00    +0.000 A 
ATOM     15  C   UNL     1       1.629   9.861  18.460  0.00  0.00    +0.000 A 
ATOM     16  C   UNL     1       1.163  10.583  19.555  0.00  0.00    +0.000 A 
ATOM     17  C   UNL     1       0.872   9.912  20.746  0.00  0.00    +0.000 A 
ATOM     18  C   UNL     1       1.153   8.543  20.865  0.00  0.00    +0.000 A 
BRANCH  16  19
ATOM     19  C   UNL     1       0.991  12.004  19.461  0.00  0.00    +0.000 C 
ATOM     20  N   UNL     1       0.872  13.152  19.374  0.00  0.00    +0.000 NA
ENDBRANCH  16  19
ENDBRANCH  12  13
BRANCH   1  21
ATOM     21  C   UNL     1       2.723   3.608  20.006  0.00  0.00    +0.000 C 
ATOM     22  S   UNL     1       2.317   3.486  21.639  0.00  0.00    +0.000 S 
BRANCH  21  24
ATOM     23  C   UNL     1       0.653   2.280  18.732  0.00  0.00    +0.000 C 
ATOM     24  S   UNL     1       2.444   2.221  18.927  0.00  0.00    +0.000 S 
ENDBRANCH  21  24
ENDBRANCH   1  21
TORSDOF 4
ENDMDL
MODEL 4
REMARK VINA RESULT:      -7.2      0.425      1.067
REMARK  Name = 
REMARK  5 active torsions:
REMARK  status: ('A' for Active; 'I' for Inactive)
REMARK    1  A    between atoms: C_1  and  S_2
REMARK    2  A    between atoms: S_2  and  C_3
REMARK    3  A    between atoms: C_3  and  N_5
REMARK    4  A    between atoms: N_16  and  C_17
REMARK    5  A    between atoms: C_20  and  C_21
REMARK                            x       y       z     vdW  Elec       q    Type
REMARK                         _______ _______ _______ _____ _____    ______ ____
ROOT
ATOM      1  N   UNL     1       3.514   4.304  19.077  0.00  0.00    +0.000 N 
ATOM      2  C   UNL     1       4.991   4.181  18.904  0.00  0.00    +0.000 C 
ATOM      3  C   UNL     1       5.524   4.803  17.586  0.00  0.00    +0.000 C 
ATOM      4  C   UNL     1       7.066   4.736  17.466  0.00  0.00    +0.000 C 
ATOM      5  C   UNL     1       7.560   5.296  16.118  0.00  0.00    +0.000 C 
ATOM      6  C   UNL     1       6.864   4.664  14.910  0.00  0.00    +0.000 C 
ATOM      7  C   UNL     1       5.349   4.577  15.048  0.00  0.00    +0.000 C 
ATOM      8  C   UNL     1       4.949   3.988  16.394  0.00  0.00    +0.000 C 
ATOM      9  C   UNL     1       5.147   6.288  17.618  0.00  0.00    +0.000 C 
ATOM     10  S   UNL     1       3.392   6.472  17.554  0.00  0.00    +0.000 S 
ATOM     11  C   UNL     1       2.961   5.592  19.007  0.00  0.00    +0.000 C 
ATOM     12  N   UNL     1       2.167   6.051  19.932  0.00  0.00    +0.000 NA
ENDROOT
BRANCH  12  13
ATOM     13  C   UNL     1       1.709   7.397  19.912  0.00  0.00    +0.000 A 
ATOM     14  C   UNL     1       1.742   8.210  18.769  0.00  0.00    +0.000 A 
ATOM     15  C   UNL     1       1.578   9.595  18.854  0.00  0.00    +0.000 A 
ATOM     16  C   UNL     1       1.198  10.173  20.062  0.00  0.00    +0.000 A 
ATOM     17  C   UNL     1       0.980   9.356  21.175  0.00  0.00    +0.000 A 
ATOM     18  C   UNL     1       1.251   7.983  21.099  0.00  0.00    +0.000 A 
BRANCH  16  19
ATOM     19  C   UNL     1       1.037  11.595  20.162  0.00  0.00    +0.000 C 
ATOM     20  N   UNL     1       0.898  12.743  20.221  0.00  0.00    +0.000 NA
ENDBRANCH  16  19
ENDBRANCH  12  13
BRANCH   1  21
ATOM     21  C   UNL     1       2.735   3.205  19.475  0.00  0.00    +0.000 C 
ATOM     22  S   UNL     1       1.435   2.560  18.614  0.00  0.00    +0.000 S 
BRANCH  21  24
ATOM     23  C   UNL     1       1.327   2.673  21.800  0.00  0.00    +0.000 C 
ATOM     24  S   UNL     1       3.011   2.698  21.158  0.00  0.00    +0.000 S 
ENDBRANCH  21  24
ENDBRANCH   1  21
TORSDOF 4
ENDMDL
MODEL 5
REMARK VINA RESULT:      -6.9      0.650      1.426
REMARK  Name = 
REMARK  5 active torsions:
REMARK  status: ('A' for Active; 'I' for Inactive)
REMARK    1  A    between atoms: C_1  and  S_2
REMARK    2  A    between atoms: S_2  and  C_3
REMARK    3  A    between atoms: C_3  and  N_5
REMARK    4  A    between atoms: N_16  and  C_17
REMARK    5  A    between atoms: C_20  and  C_21
REMARK                            x       y       z     vdW  Elec       q    Type
REMARK                         _______ _______ _______ _____ _____    ______ ____
ROOT
ATOM      1  N   UNL     1       4.086   4.314  19.096  0.00  0.00    +0.000 N 
ATOM      2  C   UNL     1       5.528   4.350  18.714  0.00  0.00    +0.000 C 
ATOM      3  C   UNL     1       5.784   4.854  17.269  0.00  0.00    +0.000 C 
ATOM      4  C   UNL     1       7.289   4.960  16.923  0.00  0.00    +0.000 C 
ATOM      5  C   UNL     1       7.511   5.395  15.461  0.00  0.00    +0.000 C 
ATOM      6  C   UNL     1       6.751   4.530  14.452  0.00  0.00    +0.000 C 
ATOM      7  C   UNL     1       5.296   4.278  14.829  0.00  0.00    +0.000 C 
ATOM      8  C   UNL     1       5.171   3.826  16.278  0.00  0.00    +0.000 C 
ATOM      9  C   UNL     1       5.211   6.274  17.193  0.00  0.00    +0.000 C 
ATOM     10  S   UNL     1       3.455   6.233  17.377  0.00  0.00    +0.000 S 
ATOM     11  C   UNL     1       3.355   5.505  18.968  0.00  0.00    +0.000 C 
ATOM     12  N   UNL     1       2.639   5.981  19.947  0.00  0.00    +0.000 NA
ENDROOT
BRANCH  12  13
ATOM     13  C   UNL     1       1.999   7.247  19.846  0.00  0.00    +0.000 A 
ATOM     14  C   UNL     1       2.019   8.036  18.687  0.00  0.00    +0.000 A 
ATOM     15  C   UNL     1       1.654   9.385  18.715  0.00  0.00    +0.000 A 
ATOM     16  C   UNL     1       1.090   9.923  19.868  0.00  0.00    +0.000 A 
ATOM     17  C   UNL     1       0.891   9.104  20.982  0.00  0.00    +0.000 A 
ATOM     18  C   UNL     1       1.358   7.782  20.971  0.00  0.00    +0.000 A 
BRANCH  16  19
ATOM     19  C   UNL     1       0.722  11.309  19.910  0.00  0.00    +0.000 C 
ATOM     20  N   UNL     1       0.436  12.430  19.965  0.00  0.00    +0.000 NA
ENDBRANCH  16  19
ENDBRANCH  12  13
BRANCH   1  21
ATOM     21  C   UNL     1       3.530   3.190  19.728  0.00  0.00    +0.000 C 
ATOM     22  S   UNL     1       4.381   2.058  20.646  0.00  0.00    +0.000 S 
BRANCH  21  24
ATOM     23  C   UNL     1       0.989   2.958  20.807  0.00  0.00    +0.000 C 
ATOM     24  S   UNL     1       1.858   2.839  19.232  0.00  0.00    +0.000 S 
ENDBRANCH  21  24
ENDBRANCH   1  21
TORSDOF 4
ENDMDL
MODEL 6
REMARK VINA RESULT:      -6.8      2.274      4.568
REMARK  Name = 
REMARK  5 active torsions:
REMARK  status: ('A' for Active; 'I' for Inactive)
REMARK    1  A    between atoms: C_1  and  S_2
REMARK    2  A    between atoms: S_2  and  C_3
REMARK    3  A    between atoms: C_3  and  N_5
REMARK    4  A    between atoms: N_16  and  C_17
REMARK    5  A    between atoms: C_20  and  C_21
REMARK                            x       y       z     vdW  Elec       q    Type
REMARK                         _______ _______ _______ _____ _____    ______ ____
ROOT
ATOM      1  N   UNL     1       3.582   6.085  17.784  0.00  0.00    +0.000 N 
ATOM      2  C   UNL     1       2.873   4.773  17.756  0.00  0.00    +0.000 C 
ATOM      3  C   UNL     1       2.192   4.397  19.099  0.00  0.00    +0.000 C 
ATOM      4  C   UNL     1       1.394   3.073  19.025  0.00  0.00    +0.000 C 
ATOM      5  C   UNL     1       0.790   2.691  20.390  0.00  0.00    +0.000 C 
ATOM      6  C   UNL     1       1.818   2.676  21.523  0.00  0.00    +0.000 C 
ATOM      7  C   UNL     1       2.726   3.900  21.547  0.00  0.00    +0.000 C 
ATOM      8  C   UNL     1       3.302   4.189  20.167  0.00  0.00    +0.000 C 
ATOM      9  C   UNL     1       1.179   5.507  19.403  0.00  0.00    +0.000 C 
ATOM     10  S   UNL     1       2.018   7.031  19.705  0.00  0.00    +0.000 S 
ATOM     11  C   UNL     1       2.840   7.213  18.168  0.00  0.00    +0.000 C 
ATOM     12  N   UNL     1       2.816   8.298  17.449  0.00  0.00    +0.000 NA
ENDROOT
BRANCH  12  13
ATOM     13  C   UNL     1       1.968   9.389  17.785  0.00  0.00    +0.000 A 
ATOM     14  C   UNL     1       2.444  10.653  18.165  0.00  0.00    +0.000 A 
ATOM     15  C   UNL     1       1.611  11.593  18.777  0.00  0.00    +0.000 A 
ATOM     16  C   UNL     1       0.242  11.354  18.856  0.00  0.00    +0.000 A 
ATOM     17  C   UNL     1      -0.282  10.176  18.317  0.00  0.00    +0.000 A 
ATOM     18  C   UNL     1       0.581   9.198  17.801  0.00  0.00    +0.000 A 
BRANCH  16  19
ATOM     19  C   UNL     1      -0.621  12.308  19.492  0.00  0.00    +0.000 C 
ATOM     20  N   UNL     1      -1.298  13.088  20.015  0.00  0.00    +0.000 NA
ENDBRANCH  16  19
ENDBRANCH  12  13
BRANCH   1  21
ATOM     21  C   UNL     1       4.884   6.218  17.271  0.00  0.00    +0.000 C 
ATOM     22  S   UNL     1       5.282   6.425  15.645  0.00  0.00    +0.000 S 
BRANCH  21  24
ATOM     23  C   UNL     1       7.245   4.782  17.457  0.00  0.00    +0.000 C 
ATOM     24  S   UNL     1       6.162   5.830  18.446  0.00  0.00    +0.000 S 
ENDBRANCH  21  24
ENDBRANCH   1  21
TORSDOF 4
ENDMDL
MODEL 7
REMARK VINA RESULT:      -6.6      4.402      9.380
REMARK  Name = 
REMARK  5 active torsions:
REMARK  status: ('A' for Active; 'I' for Inactive)
REMARK    1  A    between atoms: C_1  and  S_2
REMARK    2  A    between atoms: S_2  and  C_3
REMARK    3  A    between atoms: C_3  and  N_5
REMARK    4  A    between atoms: N_16  and  C_17
REMARK    5  A    between atoms: C_20  and  C_21
REMARK                            x       y       z     vdW  Elec       q    Type
REMARK                         _______ _______ _______ _____ _____    ______ ____
ROOT
ATOM      1  N   UNL     1      -0.777  13.100  20.198  0.00  0.00    +0.000 N 
ATOM      2  C   UNL     1      -0.670  14.340  19.376  0.00  0.00    +0.000 C 
ATOM      3  C   UNL     1       0.714  15.036  19.463  0.00  0.00    +0.000 C 
ATOM      4  C   UNL     1       0.830  16.273  18.541  0.00  0.00    +0.000 C 
ATOM      5  C   UNL     1       2.188  16.984  18.703  0.00  0.00    +0.000 C 
ATOM      6  C   UNL     1       2.524  17.321  20.157  0.00  0.00    +0.000 C 
ATOM      7  C   UNL     1       2.287  16.169  21.128  0.00  0.00    +0.000 C 
ATOM      8  C   UNL     1       0.913  15.545  20.919  0.00  0.00    +0.000 C 
ATOM      9  C   UNL     1       1.748  14.018  18.969  0.00  0.00    +0.000 C 
ATOM     10  S   UNL     1       1.834  12.648  20.081  0.00  0.00    +0.000 S 
ATOM     11  C   UNL     1       0.176  12.093  19.974  0.00  0.00    +0.000 C 
ATOM     12  N   UNL     1      -0.170  10.856  19.753  0.00  0.00    +0.000 NA
ENDROOT
BRANCH  12  13
ATOM     13  C   UNL     1       0.795   9.870  19.410  0.00  0.00    +0.000 A 
ATOM     14  C   UNL     1       1.392   9.777  18.144  0.00  0.00    +0.000 A 
ATOM     15  C   UNL     1       2.091   8.633  17.749  0.00  0.00    +0.000 A 
ATOM     16  C   UNL     1       2.359   7.632  18.678  0.00  0.00    +0.000 A 
ATOM     17  C   UNL     1       1.929   7.788  19.998  0.00  0.00    +0.000 A 
ATOM     18  C   UNL     1       1.140   8.893  20.351  0.00  0.00    +0.000 A 
BRANCH  16  19
ATOM     19  C   UNL     1       3.065   6.449  18.279  0.00  0.00    +0.000 C 
ATOM     20  N   UNL     1       3.656   5.506  17.958  0.00  0.00    +0.000 NA
ENDBRANCH  16  19
ENDBRANCH  12  13
BRANCH   1  21
ATOM     21  C   UNL     1      -1.887  12.871  21.027  0.00  0.00    +0.000 C 
ATOM     22  S   UNL     1      -3.504  12.974  20.554  0.00  0.00    +0.000 S 
BRANCH  21  24
ATOM     23  C   UNL     1      -3.050  12.206  23.452  0.00  0.00    +0.000 C 
ATOM     24  S   UNL     1      -1.484  12.765  22.757  0.00  0.00    +0.000 S 
ENDBRANCH  21  24
ENDBRANCH   1  21
TORSDOF 4
ENDMDL
MODEL 8
REMARK VINA RESULT:      -6.5      7.853      9.759
REMARK  Name = 
REMARK  5 active torsions:
REMARK  status: ('A' for Active; 'I' for Inactive)
REMARK    1  A    between atoms: C_1  and  S_2
REMARK    2  A    between atoms: S_2  and  C_3
REMARK    3  A    between atoms: C_3  and  N_5
REMARK    4  A    between atoms: N_16  and  C_17
REMARK    5  A    between atoms: C_20  and  C_21
REMARK                            x       y       z     vdW  Elec       q    Type
REMARK                         _______ _______ _______ _____ _____    ______ ____
ROOT
ATOM      1  N   UNL     1      -1.215  13.185  21.054  0.00  0.00    +0.000 N 
ATOM      2  C   UNL     1      -0.943  14.651  20.991  0.00  0.00    +0.000 C 
ATOM      3  C   UNL     1       0.202  15.038  20.019  0.00  0.00    +0.000 C 
ATOM      4  C   UNL     1       0.413  16.567  19.908  0.00  0.00    +0.000 C 
ATOM      5  C   UNL     1       1.602  16.917  18.992  0.00  0.00    +0.000 C 
ATOM      6  C   UNL     1       2.892  16.189  19.372  0.00  0.00    +0.000 C 
ATOM      7  C   UNL     1       2.705  14.698  19.633  0.00  0.00    +0.000 C 
ATOM      8  C   UNL     1       1.530  14.445  20.568  0.00  0.00    +0.000 C 
ATOM      9  C   UNL     1      -0.219  14.548  18.629  0.00  0.00    +0.000 C 
ATOM     10  S   UNL     1      -0.290  12.784  18.601  0.00  0.00    +0.000 S 
ATOM     11  C   UNL     1      -1.497  12.529  19.845  0.00  0.00    +0.000 C 
ATOM     12  N   UNL     1      -2.546  11.770  19.704  0.00  0.00    +0.000 NA
ENDROOT
BRANCH  12  13
ATOM     13  C   UNL     1      -2.886  11.207  18.443  0.00  0.00    +0.000 A 
ATOM     14  C   UNL     1      -2.125  10.215  17.807  0.00  0.00    +0.000 A 
ATOM     15  C   UNL     1      -2.309   9.910  16.455  0.00  0.00    +0.000 A 
ATOM     16  C   UNL     1      -3.380  10.465  15.761  0.00  0.00    +0.000 A 
ATOM     17  C   UNL     1      -4.262  11.319  16.428  0.00  0.00    +0.000 A 
ATOM     18  C   UNL     1      -4.003  11.695  17.754  0.00  0.00    +0.000 A 
BRANCH  16  19
ATOM     19  C   UNL     1      -3.570  10.166  14.371  0.00  0.00    +0.000 C 
ATOM     20  N   UNL     1      -3.734   9.945  13.246  0.00  0.00    +0.000 NA
ENDBRANCH  16  19
ENDBRANCH  12  13
BRANCH   1  21
ATOM     21  C   UNL     1      -1.364  12.526  22.285  0.00  0.00    +0.000 C 
ATOM     22  S   UNL     1      -0.753  10.999  22.662  0.00  0.00    +0.000 S 
BRANCH  21  24
ATOM     23  C   UNL     1      -4.101  12.815  22.596  0.00  0.00    +0.000 C 
ATOM     24  S   UNL     1      -2.546  13.291  23.373  0.00  0.00    +0.000 S 
ENDBRANCH  21  24
ENDBRANCH   1  21
TORSDOF 4
ENDMDL
MODEL 9
REMARK VINA RESULT:      -6.5      8.884     10.778
REMARK  Name = 
REMARK  5 active torsions:
REMARK  status: ('A' for Active; 'I' for Inactive)
REMARK    1  A    between atoms: C_1  and  S_2
REMARK    2  A    between atoms: S_2  and  C_3
REMARK    3  A    between atoms: C_3  and  N_5
REMARK    4  A    between atoms: N_16  and  C_17
REMARK    5  A    between atoms: C_20  and  C_21
REMARK                            x       y       z     vdW  Elec       q    Type
REMARK                         _______ _______ _______ _____ _____    ______ ____
ROOT
ATOM      1  N   UNL     1       8.480  14.675  21.251  0.00  0.00    +0.000 N 
ATOM      2  C   UNL     1       8.424  14.155  19.854  0.00  0.00    +0.000 C 
ATOM      3  C   UNL     1       9.406  12.986  19.577  0.00  0.00    +0.000 C 
ATOM      4  C   UNL     1       9.273  12.409  18.147  0.00  0.00    +0.000 C 
ATOM      5  C   UNL     1      10.308  11.299  17.879  0.00  0.00    +0.000 C 
ATOM      6  C   UNL     1      11.744  11.722  18.194  0.00  0.00    +0.000 C 
ATOM      7  C   UNL     1      11.898  12.428  19.536  0.00  0.00    +0.000 C 
ATOM      8  C   UNL     1      10.858  13.526  19.706  0.00  0.00    +0.000 C 
ATOM      9  C   UNL     1       9.029  11.859  20.546  0.00  0.00    +0.000 C 
ATOM     10  S   UNL     1       9.341  12.357  22.211  0.00  0.00    +0.000 S 
ATOM     11  C   UNL     1       8.285  13.753  22.291  0.00  0.00    +0.000 C 
ATOM     12  N   UNL     1       7.419  13.963  23.242  0.00  0.00    +0.000 NA
ENDROOT
BRANCH  12  13
ATOM     13  C   UNL     1       7.144  12.970  24.222  0.00  0.00    +0.000 A 
ATOM     14  C   UNL     1       6.241  11.915  24.025  0.00  0.00    +0.000 A 
ATOM     15  C   UNL     1       5.768  11.150  25.094  0.00  0.00    +0.000 A 
ATOM     16  C   UNL     1       6.328  11.309  26.359  0.00  0.00    +0.000 A 
ATOM     17  C   UNL     1       7.362  12.232  26.540  0.00  0.00    +0.000 A 
ATOM     18  C   UNL     1       7.751  13.063  25.481  0.00  0.00    +0.000 A 
BRANCH  16  19
ATOM     19  C   UNL     1       5.842  10.536  27.465  0.00  0.00    +0.000 C 
ATOM     20  N   UNL     1       5.438   9.898  28.343  0.00  0.00    +0.000 NA
ENDBRANCH  16  19
ENDBRANCH  12  13
BRANCH   1  21
ATOM     21  C   UNL     1       8.543  16.054  21.511  0.00  0.00    +0.000 C 
ATOM     22  S   UNL     1       9.677  16.817  22.500  0.00  0.00    +0.000 S 
BRANCH  21  24
ATOM     23  C   UNL     1       7.793  17.899  19.586  0.00  0.00    +0.000 C 
ATOM     24  S   UNL     1       7.111  16.956  20.962  0.00  0.00    +0.000 S 
ENDBRANCH  21  24
ENDBRANCH   1  21
TORSDOF 4
ENDMDL
