MODEL 1
REMARK VINA RESULT:      -7.1      0.000      0.000
REMARK  Name = 
REMARK  4 active torsions:
REMARK  status: ('A' for Active; 'I' for Inactive)
REMARK    1  A    between atoms: C_1  and  C_2
REMARK    2  A    between atoms: C_2  and  N_3
REMARK    3  A    between atoms: C_2  and  C_15
REMARK    4  A    between atoms: N_6  and  C_7
REMARK                            x       y       z     vdW  Elec       q    Type
REMARK                         _______ _______ _______ _____ _____    ______ ____
ROOT
ATOM      1  N   UNL     1       5.134   5.231  16.405  0.00  0.00    +0.000 N 
ATOM      2  C   UNL     1       4.641   6.224  17.221  0.00  0.00    +0.000 C 
ATOM      3  O   UNL     1       5.298   7.184  17.600  0.00  0.00    +0.000 OA
ATOM      4  N   UNL     1       3.350   5.942  17.624  0.00  0.00    +0.000 N 
ATOM      5  H   UNL     1       4.459   4.852  15.757  0.00  0.00    +0.000 HD
ATOM      6  H   UNL     1       3.208   4.955  17.805  0.00  0.00    +0.000 HD
ENDROOT
BRANCH   4   7
ATOM      7  C   UNL     1       2.648   6.822  18.485  0.00  0.00    +0.000 A 
ATOM      8  C   UNL     1       2.257   8.089  18.037  0.00  0.00    +0.000 A 
ATOM      9  C   UNL     1       1.592   8.958  18.902  0.00  0.00    +0.000 A 
ATOM     10 CL   UNL     1       1.086  10.504  18.341  0.00  0.00    +0.000 Cl
ATOM     11  C   UNL     1       1.328   8.582  20.219  0.00  0.00    +0.000 A 
ATOM     12  C   UNL     1       1.702   7.313  20.667  0.00  0.00    +0.000 A 
ATOM     13  C   UNL     1       2.339   6.427  19.796  0.00  0.00    +0.000 A 
ATOM     14 CL   UNL     1       2.799   4.871  20.391  0.00  0.00    +0.000 Cl
ENDBRANCH   4   7
BRANCH   1  16
ATOM     15  C   UNL     1       7.413   4.541  16.943  0.00  0.00    +0.000 C 
ATOM     16  C   UNL     1       6.516   5.280  15.948  0.00  0.00    +0.000 C 
BRANCH  16  17
ATOM     17  C   UNL     1       6.630   4.779  14.517  0.00  0.00    +0.000 A 
ATOM     18  C   UNL     1       7.603   5.341  13.672  0.00  0.00    +0.000 A 
ATOM     19  C   UNL     1       7.726   4.936  12.342  0.00  0.00    +0.000 A 
ATOM     20  C   UNL     1       6.873   3.962  11.833  0.00  0.00    +0.000 A 
ATOM     21  C   UNL     1       5.896   3.399  12.651  0.00  0.00    +0.000 A 
ATOM     22  C   UNL     1       5.770   3.809  13.981  0.00  0.00    +0.000 A 
ENDBRANCH  16  17
ENDBRANCH   1  16
TORSDOF 3
ENDMDL
MODEL 2
REMARK VINA RESULT:      -7.1      0.112      1.079
REMARK  Name = 
REMARK  4 active torsions:
REMARK  status: ('A' for Active; 'I' for Inactive)
REMARK    1  A    between atoms: C_1  and  C_2
REMARK    2  A    between atoms: C_2  and  N_3
REMARK    3  A    between atoms: C_2  and  C_15
REMARK    4  A    between atoms: N_6  and  C_7
REMARK                            x       y       z     vdW  Elec       q    Type
REMARK                         _______ _______ _______ _____ _____    ______ ____
ROOT
ATOM      1  N   UNL     1       5.121   5.242  16.416  0.00  0.00    +0.000 N 
ATOM      2  C   UNL     1       4.622   6.238  17.224  0.00  0.00    +0.000 C 
ATOM      3  O   UNL     1       5.263   7.220  17.570  0.00  0.00    +0.000 OA
ATOM      4  N   UNL     1       3.347   5.933  17.661  0.00  0.00    +0.000 N 
ATOM      5  H   UNL     1       4.442   4.834  15.791  0.00  0.00    +0.000 HD
ATOM      6  H   UNL     1       3.234   4.946  17.863  0.00  0.00    +0.000 HD
ENDROOT
BRANCH   4   7
ATOM      7  C   UNL     1       2.642   6.812  18.521  0.00  0.00    +0.000 A 
ATOM      8  C   UNL     1       2.267   8.085  18.079  0.00  0.00    +0.000 A 
ATOM      9  C   UNL     1       1.599   8.953  18.943  0.00  0.00    +0.000 A 
ATOM     10 CL   UNL     1       1.112  10.507  18.388  0.00  0.00    +0.000 Cl
ATOM     11  C   UNL     1       1.318   8.569  20.253  0.00  0.00    +0.000 A 
ATOM     12  C   UNL     1       1.677   7.294  20.696  0.00  0.00    +0.000 A 
ATOM     13  C   UNL     1       2.316   6.409  19.825  0.00  0.00    +0.000 A 
ATOM     14 CL   UNL     1       2.757   4.845  20.413  0.00  0.00    +0.000 Cl
ENDBRANCH   4   7
BRANCH   1  16
ATOM     15  C   UNL     1       7.422   4.581  16.894  0.00  0.00    +0.000 C 
ATOM     16  C   UNL     1       6.492   5.316  15.927  0.00  0.00    +0.000 C 
BRANCH  16  17
ATOM     17  C   UNL     1       6.579   4.829  14.489  0.00  0.00    +0.000 A 
ATOM     18  C   UNL     1       5.616   3.919  14.018  0.00  0.00    +0.000 A 
ATOM     19  C   UNL     1       5.671   3.420  12.715  0.00  0.00    +0.000 A 
ATOM     20  C   UNL     1       6.695   3.821  11.863  0.00  0.00    +0.000 A 
ATOM     21  C   UNL     1       7.663   4.715  12.313  0.00  0.00    +0.000 A 
ATOM     22  C   UNL     1       7.610   5.211  13.619  0.00  0.00    +0.000 A 
ENDBRANCH  16  17
ENDBRANCH   1  16
TORSDOF 3
ENDMDL
MODEL 3
REMARK VINA RESULT:      -7.1      4.356      6.166
REMARK  Name = 
REMARK  4 active torsions:
REMARK  status: ('A' for Active; 'I' for Inactive)
REMARK    1  A    between atoms: C_1  and  C_2
REMARK    2  A    between atoms: C_2  and  N_3
REMARK    3  A    between atoms: C_2  and  C_15
REMARK    4  A    between atoms: N_6  and  C_7
REMARK                            x       y       z     vdW  Elec       q    Type
REMARK                         _______ _______ _______ _____ _____    ______ ____
ROOT
ATOM      1  N   UNL     1       2.111   7.723  19.046  0.00  0.00    +0.000 N 
ATOM      2  C   UNL     1       1.726   8.900  18.446  0.00  0.00    +0.000 C 
ATOM      3  O   UNL     1       1.756   9.092  17.240  0.00  0.00    +0.000 OA
ATOM      4  N   UNL     1       1.396   9.854  19.390  0.00  0.00    +0.000 N 
ATOM      5  H   UNL     1       1.575   7.478  19.866  0.00  0.00    +0.000 HD
ATOM      6  H   UNL     1       1.999   9.818  20.204  0.00  0.00    +0.000 HD
ENDROOT
BRANCH   4   7
ATOM      7  C   UNL     1       0.985  11.153  18.999  0.00  0.00    +0.000 A 
ATOM      8  C   UNL     1       1.922  12.184  18.869  0.00  0.00    +0.000 A 
ATOM      9  C   UNL     1       1.502  13.465  18.512  0.00  0.00    +0.000 A 
ATOM     10 CL   UNL     1       2.660  14.724  18.323  0.00  0.00    +0.000 Cl
ATOM     11  C   UNL     1       0.151  13.734  18.300  0.00  0.00    +0.000 A 
ATOM     12  C   UNL     1      -0.788  12.706  18.414  0.00  0.00    +0.000 A 
ATOM     13  C   UNL     1      -0.370  11.414  18.739  0.00  0.00    +0.000 A 
ATOM     14 CL   UNL     1      -1.562  10.171  18.883  0.00  0.00    +0.000 Cl
ENDBRANCH   4   7
BRANCH   1  16
ATOM     15  C   UNL     1       4.126   6.659  18.169  0.00  0.00    +0.000 C 
ATOM     16  C   UNL     1       2.598   6.615  18.235  0.00  0.00    +0.000 C 
BRANCH  16  17
ATOM     17  C   UNL     1       2.034   5.293  18.733  0.00  0.00    +0.000 A 
ATOM     18  C   UNL     1       1.811   5.122  20.111  0.00  0.00    +0.000 A 
ATOM     19  C   UNL     1       1.323   3.917  20.619  0.00  0.00    +0.000 A 
ATOM     20  C   UNL     1       1.055   2.859  19.756  0.00  0.00    +0.000 A 
ATOM     21  C   UNL     1       1.279   3.005  18.389  0.00  0.00    +0.000 A 
ATOM     22  C   UNL     1       1.771   4.211  17.881  0.00  0.00    +0.000 A 
ENDBRANCH  16  17
ENDBRANCH   1  16
TORSDOF 3
ENDMDL
MODEL 4
REMARK VINA RESULT:      -7.0      4.279      6.127
REMARK  Name = 
REMARK  4 active torsions:
REMARK  status: ('A' for Active; 'I' for Inactive)
REMARK    1  A    between atoms: C_1  and  C_2
REMARK    2  A    between atoms: C_2  and  N_3
REMARK    3  A    between atoms: C_2  and  C_15
REMARK    4  A    between atoms: N_6  and  C_7
REMARK                            x       y       z     vdW  Elec       q    Type
REMARK                         _______ _______ _______ _____ _____    ______ ____
ROOT
ATOM      1  N   UNL     1       2.170   7.647  19.033  0.00  0.00    +0.000 N 
ATOM      2  C   UNL     1       1.791   8.829  18.437  0.00  0.00    +0.000 C 
ATOM      3  O   UNL     1       1.788   9.012  17.228  0.00  0.00    +0.000 OA
ATOM      4  N   UNL     1       1.509   9.795  19.383  0.00  0.00    +0.000 N 
ATOM      5  H   UNL     1       1.654   7.419  19.870  0.00  0.00    +0.000 HD
ATOM      6  H   UNL     1       2.136   9.752  20.179  0.00  0.00    +0.000 HD
ENDROOT
BRANCH   4   7
ATOM      7  C   UNL     1       1.113  11.100  18.995  0.00  0.00    +0.000 A 
ATOM      8  C   UNL     1       2.069  12.104  18.807  0.00  0.00    +0.000 A 
ATOM      9  C   UNL     1       1.666  13.392  18.453  0.00  0.00    +0.000 A 
ATOM     10 CL   UNL     1       2.845  14.618  18.193  0.00  0.00    +0.000 Cl
ATOM     11  C   UNL     1       0.313  13.694  18.304  0.00  0.00    +0.000 A 
ATOM     12  C   UNL     1      -0.645  12.692  18.476  0.00  0.00    +0.000 A 
ATOM     13  C   UNL     1      -0.245  11.393  18.797  0.00  0.00    +0.000 A 
ATOM     14 CL   UNL     1      -1.461  10.184  19.016  0.00  0.00    +0.000 Cl
ENDBRANCH   4   7
BRANCH   1  16
ATOM     15  C   UNL     1       4.131   6.562  18.064  0.00  0.00    +0.000 C 
ATOM     16  C   UNL     1       2.609   6.524  18.215  0.00  0.00    +0.000 C 
BRANCH  16  17
ATOM     17  C   UNL     1       2.071   5.213  18.765  0.00  0.00    +0.000 A 
ATOM     18  C   UNL     1       1.855   4.140  17.882  0.00  0.00    +0.000 A 
ATOM     19  C   UNL     1       1.334   2.927  18.335  0.00  0.00    +0.000 A 
ATOM     20  C   UNL     1       1.017   2.767  19.679  0.00  0.00    +0.000 A 
ATOM     21  C   UNL     1       1.214   3.820  20.569  0.00  0.00    +0.000 A 
ATOM     22  C   UNL     1       1.732   5.037  20.115  0.00  0.00    +0.000 A 
ENDBRANCH  16  17
ENDBRANCH   1  16
TORSDOF 3
ENDMDL
MODEL 5
REMARK VINA RESULT:      -6.8      3.640      7.934
REMARK  Name = 
REMARK  4 active torsions:
REMARK  status: ('A' for Active; 'I' for Inactive)
REMARK    1  A    between atoms: C_1  and  C_2
REMARK    2  A    between atoms: C_2  and  N_3
REMARK    3  A    between atoms: C_2  and  C_15
REMARK    4  A    between atoms: N_6  and  C_7
REMARK                            x       y       z     vdW  Elec       q    Type
REMARK                         _______ _______ _______ _____ _____    ______ ____
ROOT
ATOM      1  N   UNL     1       1.272   9.221  17.905  0.00  0.00    +0.000 N 
ATOM      2  C   UNL     1       2.076   8.223  18.408  0.00  0.00    +0.000 C 
ATOM      3  O   UNL     1       2.211   7.993  19.600  0.00  0.00    +0.000 OA
ATOM      4  N   UNL     1       2.772   7.589  17.397  0.00  0.00    +0.000 N 
ATOM      5  H   UNL     1       0.823   8.993  17.029  0.00  0.00    +0.000 HD
ATOM      6  H   UNL     1       3.073   8.232  16.672  0.00  0.00    +0.000 HD
ENDROOT
BRANCH   4   7
ATOM      7  C   UNL     1       3.676   6.536  17.685  0.00  0.00    +0.000 A 
ATOM      8  C   UNL     1       5.046   6.792  17.809  0.00  0.00    +0.000 A 
ATOM      9  C   UNL     1       5.930   5.744  18.064  0.00  0.00    +0.000 A 
ATOM     10 CL   UNL     1       7.611   6.065  18.245  0.00  0.00    +0.000 Cl
ATOM     11  C   UNL     1       5.462   4.435  18.180  0.00  0.00    +0.000 A 
ATOM     12  C   UNL     1       4.093   4.176  18.072  0.00  0.00    +0.000 A 
ATOM     13  C   UNL     1       3.200   5.226  17.850  0.00  0.00    +0.000 A 
ATOM     14 CL   UNL     1       1.516   4.863  17.709  0.00  0.00    +0.000 Cl
ENDBRANCH   4   7
BRANCH   1  16
ATOM     15  C   UNL     1       1.337  11.347  19.103  0.00  0.00    +0.000 C 
ATOM     16  C   UNL     1       0.525  10.084  18.811  0.00  0.00    +0.000 C 
BRANCH  16  17
ATOM     17  C   UNL     1      -0.872  10.352  18.272  0.00  0.00    +0.000 A 
ATOM     18  C   UNL     1      -1.690  11.285  18.934  0.00  0.00    +0.000 A 
ATOM     19  C   UNL     1      -2.990  11.544  18.496  0.00  0.00    +0.000 A 
ATOM     20  C   UNL     1      -3.495  10.869  17.389  0.00  0.00    +0.000 A 
ATOM     21  C   UNL     1      -2.704   9.935  16.725  0.00  0.00    +0.000 A 
ATOM     22  C   UNL     1      -1.404   9.673  17.167  0.00  0.00    +0.000 A 
ENDBRANCH  16  17
ENDBRANCH   1  16
TORSDOF 3
ENDMDL
MODEL 6
REMARK VINA RESULT:      -6.7      3.624      7.946
REMARK  Name = 
REMARK  4 active torsions:
REMARK  status: ('A' for Active; 'I' for Inactive)
REMARK    1  A    between atoms: C_1  and  C_2
REMARK    2  A    between atoms: C_2  and  N_3
REMARK    3  A    between atoms: C_2  and  C_15
REMARK    4  A    between atoms: N_6  and  C_7
REMARK                            x       y       z     vdW  Elec       q    Type
REMARK                         _______ _______ _______ _____ _____    ______ ____
ROOT
ATOM      1  N   UNL     1       1.242   9.231  17.968  0.00  0.00    +0.000 N 
ATOM      2  C   UNL     1       2.050   8.224  18.447  0.00  0.00    +0.000 C 
ATOM      3  O   UNL     1       2.192   7.971  19.635  0.00  0.00    +0.000 OA
ATOM      4  N   UNL     1       2.740   7.610  17.420  0.00  0.00    +0.000 N 
ATOM      5  H   UNL     1       0.789   9.019  17.091  0.00  0.00    +0.000 HD
ATOM      6  H   UNL     1       3.037   8.266  16.706  0.00  0.00    +0.000 HD
ENDROOT
BRANCH   4   7
ATOM      7  C   UNL     1       3.647   6.552  17.684  0.00  0.00    +0.000 A 
ATOM      8  C   UNL     1       5.018   6.806  17.798  0.00  0.00    +0.000 A 
ATOM      9  C   UNL     1       5.904   5.754  18.028  0.00  0.00    +0.000 A 
ATOM     10 CL   UNL     1       7.586   6.072  18.198  0.00  0.00    +0.000 Cl
ATOM     11  C   UNL     1       5.437   4.444  18.128  0.00  0.00    +0.000 A 
ATOM     12  C   UNL     1       4.067   4.186  18.029  0.00  0.00    +0.000 A 
ATOM     13  C   UNL     1       3.172   5.240  17.832  0.00  0.00    +0.000 A 
ATOM     14 CL   UNL     1       1.487   4.879  17.701  0.00  0.00    +0.000 Cl
ENDBRANCH   4   7
BRANCH   1  16
ATOM     15  C   UNL     1       1.313  11.333  19.207  0.00  0.00    +0.000 C 
ATOM     16  C   UNL     1       0.500  10.075  18.895  0.00  0.00    +0.000 C 
BRANCH  16  17
ATOM     17  C   UNL     1      -0.900  10.354  18.369  0.00  0.00    +0.000 A 
ATOM     18  C   UNL     1      -1.340   9.683  17.214  0.00  0.00    +0.000 A 
ATOM     19  C   UNL     1      -2.605   9.928  16.676  0.00  0.00    +0.000 A 
ATOM     20  C   UNL     1      -3.449  10.853  17.282  0.00  0.00    +0.000 A 
ATOM     21  C   UNL     1      -3.028  11.534  18.421  0.00  0.00    +0.000 A 
ATOM     22  C   UNL     1      -1.759  11.292  18.958  0.00  0.00    +0.000 A 
ENDBRANCH  16  17
ENDBRANCH   1  16
TORSDOF 3
ENDMDL
MODEL 7
REMARK VINA RESULT:      -6.6      3.045      8.502
REMARK  Name = 
REMARK  4 active torsions:
REMARK  status: ('A' for Active; 'I' for Inactive)
REMARK    1  A    between atoms: C_1  and  C_2
REMARK    2  A    between atoms: C_2  and  N_3
REMARK    3  A    between atoms: C_2  and  C_15
REMARK    4  A    between atoms: N_6  and  C_7
REMARK                            x       y       z     vdW  Elec       q    Type
REMARK                         _______ _______ _______ _____ _____    ______ ____
ROOT
ATOM      1  N   UNL     1       1.535   8.510  19.615  0.00  0.00    +0.000 N 
ATOM      2  C   UNL     1       2.372   7.968  18.666  0.00  0.00    +0.000 C 
ATOM      3  O   UNL     1       2.643   8.513  17.605  0.00  0.00    +0.000 OA
ATOM      4  N   UNL     1       2.780   6.699  19.029  0.00  0.00    +0.000 N 
ATOM      5  H   UNL     1       1.797   8.302  20.568  0.00  0.00    +0.000 HD
ATOM      6  H   UNL     1       2.044   6.172  19.486  0.00  0.00    +0.000 HD
ENDROOT
BRANCH   4   7
ATOM      7  C   UNL     1       3.635   5.942  18.190  0.00  0.00    +0.000 A 
ATOM      8  C   UNL     1       4.954   6.353  17.967  0.00  0.00    +0.000 A 
ATOM      9  C   UNL     1       5.778   5.616  17.116  0.00  0.00    +0.000 A 
ATOM     10 CL   UNL     1       7.409   6.106  16.866  0.00  0.00    +0.000 Cl
ATOM     11  C   UNL     1       5.293   4.480  16.469  0.00  0.00    +0.000 A 
ATOM     12  C   UNL     1       3.982   4.056  16.699  0.00  0.00    +0.000 A 
ATOM     13  C   UNL     1       3.163   4.772  17.576  0.00  0.00    +0.000 A 
ATOM     14 CL   UNL     1       1.542   4.224  17.825  0.00  0.00    +0.000 Cl
ENDBRANCH   4   7
BRANCH   1  16
ATOM     15  C   UNL     1      -0.007   9.720  18.161  0.00  0.00    +0.000 C 
ATOM     16  C   UNL     1       0.909   9.805  19.383  0.00  0.00    +0.000 C 
BRANCH  16  17
ATOM     17  C   UNL     1       0.220  10.305  20.643  0.00  0.00    +0.000 A 
ATOM     18  C   UNL     1       0.058   9.425  21.727  0.00  0.00    +0.000 A 
ATOM     19  C   UNL     1      -0.594   9.828  22.893  0.00  0.00    +0.000 A 
ATOM     20  C   UNL     1      -1.100  11.120  22.993  0.00  0.00    +0.000 A 
ATOM     21  C   UNL     1      -0.958  12.005  21.927  0.00  0.00    +0.000 A 
ATOM     22  C   UNL     1      -0.308  11.599  20.757  0.00  0.00    +0.000 A 
ENDBRANCH  16  17
ENDBRANCH   1  16
TORSDOF 3
ENDMDL
MODEL 8
REMARK VINA RESULT:      -6.6      3.946      7.960
REMARK  Name = 
REMARK  4 active torsions:
REMARK  status: ('A' for Active; 'I' for Inactive)
REMARK    1  A    between atoms: C_1  and  C_2
REMARK    2  A    between atoms: C_2  and  N_3
REMARK    3  A    between atoms: C_2  and  C_15
REMARK    4  A    between atoms: N_6  and  C_7
REMARK                            x       y       z     vdW  Elec       q    Type
REMARK                         _______ _______ _______ _____ _____    ______ ____
ROOT
ATOM      1  N   UNL     1       1.469   9.249  18.032  0.00  0.00    +0.000 N 
ATOM      2  C   UNL     1       1.908   8.129  18.700  0.00  0.00    +0.000 C 
ATOM      3  O   UNL     1       1.855   7.995  19.914  0.00  0.00    +0.000 OA
ATOM      4  N   UNL     1       2.496   7.230  17.832  0.00  0.00    +0.000 N 
ATOM      5  H   UNL     1       1.064   9.061  17.126  0.00  0.00    +0.000 HD
ATOM      6  H   UNL     1       3.035   7.689  17.105  0.00  0.00    +0.000 HD
ENDROOT
BRANCH   4   7
ATOM      7  C   UNL     1       3.037   6.008  18.305  0.00  0.00    +0.000 A 
ATOM      8  C   UNL     1       2.208   5.050  18.900  0.00  0.00    +0.000 A 
ATOM      9  C   UNL     1       2.755   3.864  19.388  0.00  0.00    +0.000 A 
ATOM     10 CL   UNL     1       1.731   2.674  20.093  0.00  0.00    +0.000 Cl
ATOM     11  C   UNL     1       4.127   3.630  19.305  0.00  0.00    +0.000 A 
ATOM     12  C   UNL     1       4.958   4.576  18.699  0.00  0.00    +0.000 A 
ATOM     13  C   UNL     1       4.411   5.751  18.179  0.00  0.00    +0.000 A 
ATOM     14 CL   UNL     1       5.472   6.903  17.448  0.00  0.00    +0.000 Cl
ENDBRANCH   4   7
BRANCH   1  16
ATOM     15  C   UNL     1       1.779  11.610  18.570  0.00  0.00    +0.000 C 
ATOM     16  C   UNL     1       0.907  10.370  18.774  0.00  0.00    +0.000 C 
BRANCH  16  17
ATOM     17  C   UNL     1      -0.557  10.573  18.418  0.00  0.00    +0.000 A 
ATOM     18  C   UNL     1      -1.302  11.537  19.121  0.00  0.00    +0.000 A 
ATOM     19  C   UNL     1      -2.657  11.739  18.852  0.00  0.00    +0.000 A 
ATOM     20  C   UNL     1      -3.290  10.977  17.876  0.00  0.00    +0.000 A 
ATOM     21  C   UNL     1      -2.573  10.011  17.175  0.00  0.00    +0.000 A 
ATOM     22  C   UNL     1      -1.217   9.805  17.449  0.00  0.00    +0.000 A 
ENDBRANCH  16  17
ENDBRANCH   1  16
TORSDOF 3
ENDMDL
MODEL 9
REMARK VINA RESULT:      -6.6      3.979      7.952
REMARK  Name = 
REMARK  4 active torsions:
REMARK  status: ('A' for Active; 'I' for Inactive)
REMARK    1  A    between atoms: C_1  and  C_2
REMARK    2  A    between atoms: C_2  and  N_3
REMARK    3  A    between atoms: C_2  and  C_15
REMARK    4  A    between atoms: N_6  and  C_7
REMARK                            x       y       z     vdW  Elec       q    Type
REMARK                         _______ _______ _______ _____ _____    ______ ____
ROOT
ATOM      1  N   UNL     1       1.494   9.108  18.037  0.00  0.00    +0.000 N 
ATOM      2  C   UNL     1       1.975   8.023  18.733  0.00  0.00    +0.000 C 
ATOM      3  O   UNL     1       2.076   7.984  19.951  0.00  0.00    +0.000 OA
ATOM      4  N   UNL     1       2.410   7.033  17.873  0.00  0.00    +0.000 N 
ATOM      5  H   UNL     1       0.967   8.871  17.209  0.00  0.00    +0.000 HD
ATOM      6  H   UNL     1       2.865   7.409  17.049  0.00  0.00    +0.000 HD
ENDROOT
BRANCH   4   7
ATOM      7  C   UNL     1       2.961   5.826  18.372  0.00  0.00    +0.000 A 
ATOM      8  C   UNL     1       2.141   4.873  18.986  0.00  0.00    +0.000 A 
ATOM      9  C   UNL     1       2.699   3.702  19.499  0.00  0.00    +0.000 A 
ATOM     10 CL   UNL     1       1.685   2.517  20.227  0.00  0.00    +0.000 Cl
ATOM     11  C   UNL     1       4.073   3.480  19.423  0.00  0.00    +0.000 A 
ATOM     12  C   UNL     1       4.895   4.421  18.798  0.00  0.00    +0.000 A 
ATOM     13  C   UNL     1       4.338   5.579  18.253  0.00  0.00    +0.000 A 
ATOM     14 CL   UNL     1       5.389   6.726  17.500  0.00  0.00    +0.000 Cl
ENDBRANCH   4   7
BRANCH   1  16
ATOM     15  C   UNL     1       1.986  11.476  18.366  0.00  0.00    +0.000 C 
ATOM     16  C   UNL     1       1.077  10.307  18.750  0.00  0.00    +0.000 C 
BRANCH  16  17
ATOM     17  C   UNL     1      -0.405  10.575  18.536  0.00  0.00    +0.000 A 
ATOM     18  C   UNL     1      -1.100   9.830  17.567  0.00  0.00    +0.000 A 
ATOM     19  C   UNL     1      -2.453  10.060  17.313  0.00  0.00    +0.000 A 
ATOM     20  C   UNL     1      -3.133  11.044  18.022  0.00  0.00    +0.000 A 
ATOM     21  C   UNL     1      -2.461  11.800  18.980  0.00  0.00    +0.000 A 
ATOM     22  C   UNL     1      -1.105  11.572  19.231  0.00  0.00    +0.000 A 
ENDBRANCH  16  17
ENDBRANCH   1  16
TORSDOF 3
ENDMDL
