MODEL 1
REMARK VINA RESULT:      -6.2      0.000      0.000
REMARK  Name = 
REMARK  11 active torsions:
REMARK  status: ('A' for Active; 'I' for Inactive)
REMARK    1  A    between atoms: C_1  and  C_2
REMARK    2  A    between atoms: C_2  and  C_3
REMARK    3  A    between atoms: C_3  and  C_4
REMARK    4  A    between atoms: C_4  and  N_5
REMARK    5  A    between atoms: N_5  and  C_6
REMARK    6  A    between atoms: C_6  and  C_7
REMARK    7  A    between atoms: C_21  and  C_22
REMARK    8  A    between atoms: C_25  and  O_26
REMARK    9  A    between atoms: O_26  and  C_27
REMARK   10  A    between atoms: C_30  and  C_32
REMARK   11  A    between atoms: C_32  and  C_33
REMARK                            x       y       z     vdW  Elec       q    Type
REMARK                         _______ _______ _______ _____ _____    ______ ____
ROOT
ATOM      1  C   UNL     1      -3.457  13.684  20.417  0.00  0.00    +0.000 C 
ATOM      2  O   UNL     1      -2.611  14.553  20.631  0.00  0.00    +0.000 OA
ATOM      3  N   UNL     1      -4.840  13.916  20.506  0.00  0.00    +0.000 N 
ATOM      4  C   UNL     1      -5.716  13.061  19.772  0.00  0.00    +0.000 A 
ATOM      5  C   UNL     1      -5.489  12.834  18.412  0.00  0.00    +0.000 A 
ATOM      6  C   UNL     1      -6.029  11.711  17.786  0.00  0.00    +0.000 A 
ATOM      7  C   UNL     1      -6.854  10.851  18.504  0.00  0.00    +0.000 A 
ATOM      8  C   UNL     1      -7.196  11.144  19.826  0.00  0.00    +0.000 A 
ATOM      9  C   UNL     1      -6.633  12.261  20.456  0.00  0.00    +0.000 A 
ATOM     10  N   UNL     1      -6.863  12.562  21.812  0.00  0.00    +0.000 N 
ATOM     11  C   UNL     1      -7.615  11.862  22.725  0.00  0.00    +0.000 A 
ATOM     12  C   UNL     1      -7.578  12.527  23.924  0.00  0.00    +0.000 A 
ATOM     13  C   UNL     1      -6.785  13.680  23.742  0.00  0.00    +0.000 A 
ATOM     14  C   UNL     1      -6.317  13.666  22.437  0.00  0.00    +0.000 A 
ATOM     15  C   UNL     1      -5.431  14.631  21.671  0.00  0.00    +0.000 C 
ENDROOT
BRANCH  15  16
ATOM     16  C   UNL     1      -4.478  15.394  22.602  0.00  0.00    +0.000 A 
ATOM     17  C   UNL     1      -3.803  14.742  23.649  0.00  0.00    +0.000 A 
ATOM     18  C   UNL     1      -2.988  15.452  24.536  0.00  0.00    +0.000 A 
ATOM     19  C   UNL     1      -2.818  16.830  24.403  0.00  0.00    +0.000 A 
ATOM     20  C   UNL     1      -3.475  17.495  23.370  0.00  0.00    +0.000 A 
ATOM     21  C   UNL     1      -4.296  16.783  22.478  0.00  0.00    +0.000 A 
BRANCH  19  22
ATOM     22  O   UNL     1      -2.045  17.406  25.374  0.00  0.00    +0.000 OA
ATOM     23  C   UNL     1      -1.328  16.529  26.234  0.00  0.00    +0.000 C 
ENDBRANCH  19  22
ENDBRANCH  15  16
BRANCH   1  24
ATOM     24  C   UNL     1      -3.021  12.205  20.121  0.00  0.00    +0.000 C 
BRANCH  24  25
ATOM     25  N   UNL     1      -1.683  11.646  19.793  0.00  0.00    +0.000 N 
ATOM     26  C   UNL     1      -0.853  11.115  20.801  0.00  0.00    +0.000 C 
ATOM     27  O   UNL     1       0.189  10.515  20.516  0.00  0.00    +0.000 OA
BRANCH  26  28
ATOM     28  C   UNL     1      -1.254  11.302  22.277  0.00  0.00    +0.000 C 
ATOM     29  C   UNL     1      -0.650  10.234  23.178  0.00  0.00    +0.000 C 
ATOM     30 CL   UNL     1      -0.685  12.911  22.810  0.00  0.00    +0.000 Cl
ENDBRANCH  26  28
BRANCH  25  31
ATOM     31  C   UNL     1      -1.214  11.449  18.408  0.00  0.00    +0.000 C 
BRANCH  31  32
ATOM     32  C   UNL     1      -2.029  10.479  17.585  0.00  0.00    +0.000 C 
BRANCH  32  34
ATOM     33  C   UNL     1      -2.943   9.889  15.378  0.00  0.00    +0.000 C 
ATOM     34  C   UNL     1      -2.665  11.051  16.328  0.00  0.00    +0.000 C 
ENDBRANCH  32  34
ENDBRANCH  31  32
ENDBRANCH  25  31
ENDBRANCH  24  25
ENDBRANCH   1  24
TORSDOF 8
ENDMDL
MODEL 2
REMARK VINA RESULT:      -6.0      2.367      5.524
REMARK  Name = 
REMARK  11 active torsions:
REMARK  status: ('A' for Active; 'I' for Inactive)
REMARK    1  A    between atoms: C_1  and  C_2
REMARK    2  A    between atoms: C_2  and  C_3
REMARK    3  A    between atoms: C_3  and  C_4
REMARK    4  A    between atoms: C_4  and  N_5
REMARK    5  A    between atoms: N_5  and  C_6
REMARK    6  A    between atoms: C_6  and  C_7
REMARK    7  A    between atoms: C_21  and  C_22
REMARK    8  A    between atoms: C_25  and  O_26
REMARK    9  A    between atoms: O_26  and  C_27
REMARK   10  A    between atoms: C_30  and  C_32
REMARK   11  A    between atoms: C_32  and  C_33
REMARK                            x       y       z     vdW  Elec       q    Type
REMARK                         _______ _______ _______ _____ _____    ______ ____
ROOT
ATOM      1  C   UNL     1      -4.189  13.558  20.490  0.00  0.00    +0.000 C 
ATOM      2  O   UNL     1      -3.557  12.641  19.966  0.00  0.00    +0.000 OA
ATOM      3  N   UNL     1      -3.580  14.697  21.042  0.00  0.00    +0.000 N 
ATOM      4  C   UNL     1      -4.354  15.893  21.149  0.00  0.00    +0.000 A 
ATOM      5  C   UNL     1      -5.046  16.375  20.035  0.00  0.00    +0.000 A 
ATOM      6  C   UNL     1      -6.121  17.248  20.198  0.00  0.00    +0.000 A 
ATOM      7  C   UNL     1      -6.460  17.695  21.472  0.00  0.00    +0.000 A 
ATOM      8  C   UNL     1      -5.688  17.325  22.576  0.00  0.00    +0.000 A 
ATOM      9  C   UNL     1      -4.624  16.429  22.409  0.00  0.00    +0.000 A 
ATOM     10  N   UNL     1      -3.865  15.945  23.491  0.00  0.00    +0.000 N 
ATOM     11  C   UNL     1      -4.016  16.219  24.829  0.00  0.00    +0.000 A 
ATOM     12  C   UNL     1      -3.045  15.546  25.526  0.00  0.00    +0.000 A 
ATOM     13  C   UNL     1      -2.264  14.841  24.586  0.00  0.00    +0.000 A 
ATOM     14  C   UNL     1      -2.809  15.068  23.332  0.00  0.00    +0.000 A 
ATOM     15  C   UNL     1      -2.406  14.582  21.951  0.00  0.00    +0.000 C 
ENDROOT
BRANCH  15  16
ATOM     16  C   UNL     1      -1.676  13.234  22.011  0.00  0.00    +0.000 A 
ATOM     17  C   UNL     1      -2.065  12.232  22.918  0.00  0.00    +0.000 A 
ATOM     18  C   UNL     1      -1.355  11.031  23.016  0.00  0.00    +0.000 A 
ATOM     19  C   UNL     1      -0.242  10.791  22.211  0.00  0.00    +0.000 A 
ATOM     20  C   UNL     1       0.159  11.769  21.303  0.00  0.00    +0.000 A 
ATOM     21  C   UNL     1      -0.552  12.978  21.203  0.00  0.00    +0.000 A 
BRANCH  19  22
ATOM     22  O   UNL     1       0.393   9.604  22.454  0.00  0.00    +0.000 OA
ATOM     23  C   UNL     1       0.226   8.572  21.490  0.00  0.00    +0.000 C 
ENDBRANCH  19  22
ENDBRANCH  15  16
BRANCH   1  24
ATOM     24  C   UNL     1      -5.747  13.455  20.661  0.00  0.00    +0.000 C 
BRANCH  24  25
ATOM     25  N   UNL     1      -6.581  12.354  21.213  0.00  0.00    +0.000 N 
ATOM     26  C   UNL     1      -6.896  12.303  22.586  0.00  0.00    +0.000 C 
ATOM     27  O   UNL     1      -7.708  11.480  23.021  0.00  0.00    +0.000 OA
BRANCH  26  28
ATOM     28  C   UNL     1      -6.201  13.283  23.551  0.00  0.00    +0.000 C 
ATOM     29  C   UNL     1      -7.197  14.156  24.301  0.00  0.00    +0.000 C 
ATOM     30 CL   UNL     1      -5.252  12.329  24.728  0.00  0.00    +0.000 Cl
ENDBRANCH  26  28
BRANCH  25  31
ATOM     31  C   UNL     1      -7.267  11.364  20.361  0.00  0.00    +0.000 C 
BRANCH  31  32
ATOM     32  C   UNL     1      -6.507  10.944  19.125  0.00  0.00    +0.000 C 
BRANCH  32  34
ATOM     33  C   UNL     1      -5.548  12.086  17.168  0.00  0.00    +0.000 C 
ATOM     34  C   UNL     1      -6.856  11.693  17.848  0.00  0.00    +0.000 C 
ENDBRANCH  32  34
ENDBRANCH  31  32
ENDBRANCH  25  31
ENDBRANCH  24  25
ENDBRANCH   1  24
TORSDOF 8
ENDMDL
MODEL 3
REMARK VINA RESULT:      -5.9      3.866      6.261
REMARK  Name = 
REMARK  11 active torsions:
REMARK  status: ('A' for Active; 'I' for Inactive)
REMARK    1  A    between atoms: C_1  and  C_2
REMARK    2  A    between atoms: C_2  and  C_3
REMARK    3  A    between atoms: C_3  and  C_4
REMARK    4  A    between atoms: C_4  and  N_5
REMARK    5  A    between atoms: N_5  and  C_6
REMARK    6  A    between atoms: C_6  and  C_7
REMARK    7  A    between atoms: C_21  and  C_22
REMARK    8  A    between atoms: C_25  and  O_26
REMARK    9  A    between atoms: O_26  and  C_27
REMARK   10  A    between atoms: C_30  and  C_32
REMARK   11  A    between atoms: C_32  and  C_33
REMARK                            x       y       z     vdW  Elec       q    Type
REMARK                         _______ _______ _______ _____ _____    ______ ____
ROOT
ATOM      1  C   UNL     1       0.851  11.142  18.627  0.00  0.00    +0.000 C 
ATOM      2  O   UNL     1       2.056  11.358  18.500  0.00  0.00    +0.000 OA
ATOM      3  N   UNL     1      -0.139  12.094  18.328  0.00  0.00    +0.000 N 
ATOM      4  C   UNL     1      -1.451  11.627  18.010  0.00  0.00    +0.000 A 
ATOM      5  C   UNL     1      -1.620  10.635  17.041  0.00  0.00    +0.000 A 
ATOM      6  C   UNL     1      -2.784   9.868  17.015  0.00  0.00    +0.000 A 
ATOM      7  C   UNL     1      -3.810  10.140  17.915  0.00  0.00    +0.000 A 
ATOM      8  C   UNL     1      -3.704  11.219  18.797  0.00  0.00    +0.000 A 
ATOM      9  C   UNL     1      -2.524  11.970  18.834  0.00  0.00    +0.000 A 
ATOM     10  N   UNL     1      -2.317  13.011  19.760  0.00  0.00    +0.000 N 
ATOM     11  C   UNL     1      -3.161  13.451  20.750  0.00  0.00    +0.000 A 
ATOM     12  C   UNL     1      -2.563  14.499  21.402  0.00  0.00    +0.000 A 
ATOM     13  C   UNL     1      -1.312  14.718  20.787  0.00  0.00    +0.000 A 
ATOM     14  C   UNL     1      -1.157  13.762  19.796  0.00  0.00    +0.000 A 
ATOM     15  C   UNL     1      -0.032  13.498  18.812  0.00  0.00    +0.000 C 
ENDROOT
BRANCH  15  16
ATOM     16  C   UNL     1       1.323  13.967  19.356  0.00  0.00    +0.000 A 
ATOM     17  C   UNL     1       2.238  14.660  18.541  0.00  0.00    +0.000 A 
ATOM     18  C   UNL     1       3.499  15.026  19.022  0.00  0.00    +0.000 A 
ATOM     19  C   UNL     1       3.884  14.720  20.326  0.00  0.00    +0.000 A 
ATOM     20  C   UNL     1       2.993  14.038  21.151  0.00  0.00    +0.000 A 
ATOM     21  C   UNL     1       1.724  13.666  20.670  0.00  0.00    +0.000 A 
BRANCH  19  22
ATOM     22  O   UNL     1       5.165  15.083  20.643  0.00  0.00    +0.000 OA
ATOM     23  C   UNL     1       6.096  15.170  19.572  0.00  0.00    +0.000 C 
ENDBRANCH  19  22
ENDBRANCH  15  16
BRANCH   1  24
ATOM     24  C   UNL     1       0.345   9.787  19.239  0.00  0.00    +0.000 C 
BRANCH  24  25
ATOM     25  N   UNL     1       1.005   8.862  20.198  0.00  0.00    +0.000 N 
ATOM     26  C   UNL     1       1.848   7.828  19.742  0.00  0.00    +0.000 C 
ATOM     27  O   UNL     1       2.515   7.155  20.536  0.00  0.00    +0.000 OA
BRANCH  26  28
ATOM     28  C   UNL     1       1.922   7.533  18.232  0.00  0.00    +0.000 C 
ATOM     29  C   UNL     1       3.135   8.179  17.578  0.00  0.00    +0.000 C 
ATOM     30 CL   UNL     1       2.011   5.760  18.014  0.00  0.00    +0.000 Cl
ENDBRANCH  26  28
BRANCH  25  31
ATOM     31  C   UNL     1       0.969   9.062  21.659  0.00  0.00    +0.000 C 
BRANCH  31  32
ATOM     32  C   UNL     1      -0.397   8.928  22.292  0.00  0.00    +0.000 C 
BRANCH  32  34
ATOM     33  C   UNL     1      -0.664  11.364  22.510  0.00  0.00    +0.000 C 
ATOM     34  C   UNL     1      -0.790  10.037  23.254  0.00  0.00    +0.000 C 
ENDBRANCH  32  34
ENDBRANCH  31  32
ENDBRANCH  25  31
ENDBRANCH  24  25
ENDBRANCH   1  24
TORSDOF 8
ENDMDL
MODEL 4
REMARK VINA RESULT:      -5.9      3.596      7.587
REMARK  Name = 
REMARK  11 active torsions:
REMARK  status: ('A' for Active; 'I' for Inactive)
REMARK    1  A    between atoms: C_1  and  C_2
REMARK    2  A    between atoms: C_2  and  C_3
REMARK    3  A    between atoms: C_3  and  C_4
REMARK    4  A    between atoms: C_4  and  N_5
REMARK    5  A    between atoms: N_5  and  C_6
REMARK    6  A    between atoms: C_6  and  C_7
REMARK    7  A    between atoms: C_21  and  C_22
REMARK    8  A    between atoms: C_25  and  O_26
REMARK    9  A    between atoms: O_26  and  C_27
REMARK   10  A    between atoms: C_30  and  C_32
REMARK   11  A    between atoms: C_32  and  C_33
REMARK                            x       y       z     vdW  Elec       q    Type
REMARK                         _______ _______ _______ _____ _____    ______ ____
ROOT
ATOM      1  C   UNL     1       0.709  12.069  21.035  0.00  0.00    +0.000 C 
ATOM      2  O   UNL     1       1.762  11.445  21.172  0.00  0.00    +0.000 OA
ATOM      3  N   UNL     1      -0.551  11.450  20.983  0.00  0.00    +0.000 N 
ATOM      4  C   UNL     1      -1.698  12.224  21.337  0.00  0.00    +0.000 A 
ATOM      5  C   UNL     1      -1.712  12.939  22.537  0.00  0.00    +0.000 A 
ATOM      6  C   UNL     1      -2.586  14.012  22.707  0.00  0.00    +0.000 A 
ATOM      7  C   UNL     1      -3.497  14.326  21.703  0.00  0.00    +0.000 A 
ATOM      8  C   UNL     1      -3.582  13.532  20.557  0.00  0.00    +0.000 A 
ATOM      9  C   UNL     1      -2.686  12.470  20.381  0.00  0.00    +0.000 A 
ATOM     10  N   UNL     1      -2.658  11.688  19.211  0.00  0.00    +0.000 N 
ATOM     11  C   UNL     1      -3.433  11.813  18.083  0.00  0.00    +0.000 A 
ATOM     12  C   UNL     1      -3.080  10.828  17.198  0.00  0.00    +0.000 A 
ATOM     13  C   UNL     1      -2.059  10.064  17.803  0.00  0.00    +0.000 A 
ATOM     14  C   UNL     1      -1.782  10.634  19.035  0.00  0.00    +0.000 A 
ATOM     15  C   UNL     1      -0.794  10.258  20.124  0.00  0.00    +0.000 C 
ENDROOT
BRANCH  15  16
ATOM     16  C   UNL     1       0.429   9.524  19.557  0.00  0.00    +0.000 A 
ATOM     17  C   UNL     1       0.970   9.866  18.305  0.00  0.00    +0.000 A 
ATOM     18  C   UNL     1       2.042   9.151  17.762  0.00  0.00    +0.000 A 
ATOM     19  C   UNL     1       2.610   8.080  18.450  0.00  0.00    +0.000 A 
ATOM     20  C   UNL     1       2.091   7.726  19.694  0.00  0.00    +0.000 A 
ATOM     21  C   UNL     1       1.012   8.443  20.242  0.00  0.00    +0.000 A 
BRANCH  19  22
ATOM     22  O   UNL     1       3.609   7.433  17.776  0.00  0.00    +0.000 OA
ATOM     23  C   UNL     1       3.636   6.014  17.867  0.00  0.00    +0.000 C 
ENDBRANCH  19  22
ENDBRANCH  15  16
BRANCH   1  24
ATOM     24  C   UNL     1       0.727  13.622  20.807  0.00  0.00    +0.000 C 
BRANCH  24  25
ATOM     25  N   UNL     1       0.814  14.406  19.547  0.00  0.00    +0.000 N 
ATOM     26  C   UNL     1       0.505  15.782  19.528  0.00  0.00    +0.000 C 
ATOM     27  O   UNL     1       0.720  16.467  18.522  0.00  0.00    +0.000 OA
BRANCH  26  28
ATOM     28  C   UNL     1      -0.122  16.426  20.779  0.00  0.00    +0.000 C 
ATOM     29  C   UNL     1       0.746  17.540  21.348  0.00  0.00    +0.000 C 
ATOM     30 CL   UNL     1      -1.715  17.097  20.323  0.00  0.00    +0.000 Cl
ENDBRANCH  26  28
BRANCH  25  31
ATOM     31  C   UNL     1       1.383  13.860  18.301  0.00  0.00    +0.000 C 
BRANCH  31  32
ATOM     32  C   UNL     1       2.836  13.455  18.382  0.00  0.00    +0.000 C 
BRANCH  32  34
ATOM     33  C   UNL     1       4.364  15.273  17.737  0.00  0.00    +0.000 C 
ATOM     34  C   UNL     1       3.787  14.509  18.926  0.00  0.00    +0.000 C 
ENDBRANCH  32  34
ENDBRANCH  31  32
ENDBRANCH  25  31
ENDBRANCH  24  25
ENDBRANCH   1  24
TORSDOF 8
ENDMDL
MODEL 5
REMARK VINA RESULT:      -5.8      3.339      6.613
REMARK  Name = 
REMARK  11 active torsions:
REMARK  status: ('A' for Active; 'I' for Inactive)
REMARK    1  A    between atoms: C_1  and  C_2
REMARK    2  A    between atoms: C_2  and  C_3
REMARK    3  A    between atoms: C_3  and  C_4
REMARK    4  A    between atoms: C_4  and  N_5
REMARK    5  A    between atoms: N_5  and  C_6
REMARK    6  A    between atoms: C_6  and  C_7
REMARK    7  A    between atoms: C_21  and  C_22
REMARK    8  A    between atoms: C_25  and  O_26
REMARK    9  A    between atoms: O_26  and  C_27
REMARK   10  A    between atoms: C_30  and  C_32
REMARK   11  A    between atoms: C_32  and  C_33
REMARK                            x       y       z     vdW  Elec       q    Type
REMARK                         _______ _______ _______ _____ _____    ______ ____
ROOT
ATOM      1  C   UNL     1      -1.360  13.390  21.365  0.00  0.00    +0.000 C 
ATOM      2  O   UNL     1      -1.577  14.595  21.485  0.00  0.00    +0.000 OA
ATOM      3  N   UNL     1      -0.068  12.835  21.367  0.00  0.00    +0.000 N 
ATOM      4  C   UNL     1       0.076  11.463  21.735  0.00  0.00    +0.000 A 
ATOM      5  C   UNL     1      -0.504  10.995  22.917  0.00  0.00    +0.000 A 
ATOM      6  C   UNL     1      -0.756   9.634  23.086  0.00  0.00    +0.000 A 
ATOM      7  C   UNL     1      -0.363   8.732  22.103  0.00  0.00    +0.000 A 
ATOM      8  C   UNL     1       0.340   9.177  20.980  0.00  0.00    +0.000 A 
ATOM      9  C   UNL     1       0.569  10.547  20.804  0.00  0.00    +0.000 A 
ATOM     10  N   UNL     1       1.190  11.069  19.654  0.00  0.00    +0.000 N 
ATOM     11  C   UNL     1       1.643  10.392  18.548  0.00  0.00    +0.000 A 
ATOM     12  C   UNL     1       2.196  11.296  17.677  0.00  0.00    +0.000 A 
ATOM     13  C   UNL     1       2.088  12.572  18.270  0.00  0.00    +0.000 A 
ATOM     14  C   UNL     1       1.427  12.419  19.478  0.00  0.00    +0.000 A 
ATOM     15  C   UNL     1       1.027  13.422  20.546  0.00  0.00    +0.000 C 
ENDROOT
BRANCH  15  16
ATOM     16  C   UNL     1       0.811  14.823  19.960  0.00  0.00    +0.000 A 
ATOM     17  C   UNL     1       0.029  15.022  18.808  0.00  0.00    +0.000 A 
ATOM     18  C   UNL     1      -0.110  16.291  18.239  0.00  0.00    +0.000 A 
ATOM     19  C   UNL     1       0.518  17.401  18.803  0.00  0.00    +0.000 A 
ATOM     20  C   UNL     1       1.295  17.228  19.947  0.00  0.00    +0.000 A 
ATOM     21  C   UNL     1       1.438  15.951  20.521  0.00  0.00    +0.000 A 
BRANCH  19  22
ATOM     22  O   UNL     1       0.347  18.568  18.110  0.00  0.00    +0.000 OA
ATOM     23  C   UNL     1       0.901  18.630  16.802  0.00  0.00    +0.000 C 
ENDBRANCH  19  22
ENDBRANCH  15  16
BRANCH   1  24
ATOM     24  C   UNL     1      -2.541  12.390  21.097  0.00  0.00    +0.000 C 
BRANCH  24  25
ATOM     25  N   UNL     1      -4.009  12.627  21.064  0.00  0.00    +0.000 N 
ATOM     26  C   UNL     1      -4.714  12.962  22.238  0.00  0.00    +0.000 C 
ATOM     27  O   UNL     1      -5.900  13.306  22.190  0.00  0.00    +0.000 OA
BRANCH  26  28
ATOM     28  C   UNL     1      -3.990  12.881  23.595  0.00  0.00    +0.000 C 
ATOM     29  C   UNL     1      -3.623  14.257  24.134  0.00  0.00    +0.000 C 
ATOM     30 CL   UNL     1      -5.075  12.065  24.759  0.00  0.00    +0.000 Cl
ENDBRANCH  26  28
BRANCH  25  31
ATOM     31  C   UNL     1      -4.781  12.701  19.809  0.00  0.00    +0.000 C 
BRANCH  31  32
ATOM     32  C   UNL     1      -4.270  11.827  18.688  0.00  0.00    +0.000 C 
BRANCH  32  34
ATOM     33  C   UNL     1      -6.495  10.779  18.750  0.00  0.00    +0.000 C 
ATOM     34  C   UNL     1      -5.335  11.159  17.833  0.00  0.00    +0.000 C 
ENDBRANCH  32  34
ENDBRANCH  31  32
ENDBRANCH  25  31
ENDBRANCH  24  25
ENDBRANCH   1  24
TORSDOF 8
ENDMDL
MODEL 6
REMARK VINA RESULT:      -5.7      3.707      7.662
REMARK  Name = 
REMARK  11 active torsions:
REMARK  status: ('A' for Active; 'I' for Inactive)
REMARK    1  A    between atoms: C_1  and  C_2
REMARK    2  A    between atoms: C_2  and  C_3
REMARK    3  A    between atoms: C_3  and  C_4
REMARK    4  A    between atoms: C_4  and  N_5
REMARK    5  A    between atoms: N_5  and  C_6
REMARK    6  A    between atoms: C_6  and  C_7
REMARK    7  A    between atoms: C_21  and  C_22
REMARK    8  A    between atoms: C_25  and  O_26
REMARK    9  A    between atoms: O_26  and  C_27
REMARK   10  A    between atoms: C_30  and  C_32
REMARK   11  A    between atoms: C_32  and  C_33
REMARK                            x       y       z     vdW  Elec       q    Type
REMARK                         _______ _______ _______ _____ _____    ______ ____
ROOT
ATOM      1  C   UNL     1       0.876  11.662  21.220  0.00  0.00    +0.000 C 
ATOM      2  O   UNL     1       1.885  10.974  21.368  0.00  0.00    +0.000 OA
ATOM      3  N   UNL     1      -0.405  11.118  21.023  0.00  0.00    +0.000 N 
ATOM      4  C   UNL     1      -1.538  11.917  21.370  0.00  0.00    +0.000 A 
ATOM      5  C   UNL     1      -1.605  12.518  22.629  0.00  0.00    +0.000 A 
ATOM      6  C   UNL     1      -2.439  13.616  22.841  0.00  0.00    +0.000 A 
ATOM      7  C   UNL     1      -3.259  14.069  21.811  0.00  0.00    +0.000 A 
ATOM      8  C   UNL     1      -3.297  13.388  20.591  0.00  0.00    +0.000 A 
ATOM      9  C   UNL     1      -2.440  12.301  20.377  0.00  0.00    +0.000 A 
ATOM     10  N   UNL     1      -2.364  11.630  19.142  0.00  0.00    +0.000 N 
ATOM     11  C   UNL     1      -3.048  11.899  17.982  0.00  0.00    +0.000 A 
ATOM     12  C   UNL     1      -2.677  10.981  17.032  0.00  0.00    +0.000 A 
ATOM     13  C   UNL     1      -1.740  10.112  17.630  0.00  0.00    +0.000 A 
ATOM     14  C   UNL     1      -1.527  10.551  18.927  0.00  0.00    +0.000 A 
ATOM     15  C   UNL     1      -0.639  10.025  20.040  0.00  0.00    +0.000 C 
ENDROOT
BRANCH  15  16
ATOM     16  C   UNL     1       0.586   9.283  19.490  0.00  0.00    +0.000 A 
ATOM     17  C   UNL     1       1.163   9.638  18.258  0.00  0.00    +0.000 A 
ATOM     18  C   UNL     1       2.238   8.916  17.729  0.00  0.00    +0.000 A 
ATOM     19  C   UNL     1       2.772   7.825  18.412  0.00  0.00    +0.000 A 
ATOM     20  C   UNL     1       2.217   7.457  19.636  0.00  0.00    +0.000 A 
ATOM     21  C   UNL     1       1.136   8.181  20.170  0.00  0.00    +0.000 A 
BRANCH  19  22
ATOM     22  O   UNL     1       3.778   7.174  17.751  0.00  0.00    +0.000 OA
ATOM     23  C   UNL     1       4.095   5.860  18.191  0.00  0.00    +0.000 C 
ENDBRANCH  19  22
ENDBRANCH  15  16
BRANCH   1  24
ATOM     24  C   UNL     1       0.983  13.227  21.143  0.00  0.00    +0.000 C 
BRANCH  24  25
ATOM     25  N   UNL     1       1.579  14.097  20.095  0.00  0.00    +0.000 N 
ATOM     26  C   UNL     1       2.826  14.725  20.300  0.00  0.00    +0.000 C 
ATOM     27  O   UNL     1       3.394  15.323  19.380  0.00  0.00    +0.000 OA
BRANCH  26  28
ATOM     28  C   UNL     1       3.472  14.668  21.697  0.00  0.00    +0.000 C 
ATOM     29  C   UNL     1       4.988  14.545  21.625  0.00  0.00    +0.000 C 
ATOM     30 CL   UNL     1       3.045  16.169  22.570  0.00  0.00    +0.000 Cl
ENDBRANCH  26  28
BRANCH  25  31
ATOM     31  C   UNL     1       1.015  14.222  18.739  0.00  0.00    +0.000 C 
BRANCH  31  32
ATOM     32  C   UNL     1      -0.357  14.852  18.669  0.00  0.00    +0.000 C 
BRANCH  32  34
ATOM     33  C   UNL     1      -1.453  16.739  19.806  0.00  0.00    +0.000 C 
ATOM     34  C   UNL     1      -0.393  16.368  18.772  0.00  0.00    +0.000 C 
ENDBRANCH  32  34
ENDBRANCH  31  32
ENDBRANCH  25  31
ENDBRANCH  24  25
ENDBRANCH   1  24
TORSDOF 8
ENDMDL
MODEL 7
REMARK VINA RESULT:      -5.7      1.412      2.915
REMARK  Name = 
REMARK  11 active torsions:
REMARK  status: ('A' for Active; 'I' for Inactive)
REMARK    1  A    between atoms: C_1  and  C_2
REMARK    2  A    between atoms: C_2  and  C_3
REMARK    3  A    between atoms: C_3  and  C_4
REMARK    4  A    between atoms: C_4  and  N_5
REMARK    5  A    between atoms: N_5  and  C_6
REMARK    6  A    between atoms: C_6  and  C_7
REMARK    7  A    between atoms: C_21  and  C_22
REMARK    8  A    between atoms: C_25  and  O_26
REMARK    9  A    between atoms: O_26  and  C_27
REMARK   10  A    between atoms: C_30  and  C_32
REMARK   11  A    between atoms: C_32  and  C_33
REMARK                            x       y       z     vdW  Elec       q    Type
REMARK                         _______ _______ _______ _____ _____    ______ ____
ROOT
ATOM      1  C   UNL     1      -3.508  13.793  20.565  0.00  0.00    +0.000 C 
ATOM      2  O   UNL     1      -2.609  14.556  20.917  0.00  0.00    +0.000 OA
ATOM      3  N   UNL     1      -4.873  14.084  20.724  0.00  0.00    +0.000 N 
ATOM      4  C   UNL     1      -5.808  13.431  19.863  0.00  0.00    +0.000 A 
ATOM      5  C   UNL     1      -5.608  13.447  18.481  0.00  0.00    +0.000 A 
ATOM      6  C   UNL     1      -6.221  12.492  17.670  0.00  0.00    +0.000 A 
ATOM      7  C   UNL     1      -7.091  11.563  18.235  0.00  0.00    +0.000 A 
ATOM      8  C   UNL     1      -7.401  11.627  19.596  0.00  0.00    +0.000 A 
ATOM      9  C   UNL     1      -6.764  12.573  20.408  0.00  0.00    +0.000 A 
ATOM     10  N   UNL     1      -6.963  12.632  21.800  0.00  0.00    +0.000 N 
ATOM     11  C   UNL     1      -7.746  11.821  22.585  0.00  0.00    +0.000 A 
ATOM     12  C   UNL     1      -7.658  12.250  23.885  0.00  0.00    +0.000 A 
ATOM     13  C   UNL     1      -6.798  13.368  23.901  0.00  0.00    +0.000 A 
ATOM     14  C   UNL     1      -6.344  13.568  22.607  0.00  0.00    +0.000 A 
ATOM     15  C   UNL     1      -5.408  14.605  22.012  0.00  0.00    +0.000 C 
ENDROOT
BRANCH  15  16
ATOM     16  C   UNL     1      -4.402  15.125  23.047  0.00  0.00    +0.000 A 
ATOM     17  C   UNL     1      -3.763  14.254  23.947  0.00  0.00    +0.000 A 
ATOM     18  C   UNL     1      -2.897  14.741  24.932  0.00  0.00    +0.000 A 
ATOM     19  C   UNL     1      -2.639  16.106  25.047  0.00  0.00    +0.000 A 
ATOM     20  C   UNL     1      -3.259  16.987  24.163  0.00  0.00    +0.000 A 
ATOM     21  C   UNL     1      -4.131  16.501  23.172  0.00  0.00    +0.000 A 
BRANCH  19  22
ATOM     22  O   UNL     1      -1.824  16.448  26.091  0.00  0.00    +0.000 OA
ATOM     23  C   UNL     1      -1.356  17.789  26.133  0.00  0.00    +0.000 C 
ENDBRANCH  19  22
ENDBRANCH  15  16
BRANCH   1  24
ATOM     24  C   UNL     1      -3.166  12.370  19.993  0.00  0.00    +0.000 C 
BRANCH  24  25
ATOM     25  N   UNL     1      -1.861  11.790  19.580  0.00  0.00    +0.000 N 
ATOM     26  C   UNL     1      -1.707  11.177  18.320  0.00  0.00    +0.000 C 
ATOM     27  O   UNL     1      -0.593  10.831  17.913  0.00  0.00    +0.000 OA
BRANCH  26  28
ATOM     28  C   UNL     1      -2.955  10.929  17.451  0.00  0.00    +0.000 C 
ATOM     29  C   UNL     1      -2.639  10.978  15.962  0.00  0.00    +0.000 C 
ATOM     30 CL   UNL     1      -3.607   9.315  17.860  0.00  0.00    +0.000 Cl
ENDBRANCH  26  28
BRANCH  25  31
ATOM     31  C   UNL     1      -0.623  11.966  20.362  0.00  0.00    +0.000 C 
BRANCH  31  32
ATOM     32  C   UNL     1      -0.224  10.781  21.210  0.00  0.00    +0.000 C 
BRANCH  32  34
ATOM     33  C   UNL     1      -0.200   9.538  23.333  0.00  0.00    +0.000 C 
ATOM     34  C   UNL     1      -0.708  10.806  22.651  0.00  0.00    +0.000 C 
ENDBRANCH  32  34
ENDBRANCH  31  32
ENDBRANCH  25  31
ENDBRANCH  24  25
ENDBRANCH   1  24
TORSDOF 8
ENDMDL
MODEL 8
REMARK VINA RESULT:      -5.7      3.344      5.653
REMARK  Name = 
REMARK  11 active torsions:
REMARK  status: ('A' for Active; 'I' for Inactive)
REMARK    1  A    between atoms: C_1  and  C_2
REMARK    2  A    between atoms: C_2  and  C_3
REMARK    3  A    between atoms: C_3  and  C_4
REMARK    4  A    between atoms: C_4  and  N_5
REMARK    5  A    between atoms: N_5  and  C_6
REMARK    6  A    between atoms: C_6  and  C_7
REMARK    7  A    between atoms: C_21  and  C_22
REMARK    8  A    between atoms: C_25  and  O_26
REMARK    9  A    between atoms: O_26  and  C_27
REMARK   10  A    between atoms: C_30  and  C_32
REMARK   11  A    between atoms: C_32  and  C_33
REMARK                            x       y       z     vdW  Elec       q    Type
REMARK                         _______ _______ _______ _____ _____    ______ ____
ROOT
ATOM      1  C   UNL     1      -0.471  12.959  20.871  0.00  0.00    +0.000 C 
ATOM      2  O   UNL     1      -0.917  12.120  21.653  0.00  0.00    +0.000 OA
ATOM      3  N   UNL     1      -0.348  14.322  21.190  0.00  0.00    +0.000 N 
ATOM      4  C   UNL     1       0.612  15.099  20.472  0.00  0.00    +0.000 A 
ATOM      5  C   UNL     1       1.929  14.648  20.362  0.00  0.00    +0.000 A 
ATOM      6  C   UNL     1       2.754  15.127  19.344  0.00  0.00    +0.000 A 
ATOM      7  C   UNL     1       2.283  16.110  18.479  0.00  0.00    +0.000 A 
ATOM      8  C   UNL     1       1.014  16.664  18.668  0.00  0.00    +0.000 A 
ATOM      9  C   UNL     1       0.182  16.162  19.676  0.00  0.00    +0.000 A 
ATOM     10  N   UNL     1      -1.139  16.612  19.862  0.00  0.00    +0.000 N 
ATOM     11  C   UNL     1      -1.831  17.548  19.133  0.00  0.00    +0.000 A 
ATOM     12  C   UNL     1      -3.083  17.689  19.676  0.00  0.00    +0.000 A 
ATOM     13  C   UNL     1      -3.162  16.817  20.782  0.00  0.00    +0.000 A 
ATOM     14  C   UNL     1      -1.962  16.127  20.860  0.00  0.00    +0.000 A 
ATOM     15  C   UNL     1      -1.465  15.070  21.830  0.00  0.00    +0.000 C 
ENDROOT
BRANCH  15  16
ATOM     16  C   UNL     1      -2.620  14.258  22.430  0.00  0.00    +0.000 A 
ATOM     17  C   UNL     1      -3.699  13.826  21.638  0.00  0.00    +0.000 A 
ATOM     18  C   UNL     1      -4.781  13.144  22.203  0.00  0.00    +0.000 A 
ATOM     19  C   UNL     1      -4.819  12.868  23.568  0.00  0.00    +0.000 A 
ATOM     20  C   UNL     1      -3.758  13.283  24.372  0.00  0.00    +0.000 A 
ATOM     21  C   UNL     1      -2.669  13.971  23.807  0.00  0.00    +0.000 A 
BRANCH  19  22
ATOM     22  O   UNL     1      -5.963  12.251  23.995  0.00  0.00    +0.000 OA
ATOM     23  C   UNL     1      -7.167  12.580  23.315  0.00  0.00    +0.000 C 
ENDBRANCH  19  22
ENDBRANCH  15  16
BRANCH   1  24
ATOM     24  C   UNL     1      -0.097  12.556  19.399  0.00  0.00    +0.000 C 
BRANCH  24  25
ATOM     25  N   UNL     1      -0.771  11.622  18.460  0.00  0.00    +0.000 N 
ATOM     26  C   UNL     1      -0.282  10.314  18.265  0.00  0.00    +0.000 C 
ATOM     27  O   UNL     1      -0.922   9.488  17.604  0.00  0.00    +0.000 OA
BRANCH  26  28
ATOM     28  C   UNL     1       1.077   9.923  18.877  0.00  0.00    +0.000 C 
ATOM     29  C   UNL     1       0.923   9.213  20.215  0.00  0.00    +0.000 C 
ATOM     30 CL   UNL     1       1.914   8.838  17.729  0.00  0.00    +0.000 Cl
ENDBRANCH  26  28
BRANCH  25  31
ATOM     31  C   UNL     1      -2.064  11.925  17.817  0.00  0.00    +0.000 C 
BRANCH  31  32
ATOM     32  C   UNL     1      -3.278  11.730  18.695  0.00  0.00    +0.000 C 
BRANCH  32  34
ATOM     33  C   UNL     1      -4.221  11.096  16.512  0.00  0.00    +0.000 C 
ATOM     34  C   UNL     1      -4.495  11.124  18.014  0.00  0.00    +0.000 C 
ENDBRANCH  32  34
ENDBRANCH  31  32
ENDBRANCH  25  31
ENDBRANCH  24  25
ENDBRANCH   1  24
TORSDOF 8
ENDMDL
MODEL 9
REMARK VINA RESULT:      -5.6      3.256      6.746
REMARK  Name = 
REMARK  11 active torsions:
REMARK  status: ('A' for Active; 'I' for Inactive)
REMARK    1  A    between atoms: C_1  and  C_2
REMARK    2  A    between atoms: C_2  and  C_3
REMARK    3  A    between atoms: C_3  and  C_4
REMARK    4  A    between atoms: C_4  and  N_5
REMARK    5  A    between atoms: N_5  and  C_6
REMARK    6  A    between atoms: C_6  and  C_7
REMARK    7  A    between atoms: C_21  and  C_22
REMARK    8  A    between atoms: C_25  and  O_26
REMARK    9  A    between atoms: O_26  and  C_27
REMARK   10  A    between atoms: C_30  and  C_32
REMARK   11  A    between atoms: C_32  and  C_33
REMARK                            x       y       z     vdW  Elec       q    Type
REMARK                         _______ _______ _______ _____ _____    ______ ____
ROOT
ATOM      1  C   UNL     1      -1.457  13.308  21.488  0.00  0.00    +0.000 C 
ATOM      2  O   UNL     1      -1.686  14.507  21.646  0.00  0.00    +0.000 OA
ATOM      3  N   UNL     1      -0.162  12.764  21.488  0.00  0.00    +0.000 N 
ATOM      4  C   UNL     1      -0.011  11.381  21.811  0.00  0.00    +0.000 A 
ATOM      5  C   UNL     1      -0.602  10.869  22.969  0.00  0.00    +0.000 A 
ATOM      6  C   UNL     1      -0.844   9.501  23.089  0.00  0.00    +0.000 A 
ATOM      7  C   UNL     1      -0.432   8.636  22.080  0.00  0.00    +0.000 A 
ATOM      8  C   UNL     1       0.281   9.124  20.982  0.00  0.00    +0.000 A 
ATOM      9  C   UNL     1       0.502  10.501  20.856  0.00  0.00    +0.000 A 
ATOM     10  N   UNL     1       1.132  11.067  19.732  0.00  0.00    +0.000 N 
ATOM     11  C   UNL     1       1.604  10.432  18.609  0.00  0.00    +0.000 A 
ATOM     12  C   UNL     1       2.160  11.369  17.776  0.00  0.00    +0.000 A 
ATOM     13  C   UNL     1       2.035  12.623  18.411  0.00  0.00    +0.000 A 
ATOM     14  C   UNL     1       1.360  12.424  19.605  0.00  0.00    +0.000 A 
ATOM     15  C   UNL     1       0.939  13.387  20.701  0.00  0.00    +0.000 C 
ENDROOT
BRANCH  15  16
ATOM     16  C   UNL     1       0.718  14.806  20.161  0.00  0.00    +0.000 A 
ATOM     17  C   UNL     1      -0.006  15.033  18.976  0.00  0.00    +0.000 A 
ATOM     18  C   UNL     1      -0.147  16.321  18.452  0.00  0.00    +0.000 A 
ATOM     19  C   UNL     1       0.422  17.421  19.093  0.00  0.00    +0.000 A 
ATOM     20  C   UNL     1       1.141  17.219  20.270  0.00  0.00    +0.000 A 
ATOM     21  C   UNL     1       1.286  15.924  20.799  0.00  0.00    +0.000 A 
BRANCH  19  22
ATOM     22  O   UNL     1       0.259  18.611  18.438  0.00  0.00    +0.000 OA
ATOM     23  C   UNL     1      -0.657  18.630  17.352  0.00  0.00    +0.000 C 
ENDBRANCH  19  22
ENDBRANCH  15  16
BRANCH   1  24
ATOM     24  C   UNL     1      -2.628  12.309  21.172  0.00  0.00    +0.000 C 
BRANCH  24  25
ATOM     25  N   UNL     1      -3.706  12.387  20.151  0.00  0.00    +0.000 N 
ATOM     26  C   UNL     1      -3.556  11.771  18.892  0.00  0.00    +0.000 C 
ATOM     27  O   UNL     1      -4.503  11.703  18.101  0.00  0.00    +0.000 OA
BRANCH  26  28
ATOM     28  C   UNL     1      -2.184  11.187  18.502  0.00  0.00    +0.000 C 
ATOM     29  C   UNL     1      -2.306   9.814  17.856  0.00  0.00    +0.000 C 
ATOM     30 CL   UNL     1      -1.407  12.312  17.350  0.00  0.00    +0.000 Cl
ENDBRANCH  26  28
BRANCH  25  31
ATOM     31  C   UNL     1      -5.041  12.946  20.436  0.00  0.00    +0.000 C 
BRANCH  31  32
ATOM     32  C   UNL     1      -5.191  14.424  20.161  0.00  0.00    +0.000 C 
BRANCH  32  34
ATOM     33  C   UNL     1      -5.511  14.709  22.584  0.00  0.00    +0.000 C 
ATOM     34  C   UNL     1      -4.906  15.346  21.336  0.00  0.00    +0.000 C 
ENDBRANCH  32  34
ENDBRANCH  31  32
ENDBRANCH  25  31
ENDBRANCH  24  25
ENDBRANCH   1  24
TORSDOF 8
ENDMDL
