MODEL 1
REMARK VINA RESULT:      -8.1      0.000      0.000
REMARK  Name = 
REMARK  11 active torsions:
REMARK  status: ('A' for Active; 'I' for Inactive)
REMARK    1  A    between atoms: C_2  and  C_4
REMARK    2  A    between atoms: C_9  and  O_10
REMARK    3  A    between atoms: O_10  and  C_11
REMARK    4  A    between atoms: C_11  and  C_12
REMARK    5  A    between atoms: C_12  and  C_13
REMARK    6  A    between atoms: C_13  and  N_14
REMARK    7  A    between atoms: N_14  and  C_15
REMARK    8  A    between atoms: C_15  and  C_16
REMARK    9  A    between atoms: C_16  and  C_17
REMARK   10  A    between atoms: N_19  and  C_20
REMARK   11  A    between atoms: C_20  and  C_21
REMARK                            x       y       z     vdW  Elec       q    Type
REMARK                         _______ _______ _______ _____ _____    ______ ____
ROOT
ATOM      1  C   UNL     1       2.626   8.581  18.072  0.00  0.00    +0.000 C 
ENDROOT
BRANCH   1   2
ATOM      2  N   UNL     1       1.698   9.601  17.459  0.00  0.00    +0.000 NA
ATOM      3  H   UNL     1       1.966   9.723  16.480  0.00  0.00    +0.000 HD
BRANCH   2   4
ATOM      4  C   UNL     1       1.755  10.915  18.131  0.00  0.00    +0.000 C 
BRANCH   4   5
ATOM      5  C   UNL     1       0.902  11.061  19.434  0.00  0.00    +0.000 C 
BRANCH   5   6
ATOM      6  C   UNL     1      -0.355  10.175  19.478  0.00  0.00    +0.000 C 
BRANCH   6   7
ATOM      7  O   UNL     1      -1.595  10.944  19.455  0.00  0.00    +0.000 OA
BRANCH   7  13
ATOM      8  C   UNL     1      -3.598  11.485  18.150  0.00  0.00    +0.000 A 
ATOM      9  C   UNL     1      -4.307  11.373  16.927  0.00  0.00    +0.000 A 
ATOM     10  C   UNL     1      -3.815  10.631  15.859  0.00  0.00    +0.000 A 
ATOM     11  C   UNL     1      -2.602   9.971  15.998  0.00  0.00    +0.000 A 
ATOM     12  C   UNL     1      -1.883  10.075  17.194  0.00  0.00    +0.000 A 
ATOM     13  C   UNL     1      -2.339  10.849  18.283  0.00  0.00    +0.000 A 
BRANCH   8  15
ATOM     14  N   UNL     1      -3.580  13.109  19.988  0.00  0.00    +0.000 N 
ATOM     15  C   UNL     1      -4.308  12.278  19.202  0.00  0.00    +0.000 C 
ATOM     16  O   UNL     1      -5.518  12.169  19.386  0.00  0.00    +0.000 OA
ATOM     17  H   UNL     1      -4.074  13.618  20.716  0.00  0.00    +0.000 HD
ATOM     18  H   UNL     1      -2.581  13.217  19.879  0.00  0.00    +0.000 HD
ENDBRANCH   8  15
ENDBRANCH   7  13
ENDBRANCH   6   7
ENDBRANCH   5   6
ENDBRANCH   4   5
ENDBRANCH   2   4
ENDBRANCH   1   2
BRANCH   1  19
ATOM     19  C   UNL     1       1.971   7.179  18.123  0.00  0.00    +0.000 C 
BRANCH  19  20
ATOM     20  C   UNL     1       2.681   5.943  18.695  0.00  0.00    +0.000 A 
ATOM     21  C   UNL     1       3.644   6.082  19.697  0.00  0.00    +0.000 A 
ATOM     22  N   UNL     1       4.538   5.049  19.500  0.00  0.00    +0.000 N 
ATOM     23  C   UNL     1       3.776   3.963  19.122  0.00  0.00    +0.000 A 
ATOM     24  C   UNL     1       4.089   2.597  19.227  0.00  0.00    +0.000 A 
ATOM     25  C   UNL     1       3.298   1.719  18.505  0.00  0.00    +0.000 A 
ATOM     26  C   UNL     1       2.298   2.207  17.666  0.00  0.00    +0.000 A 
ATOM     27  C   UNL     1       2.004   3.594  17.580  0.00  0.00    +0.000 A 
ATOM     28  C   UNL     1       2.711   4.510  18.392  0.00  0.00    +0.000 A 
BRANCH  22  29
ATOM     29  C   UNL     1       5.861   5.258  18.884  0.00  0.00    +0.000 C 
BRANCH  29  30
ATOM     30  C   UNL     1       5.871   5.165  17.387  0.00  0.00    +0.000 A 
ATOM     31  C   UNL     1       5.441   6.244  16.595  0.00  0.00    +0.000 A 
ATOM     32  C   UNL     1       5.529   6.177  15.203  0.00  0.00    +0.000 A 
ATOM     33  C   UNL     1       6.053   5.042  14.591  0.00  0.00    +0.000 A 
ATOM     34  C   UNL     1       6.488   3.970  15.368  0.00  0.00    +0.000 A 
ATOM     35  C   UNL     1       6.399   4.031  16.757  0.00  0.00    +0.000 A 
ENDBRANCH  29  30
ENDBRANCH  22  29
ENDBRANCH  19  20
ENDBRANCH   1  19
TORSDOF 11
ENDMDL
MODEL 2
REMARK VINA RESULT:      -7.9      3.417      9.591
REMARK  Name = 
REMARK  11 active torsions:
REMARK  status: ('A' for Active; 'I' for Inactive)
REMARK    1  A    between atoms: C_2  and  C_4
REMARK    2  A    between atoms: C_9  and  O_10
REMARK    3  A    between atoms: O_10  and  C_11
REMARK    4  A    between atoms: C_11  and  C_12
REMARK    5  A    between atoms: C_12  and  C_13
REMARK    6  A    between atoms: C_13  and  N_14
REMARK    7  A    between atoms: N_14  and  C_15
REMARK    8  A    between atoms: C_15  and  C_16
REMARK    9  A    between atoms: C_16  and  C_17
REMARK   10  A    between atoms: N_19  and  C_20
REMARK   11  A    between atoms: C_20  and  C_21
REMARK                            x       y       z     vdW  Elec       q    Type
REMARK                         _______ _______ _______ _____ _____    ______ ____
ROOT
ATOM      1  C   UNL     1       2.282   7.518  19.114  0.00  0.00    +0.000 C 
ENDROOT
BRANCH   1   2
ATOM      2  N   UNL     1       2.737   6.159  18.642  0.00  0.00    +0.000 NA
ATOM      3  H   UNL     1       2.596   6.113  17.630  0.00  0.00    +0.000 HD
BRANCH   2   4
ATOM      4  C   UNL     1       1.995   5.048  19.272  0.00  0.00    +0.000 C 
BRANCH   4   5
ATOM      5  C   UNL     1       1.972   3.698  18.483  0.00  0.00    +0.000 C 
BRANCH   5   6
ATOM      6  C   UNL     1       2.860   3.676  17.227  0.00  0.00    +0.000 C 
BRANCH   6   7
ATOM      7  O   UNL     1       4.262   3.402  17.526  0.00  0.00    +0.000 OA
BRANCH   7  13
ATOM      8  C   UNL     1       6.325   4.637  17.049  0.00  0.00    +0.000 A 
ATOM      9  C   UNL     1       7.242   5.127  16.084  0.00  0.00    +0.000 A 
ATOM     10  C   UNL     1       7.038   4.946  14.721  0.00  0.00    +0.000 A 
ATOM     11  C   UNL     1       5.899   4.280  14.291  0.00  0.00    +0.000 A 
ATOM     12  C   UNL     1       4.985   3.782  15.228  0.00  0.00    +0.000 A 
ATOM     13  C   UNL     1       5.182   3.918  16.619  0.00  0.00    +0.000 A 
BRANCH   8  15
ATOM     14  N   UNL     1       5.693   5.357  19.307  0.00  0.00    +0.000 N 
ATOM     15  C   UNL     1       6.682   4.974  18.463  0.00  0.00    +0.000 C 
ATOM     16  O   UNL     1       7.845   4.939  18.861  0.00  0.00    +0.000 OA
ATOM     17  H   UNL     1       5.958   5.609  20.256  0.00  0.00    +0.000 HD
ATOM     18  H   UNL     1       4.727   5.412  19.016  0.00  0.00    +0.000 HD
ENDBRANCH   8  15
ENDBRANCH   7  13
ENDBRANCH   6   7
ENDBRANCH   5   6
ENDBRANCH   4   5
ENDBRANCH   2   4
ENDBRANCH   1   2
BRANCH   1  19
ATOM     19  C   UNL     1       2.150   8.511  17.933  0.00  0.00    +0.000 C 
BRANCH  19  20
ATOM     20  C   UNL     1       1.376   9.834  18.034  0.00  0.00    +0.000 A 
ATOM     21  C   UNL     1       2.059  11.044  18.171  0.00  0.00    +0.000 A 
ATOM     22  N   UNL     1       1.227  11.860  18.909  0.00  0.00    +0.000 N 
ATOM     23  C   UNL     1      -0.051  11.588  18.467  0.00  0.00    +0.000 A 
ATOM     24  C   UNL     1      -1.193  12.404  18.540  0.00  0.00    +0.000 A 
ATOM     25  C   UNL     1      -2.413  11.793  18.306  0.00  0.00    +0.000 A 
ATOM     26  C   UNL     1      -2.474  10.417  18.087  0.00  0.00    +0.000 A 
ATOM     27  C   UNL     1      -1.303   9.618  18.019  0.00  0.00    +0.000 A 
ATOM     28  C   UNL     1      -0.032  10.226  18.135  0.00  0.00    +0.000 A 
BRANCH  22  29
ATOM     29  C   UNL     1       1.459  12.135  20.339  0.00  0.00    +0.000 C 
BRANCH  29  30
ATOM     30  C   UNL     1       0.652  11.283  21.274  0.00  0.00    +0.000 A 
ATOM     31  C   UNL     1       1.023   9.952  21.537  0.00  0.00    +0.000 A 
ATOM     32  C   UNL     1       0.313   9.192  22.469  0.00  0.00    +0.000 A 
ATOM     33  C   UNL     1      -0.763   9.753  23.151  0.00  0.00    +0.000 A 
ATOM     34  C   UNL     1      -1.133  11.073  22.902  0.00  0.00    +0.000 A 
ATOM     35  C   UNL     1      -0.430  11.834  21.971  0.00  0.00    +0.000 A 
ENDBRANCH  29  30
ENDBRANCH  22  29
ENDBRANCH  19  20
ENDBRANCH   1  19
TORSDOF 11
ENDMDL
MODEL 3
REMARK VINA RESULT:      -7.7      4.946      8.586
REMARK  Name = 
REMARK  11 active torsions:
REMARK  status: ('A' for Active; 'I' for Inactive)
REMARK    1  A    between atoms: C_2  and  C_4
REMARK    2  A    between atoms: C_9  and  O_10
REMARK    3  A    between atoms: O_10  and  C_11
REMARK    4  A    between atoms: C_11  and  C_12
REMARK    5  A    between atoms: C_12  and  C_13
REMARK    6  A    between atoms: C_13  and  N_14
REMARK    7  A    between atoms: N_14  and  C_15
REMARK    8  A    between atoms: C_15  and  C_16
REMARK    9  A    between atoms: C_16  and  C_17
REMARK   10  A    between atoms: N_19  and  C_20
REMARK   11  A    between atoms: C_20  and  C_21
REMARK                            x       y       z     vdW  Elec       q    Type
REMARK                         _______ _______ _______ _____ _____    ______ ____
ROOT
ATOM      1  C   UNL     1       5.739   6.670  16.568  0.00  0.00    +0.000 C 
ENDROOT
BRANCH   1   2
ATOM      2  N   UNL     1       6.669   6.019  17.562  0.00  0.00    +0.000 NA
ATOM      3  H   UNL     1       6.144   5.852  18.423  0.00  0.00    +0.000 HD
BRANCH   2   4
ATOM      4  C   UNL     1       7.848   6.849  17.882  0.00  0.00    +0.000 C 
BRANCH   4   5
ATOM      5  C   UNL     1       7.717   8.379  17.588  0.00  0.00    +0.000 C 
BRANCH   5   6
ATOM      6  C   UNL     1       8.604   9.277  18.466  0.00  0.00    +0.000 C 
BRANCH   6   7
ATOM      7  O   UNL     1       8.647  10.661  18.005  0.00  0.00    +0.000 OA
BRANCH   7  13
ATOM      8  C   UNL     1       8.975  12.934  18.864  0.00  0.00    +0.000 A 
ATOM      9  C   UNL     1       9.660  13.799  19.755  0.00  0.00    +0.000 A 
ATOM     10  C   UNL     1      10.666  13.338  20.596  0.00  0.00    +0.000 A 
ATOM     11  C   UNL     1      11.020  11.997  20.555  0.00  0.00    +0.000 A 
ATOM     12  C   UNL     1      10.352  11.125  19.687  0.00  0.00    +0.000 A 
ATOM     13  C   UNL     1       9.302  11.555  18.846  0.00  0.00    +0.000 A 
BRANCH   8  15
ATOM     14  N   UNL     1       7.647  13.057  16.806  0.00  0.00    +0.000 N 
ATOM     15  C   UNL     1       7.963  13.617  17.999  0.00  0.00    +0.000 C 
ATOM     16  O   UNL     1       7.443  14.680  18.331  0.00  0.00    +0.000 OA
ATOM     17  H   UNL     1       6.979  13.549  16.219  0.00  0.00    +0.000 HD
ATOM     18  H   UNL     1       8.062  12.191  16.489  0.00  0.00    +0.000 HD
ENDBRANCH   8  15
ENDBRANCH   7  13
ENDBRANCH   6   7
ENDBRANCH   5   6
ENDBRANCH   4   5
ENDBRANCH   2   4
ENDBRANCH   1   2
BRANCH   1  19
ATOM     19  C   UNL     1       4.258   6.337  16.877  0.00  0.00    +0.000 C 
BRANCH  19  20
ATOM     20  C   UNL     1       3.542   6.808  18.151  0.00  0.00    +0.000 A 
ATOM     21  C   UNL     1       3.765   6.160  19.368  0.00  0.00    +0.000 A 
ATOM     22  N   UNL     1       2.584   6.274  20.072  0.00  0.00    +0.000 N 
ATOM     23  C   UNL     1       2.105   7.537  19.795  0.00  0.00    +0.000 A 
ATOM     24  C   UNL     1       1.219   8.322  20.554  0.00  0.00    +0.000 A 
ATOM     25  C   UNL     1       0.657   9.418  19.920  0.00  0.00    +0.000 A 
ATOM     26  C   UNL     1       0.920   9.656  18.572  0.00  0.00    +0.000 A 
ATOM     27  C   UNL     1       1.820   8.845  17.830  0.00  0.00    +0.000 A 
ATOM     28  C   UNL     1       2.504   7.790  18.475  0.00  0.00    +0.000 A 
BRANCH  22  29
ATOM     29  C   UNL     1       1.637   5.152  20.212  0.00  0.00    +0.000 C 
BRANCH  29  30
ATOM     30  C   UNL     1       2.110   3.863  19.607  0.00  0.00    +0.000 A 
ATOM     31  C   UNL     1       1.752   3.510  18.295  0.00  0.00    +0.000 A 
ATOM     32  C   UNL     1       2.262   2.347  17.713  0.00  0.00    +0.000 A 
ATOM     33  C   UNL     1       3.136   1.534  18.429  0.00  0.00    +0.000 A 
ATOM     34  C   UNL     1       3.501   1.880  19.728  0.00  0.00    +0.000 A 
ATOM     35  C   UNL     1       2.993   3.037  20.314  0.00  0.00    +0.000 A 
ENDBRANCH  29  30
ENDBRANCH  22  29
ENDBRANCH  19  20
ENDBRANCH   1  19
TORSDOF 11
ENDMDL
MODEL 4
REMARK VINA RESULT:      -7.6      5.342      8.654
REMARK  Name = 
REMARK  11 active torsions:
REMARK  status: ('A' for Active; 'I' for Inactive)
REMARK    1  A    between atoms: C_2  and  C_4
REMARK    2  A    between atoms: C_9  and  O_10
REMARK    3  A    between atoms: O_10  and  C_11
REMARK    4  A    between atoms: C_11  and  C_12
REMARK    5  A    between atoms: C_12  and  C_13
REMARK    6  A    between atoms: C_13  and  N_14
REMARK    7  A    between atoms: N_14  and  C_15
REMARK    8  A    between atoms: C_15  and  C_16
REMARK    9  A    between atoms: C_16  and  C_17
REMARK   10  A    between atoms: N_19  and  C_20
REMARK   11  A    between atoms: C_20  and  C_21
REMARK                            x       y       z     vdW  Elec       q    Type
REMARK                         _______ _______ _______ _____ _____    ______ ____
ROOT
ATOM      1  C   UNL     1       7.541   6.271  17.973  0.00  0.00    +0.000 C 
ENDROOT
BRANCH   1   2
ATOM      2  N   UNL     1       7.709   7.444  17.040  0.00  0.00    +0.000 NA
ATOM      3  H   UNL     1       8.673   7.440  16.698  0.00  0.00    +0.000 HD
BRANCH   2   4
ATOM      4  C   UNL     1       7.446   8.744  17.690  0.00  0.00    +0.000 C 
BRANCH   4   5
ATOM      5  C   UNL     1       8.680   9.686  17.876  0.00  0.00    +0.000 C 
BRANCH   5   6
ATOM      6  C   UNL     1       9.146   9.850  19.333  0.00  0.00    +0.000 C 
BRANCH   6   7
ATOM      7  O   UNL     1      10.057  10.976  19.516  0.00  0.00    +0.000 OA
BRANCH   7  13
ATOM      8  C   UNL     1       9.061  13.210  19.351  0.00  0.00    +0.000 A 
ATOM      9  C   UNL     1       8.488  14.326  20.011  0.00  0.00    +0.000 A 
ATOM     10  C   UNL     1       8.373  14.380  21.395  0.00  0.00    +0.000 A 
ATOM     11  C   UNL     1       8.844  13.318  22.153  0.00  0.00    +0.000 A 
ATOM     12  C   UNL     1       9.407  12.203  21.521  0.00  0.00    +0.000 A 
ATOM     13  C   UNL     1       9.505  12.103  20.116  0.00  0.00    +0.000 A 
BRANCH   8  15
ATOM     14  N   UNL     1       8.027  13.168  17.127  0.00  0.00    +0.000 N 
ATOM     15  C   UNL     1       9.150  13.353  17.863  0.00  0.00    +0.000 C 
ATOM     16  O   UNL     1      10.215  13.602  17.301  0.00  0.00    +0.000 OA
ATOM     17  H   UNL     1       8.112  13.241  16.117  0.00  0.00    +0.000 HD
ATOM     18  H   UNL     1       7.136  12.948  17.549  0.00  0.00    +0.000 HD
ENDBRANCH   8  15
ENDBRANCH   7  13
ENDBRANCH   6   7
ENDBRANCH   5   6
ENDBRANCH   4   5
ENDBRANCH   2   4
ENDBRANCH   1   2
BRANCH   1  19
ATOM     19  C   UNL     1       6.700   5.146  17.320  0.00  0.00    +0.000 C 
BRANCH  19  20
ATOM     20  C   UNL     1       5.165   5.120  17.353  0.00  0.00    +0.000 A 
ATOM     21  C   UNL     1       4.435   6.303  17.212  0.00  0.00    +0.000 A 
ATOM     22  N   UNL     1       3.283   6.119  17.949  0.00  0.00    +0.000 N 
ATOM     23  C   UNL     1       2.920   4.803  17.753  0.00  0.00    +0.000 A 
ATOM     24  C   UNL     1       1.649   4.218  17.886  0.00  0.00    +0.000 A 
ATOM     25  C   UNL     1       1.600   2.836  17.932  0.00  0.00    +0.000 A 
ATOM     26  C   UNL     1       2.781   2.094  17.920  0.00  0.00    +0.000 A 
ATOM     27  C   UNL     1       4.051   2.713  17.784  0.00  0.00    +0.000 A 
ATOM     28  C   UNL     1       4.133   4.114  17.615  0.00  0.00    +0.000 A 
BRANCH  22  29
ATOM     29  C   UNL     1       3.088   6.738  19.274  0.00  0.00    +0.000 C 
BRANCH  29  30
ATOM     30  C   UNL     1       2.095   7.863  19.293  0.00  0.00    +0.000 A 
ATOM     31  C   UNL     1       1.467   8.250  20.490  0.00  0.00    +0.000 A 
ATOM     32  C   UNL     1       0.606   9.349  20.512  0.00  0.00    +0.000 A 
ATOM     33  C   UNL     1       0.372  10.075  19.348  0.00  0.00    +0.000 A 
ATOM     34  C   UNL     1       0.996   9.704  18.159  0.00  0.00    +0.000 A 
ATOM     35  C   UNL     1       1.853   8.606  18.131  0.00  0.00    +0.000 A 
ENDBRANCH  29  30
ENDBRANCH  22  29
ENDBRANCH  19  20
ENDBRANCH   1  19
TORSDOF 11
ENDMDL
MODEL 5
REMARK VINA RESULT:      -7.6      1.535      2.103
REMARK  Name = 
REMARK  11 active torsions:
REMARK  status: ('A' for Active; 'I' for Inactive)
REMARK    1  A    between atoms: C_2  and  C_4
REMARK    2  A    between atoms: C_9  and  O_10
REMARK    3  A    between atoms: O_10  and  C_11
REMARK    4  A    between atoms: C_11  and  C_12
REMARK    5  A    between atoms: C_12  and  C_13
REMARK    6  A    between atoms: C_13  and  N_14
REMARK    7  A    between atoms: N_14  and  C_15
REMARK    8  A    between atoms: C_15  and  C_16
REMARK    9  A    between atoms: C_16  and  C_17
REMARK   10  A    between atoms: N_19  and  C_20
REMARK   11  A    between atoms: C_20  and  C_21
REMARK                            x       y       z     vdW  Elec       q    Type
REMARK                         _______ _______ _______ _____ _____    ______ ____
ROOT
ATOM      1  C   UNL     1       1.961   9.001  18.534  0.00  0.00    +0.000 C 
ENDROOT
BRANCH   1   2
ATOM      2  N   UNL     1       1.684  10.086  17.523  0.00  0.00    +0.000 NA
ATOM      3  H   UNL     1       1.988   9.749  16.607  0.00  0.00    +0.000 HD
BRANCH   2   4
ATOM      4  C   UNL     1       2.390  11.349  17.819  0.00  0.00    +0.000 C 
BRANCH   4   5
ATOM      5  C   UNL     1       1.787  12.224  18.966  0.00  0.00    +0.000 C 
BRANCH   5   6
ATOM      6  C   UNL     1       0.342  12.693  18.721  0.00  0.00    +0.000 C 
BRANCH   6   7
ATOM      7  O   UNL     1      -0.569  11.594  18.415  0.00  0.00    +0.000 OA
BRANCH   7  13
ATOM      8  C   UNL     1      -2.952  11.399  17.873  0.00  0.00    +0.000 A 
ATOM      9  C   UNL     1      -4.298  11.632  18.253  0.00  0.00    +0.000 A 
ATOM     10  C   UNL     1      -4.623  12.286  19.436  0.00  0.00    +0.000 A 
ATOM     11  C   UNL     1      -3.602  12.734  20.263  0.00  0.00    +0.000 A 
ATOM     12  C   UNL     1      -2.267  12.507  19.910  0.00  0.00    +0.000 A 
ATOM     13  C   UNL     1      -1.905  11.816  18.733  0.00  0.00    +0.000 A 
BRANCH   8  15
ATOM     14  N   UNL     1      -3.172  11.408  15.431  0.00  0.00    +0.000 N 
ATOM     15  C   UNL     1      -2.795  10.731  16.543  0.00  0.00    +0.000 C 
ATOM     16  O   UNL     1      -2.366   9.584  16.443  0.00  0.00    +0.000 OA
ATOM     17  H   UNL     1      -3.085  10.929  14.538  0.00  0.00    +0.000 HD
ATOM     18  H   UNL     1      -3.543  12.348  15.470  0.00  0.00    +0.000 HD
ENDBRANCH   8  15
ENDBRANCH   7  13
ENDBRANCH   6   7
ENDBRANCH   5   6
ENDBRANCH   4   5
ENDBRANCH   2   4
ENDBRANCH   1   2
BRANCH   1  19
ATOM     19  C   UNL     1       2.075   7.613  17.858  0.00  0.00    +0.000 C 
BRANCH  19  20
ATOM     20  C   UNL     1       2.539   6.353  18.603  0.00  0.00    +0.000 A 
ATOM     21  C   UNL     1       3.508   6.442  19.606  0.00  0.00    +0.000 A 
ATOM     22  N   UNL     1       4.193   5.245  19.568  0.00  0.00    +0.000 N 
ATOM     23  C   UNL     1       3.244   4.279  19.311  0.00  0.00    +0.000 A 
ATOM     24  C   UNL     1       3.295   2.904  19.599  0.00  0.00    +0.000 A 
ATOM     25  C   UNL     1       2.358   2.100  18.973  0.00  0.00    +0.000 A 
ATOM     26  C   UNL     1       1.469   2.650  18.050  0.00  0.00    +0.000 A 
ATOM     27  C   UNL     1       1.440   4.044  17.780  0.00  0.00    +0.000 A 
ATOM     28  C   UNL     1       2.302   4.912  18.487  0.00  0.00    +0.000 A 
BRANCH  22  29
ATOM     29  C   UNL     1       5.535   5.124  18.968  0.00  0.00    +0.000 C 
BRANCH  29  30
ATOM     30  C   UNL     1       5.541   5.058  17.469  0.00  0.00    +0.000 A 
ATOM     31  C   UNL     1       5.397   6.224  16.696  0.00  0.00    +0.000 A 
ATOM     32  C   UNL     1       5.483   6.163  15.304  0.00  0.00    +0.000 A 
ATOM     33  C   UNL     1       5.723   4.946  14.672  0.00  0.00    +0.000 A 
ATOM     34  C   UNL     1       5.875   3.787  15.431  0.00  0.00    +0.000 A 
ATOM     35  C   UNL     1       5.786   3.842  16.820  0.00  0.00    +0.000 A 
ENDBRANCH  29  30
ENDBRANCH  22  29
ENDBRANCH  19  20
ENDBRANCH   1  19
TORSDOF 11
ENDMDL
MODEL 6
REMARK VINA RESULT:      -7.5      3.850      9.850
REMARK  Name = 
REMARK  11 active torsions:
REMARK  status: ('A' for Active; 'I' for Inactive)
REMARK    1  A    between atoms: C_2  and  C_4
REMARK    2  A    between atoms: C_9  and  O_10
REMARK    3  A    between atoms: O_10  and  C_11
REMARK    4  A    between atoms: C_11  and  C_12
REMARK    5  A    between atoms: C_12  and  C_13
REMARK    6  A    between atoms: C_13  and  N_14
REMARK    7  A    between atoms: N_14  and  C_15
REMARK    8  A    between atoms: C_15  and  C_16
REMARK    9  A    between atoms: C_16  and  C_17
REMARK   10  A    between atoms: N_19  and  C_20
REMARK   11  A    between atoms: C_20  and  C_21
REMARK                            x       y       z     vdW  Elec       q    Type
REMARK                         _______ _______ _______ _____ _____    ______ ____
ROOT
ATOM      1  C   UNL     1       2.303   6.875  18.645  0.00  0.00    +0.000 C 
ENDROOT
BRANCH   1   2
ATOM      2  N   UNL     1       2.929   6.490  19.962  0.00  0.00    +0.000 NA
ATOM      3  H   UNL     1       3.943   6.458  19.832  0.00  0.00    +0.000 HD
BRANCH   2   4
ATOM      4  C   UNL     1       2.476   5.175  20.458  0.00  0.00    +0.000 C 
BRANCH   4   5
ATOM      5  C   UNL     1       2.696   3.961  19.496  0.00  0.00    +0.000 C 
BRANCH   5   6
ATOM      6  C   UNL     1       4.139   3.429  19.459  0.00  0.00    +0.000 C 
BRANCH   6   7
ATOM      7  O   UNL     1       5.131   4.485  19.281  0.00  0.00    +0.000 OA
BRANCH   7  13
ATOM      8  C   UNL     1       6.787   5.383  17.713  0.00  0.00    +0.000 A 
ATOM      9  C   UNL     1       7.236   5.508  16.373  0.00  0.00    +0.000 A 
ATOM     10  C   UNL     1       6.530   4.959  15.309  0.00  0.00    +0.000 A 
ATOM     11  C   UNL     1       5.347   4.280  15.563  0.00  0.00    +0.000 A 
ATOM     12  C   UNL     1       4.891   4.138  16.878  0.00  0.00    +0.000 A 
ATOM     13  C   UNL     1       5.602   4.653  17.983  0.00  0.00    +0.000 A 
BRANCH   8  15
ATOM     14  N   UNL     1       7.866   5.485  19.913  0.00  0.00    +0.000 N 
ATOM     15  C   UNL     1       7.647   6.085  18.717  0.00  0.00    +0.000 C 
ATOM     16  O   UNL     1       8.126   7.194  18.494  0.00  0.00    +0.000 OA
ATOM     17  H   UNL     1       8.428   5.989  20.594  0.00  0.00    +0.000 HD
ATOM     18  H   UNL     1       7.478   4.580  20.142  0.00  0.00    +0.000 HD
ENDBRANCH   8  15
ENDBRANCH   7  13
ENDBRANCH   6   7
ENDBRANCH   5   6
ENDBRANCH   4   5
ENDBRANCH   2   4
ENDBRANCH   1   2
BRANCH   1  19
ATOM     19  C   UNL     1       2.327   8.409  18.434  0.00  0.00    +0.000 C 
BRANCH  19  20
ATOM     20  C   UNL     1       1.374   9.370  19.160  0.00  0.00    +0.000 A 
ATOM     21  C   UNL     1       0.885  10.506  18.511  0.00  0.00    +0.000 A 
ATOM     22  N   UNL     1       0.706  11.451  19.500  0.00  0.00    +0.000 N 
ATOM     23  C   UNL     1       0.231  10.761  20.595  0.00  0.00    +0.000 A 
ATOM     24  C   UNL     1      -0.516  11.251  21.681  0.00  0.00    +0.000 A 
ATOM     25  C   UNL     1      -0.609  10.432  22.793  0.00  0.00    +0.000 A 
ATOM     26  C   UNL     1       0.080   9.221  22.830  0.00  0.00    +0.000 A 
ATOM     27  C   UNL     1       0.827   8.752  21.718  0.00  0.00    +0.000 A 
ATOM     28  C   UNL     1       0.848   9.504  20.521  0.00  0.00    +0.000 A 
BRANCH  22  29
ATOM     29  C   UNL     1       1.643  12.573  19.697  0.00  0.00    +0.000 C 
BRANCH  29  30
ATOM     30  C   UNL     1       0.982  13.901  19.922  0.00  0.00    +0.000 A 
ATOM     31  C   UNL     1       0.140  14.461  18.947  0.00  0.00    +0.000 A 
ATOM     32  C   UNL     1      -0.533  15.659  19.198  0.00  0.00    +0.000 A 
ATOM     33  C   UNL     1      -0.380  16.301  20.424  0.00  0.00    +0.000 A 
ATOM     34  C   UNL     1       0.447  15.749  21.400  0.00  0.00    +0.000 A 
ATOM     35  C   UNL     1       1.124  14.556  21.152  0.00  0.00    +0.000 A 
ENDBRANCH  29  30
ENDBRANCH  22  29
ENDBRANCH  19  20
ENDBRANCH   1  19
TORSDOF 11
ENDMDL
MODEL 7
REMARK VINA RESULT:      -7.5      1.703      3.860
REMARK  Name = 
REMARK  11 active torsions:
REMARK  status: ('A' for Active; 'I' for Inactive)
REMARK    1  A    between atoms: C_2  and  C_4
REMARK    2  A    between atoms: C_9  and  O_10
REMARK    3  A    between atoms: O_10  and  C_11
REMARK    4  A    between atoms: C_11  and  C_12
REMARK    5  A    between atoms: C_12  and  C_13
REMARK    6  A    between atoms: C_13  and  N_14
REMARK    7  A    between atoms: N_14  and  C_15
REMARK    8  A    between atoms: C_15  and  C_16
REMARK    9  A    between atoms: C_16  and  C_17
REMARK   10  A    between atoms: N_19  and  C_20
REMARK   11  A    between atoms: C_20  and  C_21
REMARK                            x       y       z     vdW  Elec       q    Type
REMARK                         _______ _______ _______ _____ _____    ______ ____
ROOT
ATOM      1  C   UNL     1       1.951   7.856  19.583  0.00  0.00    +0.000 C 
ENDROOT
BRANCH   1   2
ATOM      2  N   UNL     1       1.669   8.554  20.890  0.00  0.00    +0.000 NA
ATOM      3  H   UNL     1       1.876   7.900  21.648  0.00  0.00    +0.000 HD
BRANCH   2   4
ATOM      4  C   UNL     1       0.266   8.996  21.021  0.00  0.00    +0.000 C 
BRANCH   4   5
ATOM      5  C   UNL     1       0.048  10.500  21.391  0.00  0.00    +0.000 C 
BRANCH   5   6
ATOM      6  C   UNL     1       0.454  11.495  20.290  0.00  0.00    +0.000 C 
BRANCH   6   7
ATOM      7  O   UNL     1      -0.675  12.263  19.773  0.00  0.00    +0.000 OA
BRANCH   7  13
ATOM      8  C   UNL     1      -2.949  11.717  19.036  0.00  0.00    +0.000 A 
ATOM      9  C   UNL     1      -3.789  10.997  18.149  0.00  0.00    +0.000 A 
ATOM     10  C   UNL     1      -3.274  10.122  17.200  0.00  0.00    +0.000 A 
ATOM     11  C   UNL     1      -1.901   9.937  17.126  0.00  0.00    +0.000 A 
ATOM     12  C   UNL     1      -1.053  10.643  17.988  0.00  0.00    +0.000 A 
ATOM     13  C   UNL     1      -1.543  11.565  18.939  0.00  0.00    +0.000 A 
BRANCH   8  15
ATOM     14  N   UNL     1      -3.149  12.736  21.258  0.00  0.00    +0.000 N 
ATOM     15  C   UNL     1      -3.683  12.568  20.024  0.00  0.00    +0.000 C 
ATOM     16  O   UNL     1      -4.764  13.086  19.751  0.00  0.00    +0.000 OA
ATOM     17  H   UNL     1      -3.675  13.294  21.925  0.00  0.00    +0.000 HD
ATOM     18  H   UNL     1      -2.269  12.315  21.527  0.00  0.00    +0.000 HD
ENDBRANCH   8  15
ENDBRANCH   7  13
ENDBRANCH   6   7
ENDBRANCH   5   6
ENDBRANCH   4   5
ENDBRANCH   2   4
ENDBRANCH   1   2
BRANCH   1  19
ATOM     19  C   UNL     1       2.937   6.677  19.772  0.00  0.00    +0.000 C 
BRANCH  19  20
ATOM     20  C   UNL     1       3.586   5.931  18.598  0.00  0.00    +0.000 A 
ATOM     21  C   UNL     1       2.794   5.301  17.635  0.00  0.00    +0.000 A 
ATOM     22  N   UNL     1       3.528   4.217  17.200  0.00  0.00    +0.000 N 
ATOM     23  C   UNL     1       4.837   4.648  17.152  0.00  0.00    +0.000 A 
ATOM     24  C   UNL     1       5.899   4.135  16.388  0.00  0.00    +0.000 A 
ATOM     25  C   UNL     1       7.175   4.541  16.740  0.00  0.00    +0.000 A 
ATOM     26  C   UNL     1       7.365   5.361  17.852  0.00  0.00    +0.000 A 
ATOM     27  C   UNL     1       6.272   5.865  18.605  0.00  0.00    +0.000 A 
ATOM     28  C   UNL     1       4.950   5.568  18.204  0.00  0.00    +0.000 A 
BRANCH  22  29
ATOM     29  C   UNL     1       3.232   2.838  17.632  0.00  0.00    +0.000 C 
BRANCH  29  30
ATOM     30  C   UNL     1       2.609   2.735  18.993  0.00  0.00    +0.000 A 
ATOM     31  C   UNL     1       3.406   2.612  20.144  0.00  0.00    +0.000 A 
ATOM     32  C   UNL     1       2.820   2.598  21.411  0.00  0.00    +0.000 A 
ATOM     33  C   UNL     1       1.439   2.715  21.543  0.00  0.00    +0.000 A 
ATOM     34  C   UNL     1       0.641   2.845  20.408  0.00  0.00    +0.000 A 
ATOM     35  C   UNL     1       1.221   2.856  19.141  0.00  0.00    +0.000 A 
ENDBRANCH  29  30
ENDBRANCH  22  29
ENDBRANCH  19  20
ENDBRANCH   1  19
TORSDOF 11
ENDMDL
MODEL 8
REMARK VINA RESULT:      -7.5      5.845      8.520
REMARK  Name = 
REMARK  11 active torsions:
REMARK  status: ('A' for Active; 'I' for Inactive)
REMARK    1  A    between atoms: C_2  and  C_4
REMARK    2  A    between atoms: C_9  and  O_10
REMARK    3  A    between atoms: O_10  and  C_11
REMARK    4  A    between atoms: C_11  and  C_12
REMARK    5  A    between atoms: C_12  and  C_13
REMARK    6  A    between atoms: C_13  and  N_14
REMARK    7  A    between atoms: N_14  and  C_15
REMARK    8  A    between atoms: C_15  and  C_16
REMARK    9  A    between atoms: C_16  and  C_17
REMARK   10  A    between atoms: N_19  and  C_20
REMARK   11  A    between atoms: C_20  and  C_21
REMARK                            x       y       z     vdW  Elec       q    Type
REMARK                         _______ _______ _______ _____ _____    ______ ____
ROOT
ATOM      1  C   UNL     1       8.215   6.760  18.725  0.00  0.00    +0.000 C 
ENDROOT
BRANCH   1   2
ATOM      2  N   UNL     1       7.421   7.672  17.824  0.00  0.00    +0.000 NA
ATOM      3  H   UNL     1       7.430   7.273  16.883  0.00  0.00    +0.000 HD
BRANCH   2   4
ATOM      4  C   UNL     1       7.968   9.043  17.759  0.00  0.00    +0.000 C 
BRANCH   4   5
ATOM      5  C   UNL     1       9.071   9.396  18.809  0.00  0.00    +0.000 C 
BRANCH   5   6
ATOM      6  C   UNL     1       9.116  10.880  19.215  0.00  0.00    +0.000 C 
BRANCH   6   7
ATOM      7  O   UNL     1       9.689  11.090  20.541  0.00  0.00    +0.000 OA
BRANCH   7  13
ATOM      8  C   UNL     1       9.161  13.003  21.981  0.00  0.00    +0.000 A 
ATOM      9  C   UNL     1       9.407  14.356  22.327  0.00  0.00    +0.000 A 
ATOM     10  C   UNL     1      10.315  15.139  21.625  0.00  0.00    +0.000 A 
ATOM     11  C   UNL     1      10.992  14.586  20.547  0.00  0.00    +0.000 A 
ATOM     12  C   UNL     1      10.769  13.250  20.193  0.00  0.00    +0.000 A 
ATOM     13  C   UNL     1       9.880  12.419  20.908  0.00  0.00    +0.000 A 
BRANCH   8  15
ATOM     14  N   UNL     1       8.458  11.243  23.538  0.00  0.00    +0.000 N 
ATOM     15  C   UNL     1       8.112  12.335  22.814  0.00  0.00    +0.000 C 
ATOM     16  O   UNL     1       6.950  12.735  22.830  0.00  0.00    +0.000 OA
ATOM     17  H   UNL     1       7.726  10.785  24.075  0.00  0.00    +0.000 HD
ATOM     18  H   UNL     1       9.399  10.874  23.541  0.00  0.00    +0.000 HD
ENDBRANCH   8  15
ENDBRANCH   7  13
ENDBRANCH   6   7
ENDBRANCH   5   6
ENDBRANCH   4   5
ENDBRANCH   2   4
ENDBRANCH   1   2
BRANCH   1  19
ATOM     19  C   UNL     1       7.318   5.662  19.350  0.00  0.00    +0.000 C 
BRANCH  19  20
ATOM     20  C   UNL     1       6.139   5.020  18.606  0.00  0.00    +0.000 A 
ATOM     21  C   UNL     1       6.358   4.264  17.451  0.00  0.00    +0.000 A 
ATOM     22  N   UNL     1       5.231   4.436  16.674  0.00  0.00    +0.000 N 
ATOM     23  C   UNL     1       4.170   4.454  17.555  0.00  0.00    +0.000 A 
ATOM     24  C   UNL     1       2.819   4.162  17.301  0.00  0.00    +0.000 A 
ATOM     25  C   UNL     1       1.905   4.544  18.269  0.00  0.00    +0.000 A 
ATOM     26  C   UNL     1       2.332   5.250  19.393  0.00  0.00    +0.000 A 
ATOM     27  C   UNL     1       3.705   5.531  19.623  0.00  0.00    +0.000 A 
ATOM     28  C   UNL     1       4.679   5.054  18.716  0.00  0.00    +0.000 A 
BRANCH  22  29
ATOM     29  C   UNL     1       5.213   5.323  15.496  0.00  0.00    +0.000 C 
BRANCH  29  30
ATOM     30  C   UNL     1       5.910   4.766  14.289  0.00  0.00    +0.000 A 
ATOM     31  C   UNL     1       5.283   3.808  13.473  0.00  0.00    +0.000 A 
ATOM     32  C   UNL     1       5.907   3.355  12.309  0.00  0.00    +0.000 A 
ATOM     33  C   UNL     1       7.152   3.858  11.944  0.00  0.00    +0.000 A 
ATOM     34  C   UNL     1       7.778   4.813  12.743  0.00  0.00    +0.000 A 
ATOM     35  C   UNL     1       7.161   5.265  13.908  0.00  0.00    +0.000 A 
ENDBRANCH  29  30
ENDBRANCH  22  29
ENDBRANCH  19  20
ENDBRANCH   1  19
TORSDOF 11
ENDMDL
MODEL 9
REMARK VINA RESULT:      -7.5      3.455     10.196
REMARK  Name = 
REMARK  11 active torsions:
REMARK  status: ('A' for Active; 'I' for Inactive)
REMARK    1  A    between atoms: C_2  and  C_4
REMARK    2  A    between atoms: C_9  and  O_10
REMARK    3  A    between atoms: O_10  and  C_11
REMARK    4  A    between atoms: C_11  and  C_12
REMARK    5  A    between atoms: C_12  and  C_13
REMARK    6  A    between atoms: C_13  and  N_14
REMARK    7  A    between atoms: N_14  and  C_15
REMARK    8  A    between atoms: C_15  and  C_16
REMARK    9  A    between atoms: C_16  and  C_17
REMARK   10  A    between atoms: N_19  and  C_20
REMARK   11  A    between atoms: C_20  and  C_21
REMARK                            x       y       z     vdW  Elec       q    Type
REMARK                         _______ _______ _______ _____ _____    ______ ____
ROOT
ATOM      1  C   UNL     1       2.270   7.653  19.425  0.00  0.00    +0.000 C 
ENDROOT
BRANCH   1   2
ATOM      2  N   UNL     1       1.972   6.234  19.009  0.00  0.00    +0.000 NA
ATOM      3  H   UNL     1       1.069   6.228  18.530  0.00  0.00    +0.000 HD
BRANCH   2   4
ATOM      4  C   UNL     1       1.908   5.296  20.148  0.00  0.00    +0.000 C 
BRANCH   4   5
ATOM      5  C   UNL     1       2.449   3.853  19.886  0.00  0.00    +0.000 C 
BRANCH   5   6
ATOM      6  C   UNL     1       3.981   3.755  19.774  0.00  0.00    +0.000 C 
BRANCH   6   7
ATOM      7  O   UNL     1       4.590   4.964  19.229  0.00  0.00    +0.000 OA
BRANCH   7  13
ATOM      8  C   UNL     1       6.715   5.133  18.018  0.00  0.00    +0.000 A 
ATOM      9  C   UNL     1       7.441   4.914  16.819  0.00  0.00    +0.000 A 
ATOM     10  C   UNL     1       6.836   4.395  15.681  0.00  0.00    +0.000 A 
ATOM     11  C   UNL     1       5.483   4.092  15.713  0.00  0.00    +0.000 A 
ATOM     12  C   UNL     1       4.750   4.294  16.888  0.00  0.00    +0.000 A 
ATOM     13  C   UNL     1       5.342   4.787  18.071  0.00  0.00    +0.000 A 
BRANCH   8  15
ATOM     14  N   UNL     1       8.242   6.863  18.849  0.00  0.00    +0.000 N 
ATOM     15  C   UNL     1       7.519   5.749  19.120  0.00  0.00    +0.000 C 
ATOM     16  O   UNL     1       7.561   5.253  20.243  0.00  0.00    +0.000 OA
ATOM     17  H   UNL     1       8.804   7.252  19.601  0.00  0.00    +0.000 HD
ATOM     18  H   UNL     1       8.246   7.295  17.935  0.00  0.00    +0.000 HD
ENDBRANCH   8  15
ENDBRANCH   7  13
ENDBRANCH   6   7
ENDBRANCH   5   6
ENDBRANCH   4   5
ENDBRANCH   2   4
ENDBRANCH   1   2
BRANCH   1  19
ATOM     19  C   UNL     1       1.850   8.664  18.329  0.00  0.00    +0.000 C 
BRANCH  19  20
ATOM     20  C   UNL     1       0.878   9.823  18.587  0.00  0.00    +0.000 A 
ATOM     21  C   UNL     1       1.222  10.853  19.466  0.00  0.00    +0.000 A 
ATOM     22  N   UNL     1       0.034  11.283  20.020  0.00  0.00    +0.000 N 
ATOM     23  C   UNL     1      -0.892  11.237  18.999  0.00  0.00    +0.000 A 
ATOM     24  C   UNL     1      -2.095  11.955  18.877  0.00  0.00    +0.000 A 
ATOM     25  C   UNL     1      -2.990  11.513  17.918  0.00  0.00    +0.000 A 
ATOM     26  C   UNL     1      -2.713  10.363  17.180  0.00  0.00    +0.000 A 
ATOM     27  C   UNL     1      -1.489   9.659  17.324  0.00  0.00    +0.000 A 
ATOM     28  C   UNL     1      -0.500  10.148  18.208  0.00  0.00    +0.000 A 
BRANCH  22  29
ATOM     29  C   UNL     1      -0.375  10.918  21.389  0.00  0.00    +0.000 C 
BRANCH  29  30
ATOM     30  C   UNL     1      -1.027  12.029  22.159  0.00  0.00    +0.000 A 
ATOM     31  C   UNL     1      -2.232  11.815  22.852  0.00  0.00    +0.000 A 
ATOM     32  C   UNL     1      -2.789  12.832  23.630  0.00  0.00    +0.000 A 
ATOM     33  C   UNL     1      -2.148  14.063  23.731  0.00  0.00    +0.000 A 
ATOM     34  C   UNL     1      -0.949  14.282  23.054  0.00  0.00    +0.000 A 
ATOM     35  C   UNL     1      -0.392  13.271  22.273  0.00  0.00    +0.000 A 
ENDBRANCH  29  30
ENDBRANCH  22  29
ENDBRANCH  19  20
ENDBRANCH   1  19
TORSDOF 11
ENDMDL
