MODEL 1
REMARK VINA RESULT:      -8.2      0.000      0.000
REMARK  Name = 
REMARK  8 active torsions:
REMARK  status: ('A' for Active; 'I' for Inactive)
REMARK    1  A    between atoms: O_1  and  C_2
REMARK    2  A    between atoms: C_2  and  C_3
REMARK    3  A    between atoms: C_5  and  C_6
REMARK    4  A    between atoms: C_11  and  C_12
REMARK    5  A    between atoms: C_12  and  C_13
REMARK    6  A    between atoms: C_21  and  O_22
REMARK    7  A    between atoms: C_23  and  O_24
REMARK    8  A    between atoms: C_25  and  O_26
REMARK                            x       y       z     vdW  Elec       q    Type
REMARK                         _______ _______ _______ _____ _____    ______ ____
ROOT
ATOM      1  C   UNL     1       1.014   8.992  21.237  0.00  0.00    +0.000 C 
ATOM      2  O   UNL     1       1.393   7.692  20.786  0.00  0.00    +0.000 OA
ATOM      3  C   UNL     1       2.261   7.734  19.652  0.00  0.00    +0.000 C 
ATOM      4  C   UNL     1       1.603   8.448  18.450  0.00  0.00    +0.000 C 
ATOM      5  C   UNL     1       1.018   9.804  18.873  0.00  0.00    +0.000 C 
ATOM      6  C   UNL     1       0.182   9.710  20.157  0.00  0.00    +0.000 C 
ENDROOT
BRANCH   3   7
ATOM      7  C   UNL     1       2.639   6.304  19.270  0.00  0.00    +0.000 A 
ATOM      8  C   UNL     1       1.657   5.305  19.266  0.00  0.00    +0.000 A 
ATOM      9  C   UNL     1       1.992   3.982  18.993  0.00  0.00    +0.000 A 
ATOM     10  C   UNL     1       3.311   3.634  18.693  0.00  0.00    +0.000 A 
ATOM     11 CL   UNL     1       3.641   1.969  18.381  0.00  0.00    +0.000 Cl
ATOM     12  C   UNL     1       4.314   4.615  18.657  0.00  0.00    +0.000 A 
ATOM     13  C   UNL     1       3.963   5.943  18.971  0.00  0.00    +0.000 A 
BRANCH  12  14
ATOM     14  C   UNL     1       5.759   4.312  18.328  0.00  0.00    +0.000 C 
BRANCH  14  15
ATOM     15  C   UNL     1       6.102   4.505  16.874  0.00  0.00    +0.000 A 
ATOM     16  C   UNL     1       5.309   3.973  15.863  0.00  0.00    +0.000 A 
ATOM     17  C   UNL     1       5.705   4.137  14.541  0.00  0.00    +0.000 A 
ATOM     18  C   UNL     1       6.872   4.831  14.300  0.00  0.00    +0.000 A 
ATOM     19 CL   UNL     1       7.465   5.061  12.711  0.00  0.00    +0.000 Cl
ATOM     20  N   UNL     1       7.621   5.364  15.284  0.00  0.00    +0.000 NA
ATOM     21  N   UNL     1       7.230   5.198  16.586  0.00  0.00    +0.000 NA
ENDBRANCH  14  15
ENDBRANCH  12  14
ENDBRANCH   3   7
BRANCH   4  22
ATOM     22  O   UNL     1       2.577   8.646  17.406  0.00  0.00    +0.000 OA
ATOM     23  H   UNL     1       2.218   9.297  16.776  0.00  0.00    +0.000 HD
ENDBRANCH   4  22
BRANCH   5  24
ATOM     24  O   UNL     1       0.267  10.341  17.771  0.00  0.00    +0.000 OA
ATOM     25  H   UNL     1       0.779  10.200  16.955  0.00  0.00    +0.000 HD
ENDBRANCH   5  24
BRANCH   6  26
ATOM     26  O   UNL     1      -0.196  11.034  20.537  0.00  0.00    +0.000 OA
ATOM     27  H   UNL     1      -1.113  10.999  20.887  0.00  0.00    +0.000 HD
ENDBRANCH   6  26
BRANCH   1  28
ATOM     28  C   UNL     1       0.218   8.838  22.544  0.00  0.00    +0.000 C 
BRANCH  28  29
ATOM     29  O   UNL     1       0.321  10.025  23.327  0.00  0.00    +0.000 OA
ATOM     30  H   UNL     1       0.912  10.629  22.840  0.00  0.00    +0.000 HD
ENDBRANCH  28  29
ENDBRANCH   1  28
TORSDOF 8
ENDMDL
MODEL 2
REMARK VINA RESULT:      -7.5      1.914      2.215
REMARK  Name = 
REMARK  8 active torsions:
REMARK  status: ('A' for Active; 'I' for Inactive)
REMARK    1  A    between atoms: O_1  and  C_2
REMARK    2  A    between atoms: C_2  and  C_3
REMARK    3  A    between atoms: C_5  and  C_6
REMARK    4  A    between atoms: C_11  and  C_12
REMARK    5  A    between atoms: C_12  and  C_13
REMARK    6  A    between atoms: C_21  and  O_22
REMARK    7  A    between atoms: C_23  and  O_24
REMARK    8  A    between atoms: C_25  and  O_26
REMARK                            x       y       z     vdW  Elec       q    Type
REMARK                         _______ _______ _______ _____ _____    ______ ____
ROOT
ATOM      1  C   UNL     1       0.600   9.237  21.458  0.00  0.00    +0.000 C 
ATOM      2  O   UNL     1       0.960   7.898  21.120  0.00  0.00    +0.000 OA
ATOM      3  C   UNL     1       1.965   7.838  20.105  0.00  0.00    +0.000 C 
ATOM      4  C   UNL     1       1.502   8.519  18.797  0.00  0.00    +0.000 C 
ATOM      5  C   UNL     1       0.945   9.923  19.080  0.00  0.00    +0.000 C 
ATOM      6  C   UNL     1      -0.050   9.937  20.248  0.00  0.00    +0.000 C 
ENDROOT
BRANCH   3   7
ATOM      7  C   UNL     1       2.307   6.373  19.840  0.00  0.00    +0.000 A 
ATOM      8  C   UNL     1       1.520   5.363  20.408  0.00  0.00    +0.000 A 
ATOM      9  C   UNL     1       1.856   4.023  20.241  0.00  0.00    +0.000 A 
ATOM     10  C   UNL     1       2.973   3.664  19.482  0.00  0.00    +0.000 A 
ATOM     11 CL   UNL     1       3.326   1.980  19.338  0.00  0.00    +0.000 Cl
ATOM     12  C   UNL     1       3.766   4.649  18.873  0.00  0.00    +0.000 A 
ATOM     13  C   UNL     1       3.430   6.001  19.082  0.00  0.00    +0.000 A 
BRANCH  12  14
ATOM     14  C   UNL     1       4.979   4.332  18.028  0.00  0.00    +0.000 C 
BRANCH  14  15
ATOM     15  C   UNL     1       5.979   5.456  17.959  0.00  0.00    +0.000 A 
ATOM     16  C   UNL     1       7.058   5.525  18.834  0.00  0.00    +0.000 A 
ATOM     17  C   UNL     1       7.917   6.615  18.757  0.00  0.00    +0.000 A 
ATOM     18  C   UNL     1       7.655   7.576  17.803  0.00  0.00    +0.000 A 
ATOM     19 CL   UNL     1       8.633   8.972  17.647  0.00  0.00    +0.000 Cl
ATOM     20  N   UNL     1       6.622   7.489  16.944  0.00  0.00    +0.000 NA
ATOM     21  N   UNL     1       5.775   6.416  17.023  0.00  0.00    +0.000 NA
ENDBRANCH  14  15
ENDBRANCH  12  14
ENDBRANCH   3   7
BRANCH   4  22
ATOM     22  O   UNL     1       2.608   8.615  17.878  0.00  0.00    +0.000 OA
ATOM     23  H   UNL     1       2.814   7.718  17.557  0.00  0.00    +0.000 HD
ENDBRANCH   4  22
BRANCH   5  24
ATOM     24  O   UNL     1       0.369  10.437  17.867  0.00  0.00    +0.000 OA
ATOM     25  H   UNL     1       0.129   9.684  17.299  0.00  0.00    +0.000 HD
ENDBRANCH   5  24
BRANCH   6  26
ATOM     26  O   UNL     1      -0.399  11.297  20.516  0.00  0.00    +0.000 OA
ATOM     27  H   UNL     1       0.274  11.872  20.091  0.00  0.00    +0.000 HD
ENDBRANCH   6  26
BRANCH   1  28
ATOM     28  C   UNL     1      -0.361   9.192  22.659  0.00  0.00    +0.000 C 
BRANCH  28  29
ATOM     29  O   UNL     1       0.281   9.705  23.824  0.00  0.00    +0.000 OA
ATOM     30  H   UNL     1      -0.426   9.925  24.458  0.00  0.00    +0.000 HD
ENDBRANCH  28  29
ENDBRANCH   1  28
TORSDOF 8
ENDMDL
MODEL 3
REMARK VINA RESULT:      -7.5      5.294      8.133
REMARK  Name = 
REMARK  8 active torsions:
REMARK  status: ('A' for Active; 'I' for Inactive)
REMARK    1  A    between atoms: O_1  and  C_2
REMARK    2  A    between atoms: C_2  and  C_3
REMARK    3  A    between atoms: C_5  and  C_6
REMARK    4  A    between atoms: C_11  and  C_12
REMARK    5  A    between atoms: C_12  and  C_13
REMARK    6  A    between atoms: C_21  and  O_22
REMARK    7  A    between atoms: C_23  and  O_24
REMARK    8  A    between atoms: C_25  and  O_26
REMARK                            x       y       z     vdW  Elec       q    Type
REMARK                         _______ _______ _______ _____ _____    ______ ____
ROOT
ATOM      1  C   UNL     1       2.420   3.485  17.899  0.00  0.00    +0.000 C 
ATOM      2  O   UNL     1       2.006   4.656  18.602  0.00  0.00    +0.000 OA
ATOM      3  C   UNL     1       2.763   5.812  18.241  0.00  0.00    +0.000 C 
ATOM      4  C   UNL     1       4.270   5.626  18.530  0.00  0.00    +0.000 C 
ATOM      5  C   UNL     1       4.781   4.302  17.942  0.00  0.00    +0.000 C 
ATOM      6  C   UNL     1       3.867   3.117  18.280  0.00  0.00    +0.000 C 
ENDROOT
BRANCH   3   7
ATOM      7  C   UNL     1       2.225   7.014  19.015  0.00  0.00    +0.000 A 
ATOM      8  C   UNL     1       2.074   6.932  20.404  0.00  0.00    +0.000 A 
ATOM      9  C   UNL     1       1.517   7.988  21.121  0.00  0.00    +0.000 A 
ATOM     10  C   UNL     1       1.122   9.157  20.465  0.00  0.00    +0.000 A 
ATOM     11 CL   UNL     1       0.427  10.410  21.428  0.00  0.00    +0.000 Cl
ATOM     12  C   UNL     1       1.288   9.284  19.077  0.00  0.00    +0.000 A 
ATOM     13  C   UNL     1       1.822   8.192  18.365  0.00  0.00    +0.000 A 
BRANCH  12  14
ATOM     14  C   UNL     1       0.895  10.524  18.306  0.00  0.00    +0.000 C 
BRANCH  14  15
ATOM     15  C   UNL     1      -0.592  10.678  18.123  0.00  0.00    +0.000 A 
ATOM     16  C   UNL     1      -1.335   9.752  17.399  0.00  0.00    +0.000 A 
ATOM     17  C   UNL     1      -2.695   9.976  17.219  0.00  0.00    +0.000 A 
ATOM     18  C   UNL     1      -3.241  11.112  17.779  0.00  0.00    +0.000 A 
ATOM     19 CL   UNL     1      -4.898  11.496  17.588  0.00  0.00    +0.000 Cl
ATOM     20  N   UNL     1      -2.518  11.990  18.498  0.00  0.00    +0.000 NA
ATOM     21  N   UNL     1      -1.178  11.770  18.672  0.00  0.00    +0.000 NA
ENDBRANCH  14  15
ENDBRANCH  12  14
ENDBRANCH   3   7
BRANCH   4  22
ATOM     22  O   UNL     1       5.015   6.725  17.968  0.00  0.00    +0.000 OA
ATOM     23  H   UNL     1       4.458   7.158  17.298  0.00  0.00    +0.000 HD
ENDBRANCH   4  22
BRANCH   5  24
ATOM     24  O   UNL     1       6.131   4.095  18.390  0.00  0.00    +0.000 OA
ATOM     25  H   UNL     1       6.518   4.961  18.607  0.00  0.00    +0.000 HD
ENDBRANCH   5  24
BRANCH   6  26
ATOM     26  O   UNL     1       4.350   1.971  17.576  0.00  0.00    +0.000 OA
ATOM     27  H   UNL     1       5.092   2.259  17.001  0.00  0.00    +0.000 HD
ENDBRANCH   6  26
BRANCH   1  28
ATOM     28  C   UNL     1       1.445   2.345  18.241  0.00  0.00    +0.000 C 
BRANCH  28  29
ATOM     29  O   UNL     1       2.083   1.386  19.081  0.00  0.00    +0.000 OA
ATOM     30  H   UNL     1       2.967   1.226  18.701  0.00  0.00    +0.000 HD
ENDBRANCH  28  29
ENDBRANCH   1  28
TORSDOF 8
ENDMDL
MODEL 4
REMARK VINA RESULT:      -7.3      1.044      1.234
REMARK  Name = 
REMARK  8 active torsions:
REMARK  status: ('A' for Active; 'I' for Inactive)
REMARK    1  A    between atoms: O_1  and  C_2
REMARK    2  A    between atoms: C_2  and  C_3
REMARK    3  A    between atoms: C_5  and  C_6
REMARK    4  A    between atoms: C_11  and  C_12
REMARK    5  A    between atoms: C_12  and  C_13
REMARK    6  A    between atoms: C_21  and  O_22
REMARK    7  A    between atoms: C_23  and  O_24
REMARK    8  A    between atoms: C_25  and  O_26
REMARK                            x       y       z     vdW  Elec       q    Type
REMARK                         _______ _______ _______ _____ _____    ______ ____
ROOT
ATOM      1  C   UNL     1       0.716   9.158  21.433  0.00  0.00    +0.000 C 
ATOM      2  O   UNL     1       0.997   7.803  21.082  0.00  0.00    +0.000 OA
ATOM      3  C   UNL     1       2.026   7.692  20.098  0.00  0.00    +0.000 C 
ATOM      4  C   UNL     1       1.652   8.423  18.789  0.00  0.00    +0.000 C 
ATOM      5  C   UNL     1       1.180   9.856  19.079  0.00  0.00    +0.000 C 
ATOM      6  C   UNL     1       0.153   9.919  20.217  0.00  0.00    +0.000 C 
ENDROOT
BRANCH   3   7
ATOM      7  C   UNL     1       2.279   6.211  19.817  0.00  0.00    +0.000 A 
ATOM      8  C   UNL     1       1.201   5.318  19.789  0.00  0.00    +0.000 A 
ATOM      9  C   UNL     1       1.415   3.954  19.609  0.00  0.00    +0.000 A 
ATOM     10  C   UNL     1       2.710   3.459  19.427  0.00  0.00    +0.000 A 
ATOM     11 CL   UNL     1       2.886   1.754  19.225  0.00  0.00    +0.000 Cl
ATOM     12  C   UNL     1       3.809   4.332  19.418  0.00  0.00    +0.000 A 
ATOM     13  C   UNL     1       3.576   5.703  19.637  0.00  0.00    +0.000 A 
BRANCH  12  14
ATOM     14  C   UNL     1       5.234   3.868  19.215  0.00  0.00    +0.000 C 
BRANCH  14  15
ATOM     15  C   UNL     1       5.759   4.116  17.825  0.00  0.00    +0.000 A 
ATOM     16  C   UNL     1       7.022   4.658  17.611  0.00  0.00    +0.000 A 
ATOM     17  C   UNL     1       7.431   4.915  16.307  0.00  0.00    +0.000 A 
ATOM     18  C   UNL     1       6.556   4.611  15.286  0.00  0.00    +0.000 A 
ATOM     19 CL   UNL     1       6.949   4.919  13.649  0.00  0.00    +0.000 Cl
ATOM     20  N   UNL     1       5.344   4.065  15.501  0.00  0.00    +0.000 NA
ATOM     21  N   UNL     1       4.942   3.814  16.786  0.00  0.00    +0.000 NA
ENDBRANCH  14  15
ENDBRANCH  12  14
ENDBRANCH   3   7
BRANCH   4  22
ATOM     22  O   UNL     1       2.790   8.459  17.905  0.00  0.00    +0.000 OA
ATOM     23  H   UNL     1       3.310   7.647  18.048  0.00  0.00    +0.000 HD
ENDBRANCH   4  22
BRANCH   5  24
ATOM     24  O   UNL     1       0.678  10.427  17.859  0.00  0.00    +0.000 OA
ATOM     25  H   UNL     1       0.224   9.727  17.358  0.00  0.00    +0.000 HD
ENDBRANCH   5  24
BRANCH   6  26
ATOM     26  O   UNL     1      -0.113  11.294  20.498  0.00  0.00    +0.000 OA
ATOM     27  H   UNL     1       0.738  11.726  20.729  0.00  0.00    +0.000 HD
ENDBRANCH   6  26
BRANCH   1  28
ATOM     28  C   UNL     1      -0.283   9.158  22.603  0.00  0.00    +0.000 C 
BRANCH  28  29
ATOM     29  O   UNL     1      -0.127  10.340  23.384  0.00  0.00    +0.000 OA
ATOM     30  H   UNL     1      -0.413  10.115  24.289  0.00  0.00    +0.000 HD
ENDBRANCH  28  29
ENDBRANCH   1  28
TORSDOF 8
ENDMDL
MODEL 5
REMARK VINA RESULT:      -7.1      5.229      8.134
REMARK  Name = 
REMARK  8 active torsions:
REMARK  status: ('A' for Active; 'I' for Inactive)
REMARK    1  A    between atoms: O_1  and  C_2
REMARK    2  A    between atoms: C_2  and  C_3
REMARK    3  A    between atoms: C_5  and  C_6
REMARK    4  A    between atoms: C_11  and  C_12
REMARK    5  A    between atoms: C_12  and  C_13
REMARK    6  A    between atoms: C_21  and  O_22
REMARK    7  A    between atoms: C_23  and  O_24
REMARK    8  A    between atoms: C_25  and  O_26
REMARK                            x       y       z     vdW  Elec       q    Type
REMARK                         _______ _______ _______ _____ _____    ______ ____
ROOT
ATOM      1  C   UNL     1       3.467   3.801  17.480  0.00  0.00    +0.000 C 
ATOM      2  O   UNL     1       2.919   4.806  18.333  0.00  0.00    +0.000 OA
ATOM      3  C   UNL     1       2.998   6.114  17.763  0.00  0.00    +0.000 C 
ATOM      4  C   UNL     1       4.458   6.526  17.468  0.00  0.00    +0.000 C 
ATOM      5  C   UNL     1       5.188   5.427  16.681  0.00  0.00    +0.000 C 
ATOM      6  C   UNL     1       4.978   4.032  17.285  0.00  0.00    +0.000 C 
ENDROOT
BRANCH   3   7
ATOM      7  C   UNL     1       2.356   7.109  18.728  0.00  0.00    +0.000 A 
ATOM      8  C   UNL     1       2.171   6.752  20.069  0.00  0.00    +0.000 A 
ATOM      9  C   UNL     1       1.522   7.613  20.950  0.00  0.00    +0.000 A 
ATOM     10  C   UNL     1       1.068   8.861  20.513  0.00  0.00    +0.000 A 
ATOM     11 CL   UNL     1       0.262   9.860  21.666  0.00  0.00    +0.000 Cl
ATOM     12  C   UNL     1       1.267   9.263  19.183  0.00  0.00    +0.000 A 
ATOM     13  C   UNL     1       1.894   8.363  18.298  0.00  0.00    +0.000 A 
BRANCH  12  14
ATOM     14  C   UNL     1       0.814  10.602  18.645  0.00  0.00    +0.000 C 
BRANCH  14  15
ATOM     15  C   UNL     1      -0.667  10.680  18.384  0.00  0.00    +0.000 A 
ATOM     16  C   UNL     1      -1.295   9.816  17.492  0.00  0.00    +0.000 A 
ATOM     17  C   UNL     1      -2.655   9.971  17.252  0.00  0.00    +0.000 A 
ATOM     18  C   UNL     1      -3.317  10.979  17.920  0.00  0.00    +0.000 A 
ATOM     19 CL   UNL     1      -4.984  11.275  17.670  0.00  0.00    +0.000 Cl
ATOM     20  N   UNL     1      -2.706  11.795  18.800  0.00  0.00    +0.000 NA
ATOM     21  N   UNL     1      -1.365  11.643  19.034  0.00  0.00    +0.000 NA
ENDBRANCH  14  15
ENDBRANCH  12  14
ENDBRANCH   3   7
BRANCH   4  22
ATOM     22  O   UNL     1       4.477   7.754  16.715  0.00  0.00    +0.000 OA
ATOM     23  H   UNL     1       3.609   7.860  16.286  0.00  0.00    +0.000 HD
ENDBRANCH   4  22
BRANCH   5  24
ATOM     24  O   UNL     1       6.579   5.779  16.590  0.00  0.00    +0.000 OA
ATOM     25  H   UNL     1       6.867   5.651  15.670  0.00  0.00    +0.000 HD
ENDBRANCH   5  24
BRANCH   6  26
ATOM     26  O   UNL     1       5.577   3.076  16.408  0.00  0.00    +0.000 OA
ATOM     27  H   UNL     1       4.904   2.811  15.743  0.00  0.00    +0.000 HD
ENDBRANCH   6  26
BRANCH   1  28
ATOM     28  C   UNL     1       3.190   2.426  18.112  0.00  0.00    +0.000 C 
BRANCH  28  29
ATOM     29  O   UNL     1       4.347   1.959  18.803  0.00  0.00    +0.000 OA
ATOM     30  H   UNL     1       4.352   2.404  19.671  0.00  0.00    +0.000 HD
ENDBRANCH  28  29
ENDBRANCH   1  28
TORSDOF 8
ENDMDL
MODEL 6
REMARK VINA RESULT:      -7.1      5.182      8.117
REMARK  Name = 
REMARK  8 active torsions:
REMARK  status: ('A' for Active; 'I' for Inactive)
REMARK    1  A    between atoms: O_1  and  C_2
REMARK    2  A    between atoms: C_2  and  C_3
REMARK    3  A    between atoms: C_5  and  C_6
REMARK    4  A    between atoms: C_11  and  C_12
REMARK    5  A    between atoms: C_12  and  C_13
REMARK    6  A    between atoms: C_21  and  O_22
REMARK    7  A    between atoms: C_23  and  O_24
REMARK    8  A    between atoms: C_25  and  O_26
REMARK                            x       y       z     vdW  Elec       q    Type
REMARK                         _______ _______ _______ _____ _____    ______ ____
ROOT
ATOM      1  C   UNL     1       4.928   5.712  17.717  0.00  0.00    +0.000 C 
ATOM      2  O   UNL     1       4.049   6.700  18.253  0.00  0.00    +0.000 OA
ATOM      3  C   UNL     1       3.078   6.148  19.143  0.00  0.00    +0.000 C 
ATOM      4  C   UNL     1       2.190   5.094  18.443  0.00  0.00    +0.000 C 
ATOM      5  C   UNL     1       3.050   4.063  17.697  0.00  0.00    +0.000 C 
ATOM      6  C   UNL     1       4.142   4.718  16.840  0.00  0.00    +0.000 C 
ENDROOT
BRANCH   3   7
ATOM      7  C   UNL     1       2.213   7.282  19.691  0.00  0.00    +0.000 A 
ATOM      8  C   UNL     1       1.702   7.198  20.992  0.00  0.00    +0.000 A 
ATOM      9  C   UNL     1       0.853   8.184  21.485  0.00  0.00    +0.000 A 
ATOM     10  C   UNL     1       0.517   9.287  20.697  0.00  0.00    +0.000 A 
ATOM     11 CL   UNL     1      -0.554  10.455  21.382  0.00  0.00    +0.000 Cl
ATOM     12  C   UNL     1       1.037   9.418  19.400  0.00  0.00    +0.000 A 
ATOM     13  C   UNL     1       1.866   8.393  18.905  0.00  0.00    +0.000 A 
BRANCH  12  14
ATOM     14  C   UNL     1       0.726  10.591  18.497  0.00  0.00    +0.000 C 
BRANCH  14  15
ATOM     15  C   UNL     1      -0.729  10.698  18.122  0.00  0.00    +0.000 A 
ATOM     16  C   UNL     1      -1.368   9.701  17.392  0.00  0.00    +0.000 A 
ATOM     17  C   UNL     1      -2.698   9.880  17.031  0.00  0.00    +0.000 A 
ATOM     18  C   UNL     1      -3.321  11.045  17.423  0.00  0.00    +0.000 A 
ATOM     19 CL   UNL     1      -4.946  11.378  17.001  0.00  0.00    +0.000 Cl
ATOM     20  N   UNL     1      -2.702  11.995  18.150  0.00  0.00    +0.000 NA
ATOM     21  N   UNL     1      -1.391  11.818  18.504  0.00  0.00    +0.000 NA
ENDBRANCH  14  15
ENDBRANCH  12  14
ENDBRANCH   3   7
BRANCH   4  22
ATOM     22  O   UNL     1       1.367   4.422  19.418  0.00  0.00    +0.000 OA
ATOM     23  H   UNL     1       1.918   4.228  20.197  0.00  0.00    +0.000 HD
ENDBRANCH   4  22
BRANCH   5  24
ATOM     24  O   UNL     1       2.182   3.219  16.922  0.00  0.00    +0.000 OA
ATOM     25  H   UNL     1       1.592   2.744  17.534  0.00  0.00    +0.000 HD
ENDBRANCH   5  24
BRANCH   6  26
ATOM     26  O   UNL     1       4.965   3.680  16.304  0.00  0.00    +0.000 OA
ATOM     27  H   UNL     1       4.401   3.107  15.740  0.00  0.00    +0.000 HD
ENDBRANCH   6  26
BRANCH   1  28
ATOM     28  C   UNL     1       6.023   6.426  16.906  0.00  0.00    +0.000 C 
BRANCH  28  29
ATOM     29  O   UNL     1       5.609   6.585  15.551  0.00  0.00    +0.000 OA
ATOM     30  H   UNL     1       5.256   7.491  15.472  0.00  0.00    +0.000 HD
ENDBRANCH  28  29
ENDBRANCH   1  28
TORSDOF 8
ENDMDL
MODEL 7
REMARK VINA RESULT:      -7.0      4.964      8.115
REMARK  Name = 
REMARK  8 active torsions:
REMARK  status: ('A' for Active; 'I' for Inactive)
REMARK    1  A    between atoms: O_1  and  C_2
REMARK    2  A    between atoms: C_2  and  C_3
REMARK    3  A    between atoms: C_5  and  C_6
REMARK    4  A    between atoms: C_11  and  C_12
REMARK    5  A    between atoms: C_12  and  C_13
REMARK    6  A    between atoms: C_21  and  O_22
REMARK    7  A    between atoms: C_23  and  O_24
REMARK    8  A    between atoms: C_25  and  O_26
REMARK                            x       y       z     vdW  Elec       q    Type
REMARK                         _______ _______ _______ _____ _____    ______ ____
ROOT
ATOM      1  C   UNL     1       3.844   4.007  18.011  0.00  0.00    +0.000 C 
ATOM      2  O   UNL     1       3.245   5.044  18.786  0.00  0.00    +0.000 OA
ATOM      3  C   UNL     1       2.973   6.219  18.019  0.00  0.00    +0.000 C 
ATOM      4  C   UNL     1       4.260   6.811  17.400  0.00  0.00    +0.000 C 
ATOM      5  C   UNL     1       5.065   5.726  16.669  0.00  0.00    +0.000 C 
ATOM      6  C   UNL     1       5.231   4.451  17.506  0.00  0.00    +0.000 C 
ENDROOT
BRANCH   3   7
ATOM      7  C   UNL     1       2.302   7.251  18.923  0.00  0.00    +0.000 A 
ATOM      8  C   UNL     1       2.058   6.942  20.266  0.00  0.00    +0.000 A 
ATOM      9  C   UNL     1       1.382   7.838  21.089  0.00  0.00    +0.000 A 
ATOM     10  C   UNL     1       0.959   9.074  20.592  0.00  0.00    +0.000 A 
ATOM     11 CL   UNL     1       0.116  10.119  21.677  0.00  0.00    +0.000 Cl
ATOM     12  C   UNL     1       1.216   9.429  19.258  0.00  0.00    +0.000 A 
ATOM     13  C   UNL     1       1.870   8.494  18.432  0.00  0.00    +0.000 A 
BRANCH  12  14
ATOM     14  C   UNL     1       0.799  10.753  18.658  0.00  0.00    +0.000 C 
BRANCH  14  15
ATOM     15  C   UNL     1      -0.683  10.867  18.416  0.00  0.00    +0.000 A 
ATOM     16  C   UNL     1      -1.450  11.841  19.046  0.00  0.00    +0.000 A 
ATOM     17  C   UNL     1      -2.822  11.864  18.825  0.00  0.00    +0.000 A 
ATOM     18  C   UNL     1      -3.354  10.914  17.979  0.00  0.00    +0.000 A 
ATOM     19 CL   UNL     1      -5.035  10.835  17.665  0.00  0.00    +0.000 Cl
ATOM     20  N   UNL     1      -2.601   9.989  17.354  0.00  0.00    +0.000 NA
ATOM     21  N   UNL     1      -1.249   9.967  17.575  0.00  0.00    +0.000 NA
ENDBRANCH  14  15
ENDBRANCH  12  14
ENDBRANCH   3   7
BRANCH   4  22
ATOM     22  O   UNL     1       3.919   7.865  16.477  0.00  0.00    +0.000 OA
ATOM     23  H   UNL     1       3.235   8.421  16.892  0.00  0.00    +0.000 HD
ENDBRANCH   4  22
BRANCH   5  24
ATOM     24  O   UNL     1       6.327   6.286  16.270  0.00  0.00    +0.000 OA
ATOM     25  H   UNL     1       6.273   6.522  15.327  0.00  0.00    +0.000 HD
ENDBRANCH   5  24
BRANCH   6  26
ATOM     26  O   UNL     1       5.866   3.465  16.690  0.00  0.00    +0.000 OA
ATOM     27  H   UNL     1       5.187   2.807  16.426  0.00  0.00    +0.000 HD
ENDBRANCH   6  26
BRANCH   1  28
ATOM     28  C   UNL     1       3.946   2.746  18.885  0.00  0.00    +0.000 C 
BRANCH  28  29
ATOM     29  O   UNL     1       5.222   2.687  19.520  0.00  0.00    +0.000 OA
ATOM     30  H   UNL     1       5.770   3.380  19.107  0.00  0.00    +0.000 HD
ENDBRANCH  28  29
ENDBRANCH   1  28
TORSDOF 8
ENDMDL
MODEL 8
REMARK VINA RESULT:      -6.9      5.225      8.544
REMARK  Name = 
REMARK  8 active torsions:
REMARK  status: ('A' for Active; 'I' for Inactive)
REMARK    1  A    between atoms: O_1  and  C_2
REMARK    2  A    between atoms: C_2  and  C_3
REMARK    3  A    between atoms: C_5  and  C_6
REMARK    4  A    between atoms: C_11  and  C_12
REMARK    5  A    between atoms: C_12  and  C_13
REMARK    6  A    between atoms: C_21  and  O_22
REMARK    7  A    between atoms: C_23  and  O_24
REMARK    8  A    between atoms: C_25  and  O_26
REMARK                            x       y       z     vdW  Elec       q    Type
REMARK                         _______ _______ _______ _____ _____    ______ ____
ROOT
ATOM      1  C   UNL     1       5.023   5.095  19.042  0.00  0.00    +0.000 C 
ATOM      2  O   UNL     1       4.136   6.186  18.796  0.00  0.00    +0.000 OA
ATOM      3  C   UNL     1       3.073   6.257  19.748  0.00  0.00    +0.000 C 
ATOM      4  C   UNL     1       2.213   4.973  19.746  0.00  0.00    +0.000 C 
ATOM      5  C   UNL     1       3.098   3.722  19.850  0.00  0.00    +0.000 C 
ATOM      6  C   UNL     1       4.281   3.755  18.874  0.00  0.00    +0.000 C 
ENDROOT
BRANCH   3   7
ATOM      7  C   UNL     1       2.204   7.471  19.424  0.00  0.00    +0.000 A 
ATOM      8  C   UNL     1       2.180   7.977  18.118  0.00  0.00    +0.000 A 
ATOM      9  C   UNL     1       1.454   9.125  17.816  0.00  0.00    +0.000 A 
ATOM     10  C   UNL     1       0.716   9.777  18.808  0.00  0.00    +0.000 A 
ATOM     11 CL   UNL     1      -0.143  11.202  18.350  0.00  0.00    +0.000 Cl
ATOM     12  C   UNL     1       0.694   9.279  20.120  0.00  0.00    +0.000 A 
ATOM     13  C   UNL     1       1.463   8.136  20.414  0.00  0.00    +0.000 A 
BRANCH  12  14
ATOM     14  C   UNL     1      -0.092   9.925  21.239  0.00  0.00    +0.000 C 
BRANCH  14  15
ATOM     15  C   UNL     1       0.216  11.387  21.428  0.00  0.00    +0.000 A 
ATOM     16  C   UNL     1      -0.778  12.305  21.750  0.00  0.00    +0.000 A 
ATOM     17  C   UNL     1      -0.443  13.649  21.860  0.00  0.00    +0.000 A 
ATOM     18  C   UNL     1       0.873  14.004  21.647  0.00  0.00    +0.000 A 
ATOM     19 CL   UNL     1       1.383  15.636  21.725  0.00  0.00    +0.000 Cl
ATOM     20  N   UNL     1       1.834  13.106  21.359  0.00  0.00    +0.000 NA
ATOM     21  N   UNL     1       1.501  11.782  21.249  0.00  0.00    +0.000 NA
ENDBRANCH  14  15
ENDBRANCH  12  14
ENDBRANCH   3   7
BRANCH   4  22
ATOM     22  O   UNL     1       1.287   5.003  20.851  0.00  0.00    +0.000 OA
ATOM     23  H   UNL     1       1.232   4.106  21.225  0.00  0.00    +0.000 HD
ENDBRANCH   4  22
BRANCH   5  24
ATOM     24  O   UNL     1       2.270   2.561  19.665  0.00  0.00    +0.000 OA
ATOM     25  H   UNL     1       2.313   2.022  20.474  0.00  0.00    +0.000 HD
ENDBRANCH   5  24
BRANCH   6  26
ATOM     26  O   UNL     1       5.111   2.624  19.145  0.00  0.00    +0.000 OA
ATOM     27  H   UNL     1       6.039   2.874  18.944  0.00  0.00    +0.000 HD
ENDBRANCH   6  26
BRANCH   1  28
ATOM     28  C   UNL     1       6.207   5.204  18.067  0.00  0.00    +0.000 C 
BRANCH  28  29
ATOM     29  O   UNL     1       7.206   4.240  18.394  0.00  0.00    +0.000 OA
ATOM     30  H   UNL     1       8.035   4.734  18.532  0.00  0.00    +0.000 HD
ENDBRANCH  28  29
ENDBRANCH   1  28
TORSDOF 8
ENDMDL
MODEL 9
REMARK VINA RESULT:      -6.8      2.032      2.151
REMARK  Name = 
REMARK  8 active torsions:
REMARK  status: ('A' for Active; 'I' for Inactive)
REMARK    1  A    between atoms: O_1  and  C_2
REMARK    2  A    between atoms: C_2  and  C_3
REMARK    3  A    between atoms: C_5  and  C_6
REMARK    4  A    between atoms: C_11  and  C_12
REMARK    5  A    between atoms: C_12  and  C_13
REMARK    6  A    between atoms: C_21  and  O_22
REMARK    7  A    between atoms: C_23  and  O_24
REMARK    8  A    between atoms: C_25  and  O_26
REMARK                            x       y       z     vdW  Elec       q    Type
REMARK                         _______ _______ _______ _____ _____    ______ ____
ROOT
ATOM      1  C   UNL     1       0.553   9.366  21.711  0.00  0.00    +0.000 C 
ATOM      2  O   UNL     1       0.815   8.000  21.392  0.00  0.00    +0.000 OA
ATOM      3  C   UNL     1       1.808   7.852  20.375  0.00  0.00    +0.000 C 
ATOM      4  C   UNL     1       1.391   8.546  19.059  0.00  0.00    +0.000 C 
ATOM      5  C   UNL     1       0.936   9.989  19.321  0.00  0.00    +0.000 C 
ATOM      6  C   UNL     1      -0.050  10.092  20.493  0.00  0.00    +0.000 C 
ENDROOT
BRANCH   3   7
ATOM      7  C   UNL     1       2.044   6.363  20.132  0.00  0.00    +0.000 A 
ATOM      8  C   UNL     1       1.055   5.437  20.489  0.00  0.00    +0.000 A 
ATOM      9  C   UNL     1       1.278   4.071  20.344  0.00  0.00    +0.000 A 
ATOM     10  C   UNL     1       2.484   3.603  19.817  0.00  0.00    +0.000 A 
ATOM     11 CL   UNL     1       2.682   1.893  19.686  0.00  0.00    +0.000 Cl
ATOM     12  C   UNL     1       3.483   4.504  19.419  0.00  0.00    +0.000 A 
ATOM     13  C   UNL     1       3.254   5.882  19.606  0.00  0.00    +0.000 A 
BRANCH  12  14
ATOM     14  C   UNL     1       4.806   4.069  18.829  0.00  0.00    +0.000 C 
BRANCH  14  15
ATOM     15  C   UNL     1       5.716   5.214  18.470  0.00  0.00    +0.000 A 
ATOM     16  C   UNL     1       5.453   6.038  17.381  0.00  0.00    +0.000 A 
ATOM     17  C   UNL     1       6.358   7.046  17.067  0.00  0.00    +0.000 A 
ATOM     18  C   UNL     1       7.475   7.180  17.864  0.00  0.00    +0.000 A 
ATOM     19 CL   UNL     1       8.665   8.367  17.545  0.00  0.00    +0.000 Cl
ATOM     20  N   UNL     1       7.709   6.393  18.931  0.00  0.00    +0.000 NA
ATOM     21  N   UNL     1       6.818   5.399  19.238  0.00  0.00    +0.000 NA
ENDBRANCH  14  15
ENDBRANCH  12  14
ENDBRANCH   3   7
BRANCH   4  22
ATOM     22  O   UNL     1       2.497   8.547  18.135  0.00  0.00    +0.000 OA
ATOM     23  H   UNL     1       2.547   9.429  17.724  0.00  0.00    +0.000 HD
ENDBRANCH   4  22
BRANCH   5  24
ATOM     24  O   UNL     1       0.394  10.526  18.103  0.00  0.00    +0.000 OA
ATOM     25  H   UNL     1       0.929  11.296  17.842  0.00  0.00    +0.000 HD
ENDBRANCH   5  24
BRANCH   6  26
ATOM     26  O   UNL     1      -0.299  11.478  20.740  0.00  0.00    +0.000 OA
ATOM     27  H   UNL     1      -0.095  11.658  21.684  0.00  0.00    +0.000 HD
ENDBRANCH   6  26
BRANCH   1  28
ATOM     28  C   UNL     1      -0.403   9.408  22.915  0.00  0.00    +0.000 C 
BRANCH  28  29
ATOM     29  O   UNL     1      -0.469  10.729  23.447  0.00  0.00    +0.000 OA
ATOM     30  H   UNL     1       0.432  11.098  23.389  0.00  0.00    +0.000 HD
ENDBRANCH  28  29
ENDBRANCH   1  28
TORSDOF 8
ENDMDL
