MODEL 1
REMARK VINA RESULT:      -8.4      0.000      0.000
REMARK  Name = 
REMARK  6 active torsions:
REMARK  status: ('A' for Active; 'I' for Inactive)
REMARK    1  A    between atoms: C_1  and  C_2
REMARK    2  A    between atoms: C_4  and  O_5
REMARK    3  A    between atoms: O_5  and  C_6
REMARK    4  A    between atoms: C_17  and  C_18
REMARK    5  A    between atoms: C_19  and  C_20
REMARK    6  A    between atoms: C_25  and  C_26
REMARK                            x       y       z     vdW  Elec       q    Type
REMARK                         _______ _______ _______ _____ _____    ______ ____
ROOT
ATOM      1  C   UNL     1       0.568   8.505  21.531  0.00  0.00    +0.000 C 
ATOM      2  C   UNL     1       1.156   8.671  20.154  0.00  0.00    +0.000 A 
ATOM      3  C   UNL     1       2.120   7.689  19.803  0.00  0.00    +0.000 A 
ATOM      4  C   UNL     1       2.677   7.622  18.530  0.00  0.00    +0.000 A 
ATOM      5  C   UNL     1       2.292   8.568  17.598  0.00  0.00    +0.000 A 
ATOM      6  C   UNL     1       1.453   9.622  17.973  0.00  0.00    +0.000 A 
ATOM      7  C   UNL     1       0.821   9.704  19.235  0.00  0.00    +0.000 A 
ENDROOT
BRANCH   7   8
ATOM      8  C   UNL     1      -0.141  10.846  19.472  0.00  0.00    +0.000 A 
ATOM      9  C   UNL     1       0.209  12.033  20.151  0.00  0.00    +0.000 A 
ATOM     10  C   UNL     1       1.560  12.340  20.723  0.00  0.00    +0.000 C 
ATOM     11  N   UNL     1      -0.651  13.066  20.358  0.00  0.00    +0.000 NA
ATOM     12  C   UNL     1      -1.879  13.004  19.822  0.00  0.00    +0.000 A 
ATOM     13  N   UNL     1      -2.322  11.947  19.086  0.00  0.00    +0.000 N 
ATOM     14  O   UNL     1      -3.485  11.995  18.562  0.00  0.00    +0.000 OA
ATOM     15  C   UNL     1      -1.472  10.839  18.928  0.00  0.00    +0.000 A 
ATOM     16  C   UNL     1      -2.068   9.710  18.129  0.00  0.00    +0.000 C 
ENDBRANCH   7   8
BRANCH   4  17
ATOM     17  O   UNL     1       3.512   6.558  18.290  0.00  0.00    +0.000 OA
BRANCH  17  18
ATOM     18  C   UNL     1       2.997   5.277  18.342  0.00  0.00    +0.000 A 
ATOM     19  N   UNL     1       1.740   4.971  17.879  0.00  0.00    +0.000 NA
ATOM     20  C   UNL     1       1.262   3.676  17.953  0.00  0.00    +0.000 A 
ATOM     21  C   UNL     1       1.916   2.539  18.442  0.00  0.00    +0.000 A 
ATOM     22  C   UNL     1       3.209   2.844  18.872  0.00  0.00    +0.000 A 
ATOM     23  N   UNL     1       4.165   2.043  19.388  0.00  0.00    +0.000 NA
ATOM     24  N   UNL     1       5.215   2.859  19.624  0.00  0.00    +0.000 N 
ATOM     25  C   UNL     1       5.001   4.167  19.295  0.00  0.00    +0.000 A 
ATOM     26  C   UNL     1       3.721   4.181  18.811  0.00  0.00    +0.000 A 
ATOM     27  H   UNL     1       6.054   2.446  20.023  0.00  0.00    +0.000 HD
ENDBRANCH  17  18
ENDBRANCH   4  17
TORSDOF 3
ENDMDL
MODEL 2
REMARK VINA RESULT:      -8.3      1.677      2.440
REMARK  Name = 
REMARK  6 active torsions:
REMARK  status: ('A' for Active; 'I' for Inactive)
REMARK    1  A    between atoms: C_1  and  C_2
REMARK    2  A    between atoms: C_4  and  O_5
REMARK    3  A    between atoms: O_5  and  C_6
REMARK    4  A    between atoms: C_17  and  C_18
REMARK    5  A    between atoms: C_19  and  C_20
REMARK    6  A    between atoms: C_25  and  C_26
REMARK                            x       y       z     vdW  Elec       q    Type
REMARK                         _______ _______ _______ _____ _____    ______ ____
ROOT
ATOM      1  C   UNL     1       0.050   9.051  21.725  0.00  0.00    +0.000 C 
ATOM      2  C   UNL     1       0.849   8.926  20.454  0.00  0.00    +0.000 A 
ATOM      3  C   UNL     1       1.698   7.789  20.400  0.00  0.00    +0.000 A 
ATOM      4  C   UNL     1       2.417   7.457  19.256  0.00  0.00    +0.000 A 
ATOM      5  C   UNL     1       2.314   8.287  18.156  0.00  0.00    +0.000 A 
ATOM      6  C   UNL     1       1.595   9.484  18.244  0.00  0.00    +0.000 A 
ATOM      7  C   UNL     1       0.806   9.838  19.363  0.00  0.00    +0.000 A 
ENDROOT
BRANCH   7   8
ATOM      8  C   UNL     1      -0.000  11.115  19.284  0.00  0.00    +0.000 A 
ATOM      9  C   UNL     1      -1.288  11.190  18.713  0.00  0.00    +0.000 A 
ATOM     10  C   UNL     1      -2.042  10.041  18.115  0.00  0.00    +0.000 C 
ATOM     11  N   UNL     1      -2.020  12.335  18.647  0.00  0.00    +0.000 NA
ATOM     12  C   UNL     1      -1.539  13.445  19.228  0.00  0.00    +0.000 A 
ATOM     13  N   UNL     1      -0.340  13.493  19.873  0.00  0.00    +0.000 N 
ATOM     14  O   UNL     1       0.015  14.575  20.449  0.00  0.00    +0.000 OA
ATOM     15  C   UNL     1       0.461  12.339  19.882  0.00  0.00    +0.000 A 
ATOM     16  C   UNL     1       1.780  12.505  20.589  0.00  0.00    +0.000 C 
ENDBRANCH   7   8
BRANCH   4  17
ATOM     17  O   UNL     1       3.111   6.273  19.301  0.00  0.00    +0.000 OA
BRANCH  17  18
ATOM     18  C   UNL     1       2.424   5.085  19.133  0.00  0.00    +0.000 A 
ATOM     19  N   UNL     1       1.989   4.657  17.901  0.00  0.00    +0.000 NA
ATOM     20  C   UNL     1       1.301   3.464  17.777  0.00  0.00    +0.000 A 
ATOM     21  C   UNL     1       0.975   2.546  18.782  0.00  0.00    +0.000 A 
ATOM     22  C   UNL     1       1.456   2.962  20.025  0.00  0.00    +0.000 A 
ATOM     23  N   UNL     1       1.372   2.366  21.233  0.00  0.00    +0.000 NA
ATOM     24  N   UNL     1       2.008   3.203  22.081  0.00  0.00    +0.000 N 
ATOM     25  C   UNL     1       2.506   4.332  21.494  0.00  0.00    +0.000 A 
ATOM     26  C   UNL     1       2.163   4.199  20.176  0.00  0.00    +0.000 A 
ATOM     27  H   UNL     1       2.057   2.936  23.061  0.00  0.00    +0.000 HD
ENDBRANCH  17  18
ENDBRANCH   4  17
TORSDOF 3
ENDMDL
MODEL 3
REMARK VINA RESULT:      -8.2      0.881      1.926
REMARK  Name = 
REMARK  6 active torsions:
REMARK  status: ('A' for Active; 'I' for Inactive)
REMARK    1  A    between atoms: C_1  and  C_2
REMARK    2  A    between atoms: C_4  and  O_5
REMARK    3  A    between atoms: O_5  and  C_6
REMARK    4  A    between atoms: C_17  and  C_18
REMARK    5  A    between atoms: C_19  and  C_20
REMARK    6  A    between atoms: C_25  and  C_26
REMARK                            x       y       z     vdW  Elec       q    Type
REMARK                         _______ _______ _______ _____ _____    ______ ____
ROOT
ATOM      1  C   UNL     1       0.425   8.543  21.406  0.00  0.00    +0.000 C 
ATOM      2  C   UNL     1       1.103   8.699  20.070  0.00  0.00    +0.000 A 
ATOM      3  C   UNL     1       2.070   7.700  19.780  0.00  0.00    +0.000 A 
ATOM      4  C   UNL     1       2.707   7.624  18.545  0.00  0.00    +0.000 A 
ATOM      5  C   UNL     1       2.398   8.576  17.592  0.00  0.00    +0.000 A 
ATOM      6  C   UNL     1       1.555   9.645  17.913  0.00  0.00    +0.000 A 
ATOM      7  C   UNL     1       0.845   9.737  19.133  0.00  0.00    +0.000 A 
ENDROOT
BRANCH   7   8
ATOM      8  C   UNL     1      -0.109  10.897  19.309  0.00  0.00    +0.000 A 
ATOM      9  C   UNL     1      -1.417  10.917  18.781  0.00  0.00    +0.000 A 
ATOM     10  C   UNL     1      -2.052   9.815  17.987  0.00  0.00    +0.000 C 
ATOM     11  N   UNL     1      -2.282  11.955  18.944  0.00  0.00    +0.000 NA
ATOM     12  C   UNL     1      -1.915  12.988  19.718  0.00  0.00    +0.000 A 
ATOM     13  N   UNL     1      -0.707  13.063  20.343  0.00  0.00    +0.000 N 
ATOM     14  O   UNL     1      -0.461  14.054  21.109  0.00  0.00    +0.000 OA
ATOM     15  C   UNL     1       0.226  12.035  20.122  0.00  0.00    +0.000 A 
ATOM     16  C   UNL     1       1.541  12.228  20.829  0.00  0.00    +0.000 C 
ENDBRANCH   7   8
BRANCH   4  17
ATOM     17  O   UNL     1       3.536   6.545  18.358  0.00  0.00    +0.000 OA
BRANCH  17  18
ATOM     18  C   UNL     1       2.995   5.274  18.360  0.00  0.00    +0.000 A 
ATOM     19  N   UNL     1       1.739   5.009  17.866  0.00  0.00    +0.000 NA
ATOM     20  C   UNL     1       1.233   3.723  17.891  0.00  0.00    +0.000 A 
ATOM     21  C   UNL     1       1.856   2.558  18.354  0.00  0.00    +0.000 A 
ATOM     22  C   UNL     1       3.147   2.822  18.816  0.00  0.00    +0.000 A 
ATOM     23  N   UNL     1       4.076   1.985  19.322  0.00  0.00    +0.000 NA
ATOM     24  N   UNL     1       5.139   2.770  19.602  0.00  0.00    +0.000 N 
ATOM     25  C   UNL     1       4.957   4.093  19.311  0.00  0.00    +0.000 A 
ATOM     26  C   UNL     1       3.687   4.149  18.806  0.00  0.00    +0.000 A 
ATOM     27  H   UNL     1       5.962   2.327  20.002  0.00  0.00    +0.000 HD
ENDBRANCH  17  18
ENDBRANCH   4  17
TORSDOF 3
ENDMDL
MODEL 4
REMARK VINA RESULT:      -8.1      1.292      1.390
REMARK  Name = 
REMARK  6 active torsions:
REMARK  status: ('A' for Active; 'I' for Inactive)
REMARK    1  A    between atoms: C_1  and  C_2
REMARK    2  A    between atoms: C_4  and  O_5
REMARK    3  A    between atoms: O_5  and  C_6
REMARK    4  A    between atoms: C_17  and  C_18
REMARK    5  A    between atoms: C_19  and  C_20
REMARK    6  A    between atoms: C_25  and  C_26
REMARK                            x       y       z     vdW  Elec       q    Type
REMARK                         _______ _______ _______ _____ _____    ______ ____
ROOT
ATOM      1  C   UNL     1       0.191   8.891  21.891  0.00  0.00    +0.000 C 
ATOM      2  C   UNL     1       0.877   8.793  20.553  0.00  0.00    +0.000 A 
ATOM      3  C   UNL     1       1.804   7.723  20.443  0.00  0.00    +0.000 A 
ATOM      4  C   UNL     1       2.440   7.416  19.243  0.00  0.00    +0.000 A 
ATOM      5  C   UNL     1       2.172   8.206  18.142  0.00  0.00    +0.000 A 
ATOM      6  C   UNL     1       1.372   9.347  18.273  0.00  0.00    +0.000 A 
ATOM      7  C   UNL     1       0.664   9.670  19.453  0.00  0.00    +0.000 A 
ENDROOT
BRANCH   7   8
ATOM      8  C   UNL     1      -0.244  10.879  19.425  0.00  0.00    +0.000 A 
ATOM      9  C   UNL     1       0.115  12.136  19.955  0.00  0.00    +0.000 A 
ATOM     10  C   UNL     1       1.424  12.463  20.608  0.00  0.00    +0.000 C 
ATOM     11  N   UNL     1      -0.695  13.229  19.924  0.00  0.00    +0.000 NA
ATOM     12  C   UNL     1      -1.871  13.144  19.283  0.00  0.00    +0.000 A 
ATOM     13  N   UNL     1      -2.309  12.011  18.668  0.00  0.00    +0.000 N 
ATOM     14  O   UNL     1      -3.414  12.034  18.030  0.00  0.00    +0.000 OA
ATOM     15  C   UNL     1      -1.517  10.853  18.758  0.00  0.00    +0.000 A 
ATOM     16  C   UNL     1      -2.105   9.645  18.076  0.00  0.00    +0.000 C 
ENDBRANCH   7   8
BRANCH   4  17
ATOM     17  O   UNL     1       3.225   6.290  19.246  0.00  0.00    +0.000 OA
BRANCH  17  18
ATOM     18  C   UNL     1       2.634   5.058  19.038  0.00  0.00    +0.000 A 
ATOM     19  N   UNL     1       2.363   4.577  17.779  0.00  0.00    +0.000 NA
ATOM     20  C   UNL     1       1.766   3.341  17.614  0.00  0.00    +0.000 A 
ATOM     21  C   UNL     1       1.387   2.425  18.603  0.00  0.00    +0.000 A 
ATOM     22  C   UNL     1       1.702   2.898  19.879  0.00  0.00    +0.000 A 
ATOM     23  N   UNL     1       1.521   2.324  21.086  0.00  0.00    +0.000 NA
ATOM     24  N   UNL     1       2.008   3.217  21.975  0.00  0.00    +0.000 N 
ATOM     25  C   UNL     1       2.499   4.362  21.414  0.00  0.00    +0.000 A 
ATOM     26  C   UNL     1       2.313   4.179  20.071  0.00  0.00    +0.000 A 
ATOM     27  H   UNL     1       1.964   2.974  22.962  0.00  0.00    +0.000 HD
ENDBRANCH  17  18
ENDBRANCH   4  17
TORSDOF 3
ENDMDL
MODEL 5
REMARK VINA RESULT:      -8.0      1.405      1.785
REMARK  Name = 
REMARK  6 active torsions:
REMARK  status: ('A' for Active; 'I' for Inactive)
REMARK    1  A    between atoms: C_1  and  C_2
REMARK    2  A    between atoms: C_4  and  O_5
REMARK    3  A    between atoms: O_5  and  C_6
REMARK    4  A    between atoms: C_17  and  C_18
REMARK    5  A    between atoms: C_19  and  C_20
REMARK    6  A    between atoms: C_25  and  C_26
REMARK                            x       y       z     vdW  Elec       q    Type
REMARK                         _______ _______ _______ _____ _____    ______ ____
ROOT
ATOM      1  C   UNL     1       0.044   8.966  21.683  0.00  0.00    +0.000 C 
ATOM      2  C   UNL     1       0.924   8.763  20.477  0.00  0.00    +0.000 A 
ATOM      3  C   UNL     1       1.806   7.654  20.571  0.00  0.00    +0.000 A 
ATOM      4  C   UNL     1       2.605   7.252  19.505  0.00  0.00    +0.000 A 
ATOM      5  C   UNL     1       2.549   7.986  18.334  0.00  0.00    +0.000 A 
ATOM      6  C   UNL     1       1.793   9.162  18.278  0.00  0.00    +0.000 A 
ATOM      7  C   UNL     1       0.926   9.581  19.313  0.00  0.00    +0.000 A 
ENDROOT
BRANCH   7   8
ATOM      8  C   UNL     1       0.091  10.820  19.078  0.00  0.00    +0.000 A 
ATOM      9  C   UNL     1       0.493  12.115  19.467  0.00  0.00    +0.000 A 
ATOM     10  C   UNL     1       1.782  12.458  20.150  0.00  0.00    +0.000 C 
ATOM     11  N   UNL     1      -0.251  13.234  19.250  0.00  0.00    +0.000 NA
ATOM     12  C   UNL     1      -1.394  13.126  18.555  0.00  0.00    +0.000 A 
ATOM     13  N   UNL     1      -1.863  11.946  18.063  0.00  0.00    +0.000 N 
ATOM     14  O   UNL     1      -2.930  11.941  17.363  0.00  0.00    +0.000 OA
ATOM     15  C   UNL     1      -1.145  10.771  18.345  0.00  0.00    +0.000 A 
ATOM     16  C   UNL     1      -1.764   9.517  17.788  0.00  0.00    +0.000 C 
ENDBRANCH   7   8
BRANCH   4  17
ATOM     17  O   UNL     1       3.326   6.099  19.690  0.00  0.00    +0.000 OA
BRANCH  17  18
ATOM     18  C   UNL     1       3.039   4.994  18.911  0.00  0.00    +0.000 A 
ATOM     19  N   UNL     1       3.766   4.680  17.788  0.00  0.00    +0.000 NA
ATOM     20  C   UNL     1       3.442   3.567  17.033  0.00  0.00    +0.000 A 
ATOM     21  C   UNL     1       2.429   2.629  17.266  0.00  0.00    +0.000 A 
ATOM     22  C   UNL     1       1.721   2.927  18.432  0.00  0.00    +0.000 A 
ATOM     23  N   UNL     1       0.692   2.275  19.013  0.00  0.00    +0.000 NA
ATOM     24  N   UNL     1       0.398   2.998  20.116  0.00  0.00    +0.000 N 
ATOM     25  C   UNL     1       1.180   4.105  20.291  0.00  0.00    +0.000 A 
ATOM     26  C   UNL     1       2.034   4.080  19.223  0.00  0.00    +0.000 A 
ATOM     27  H   UNL     1      -0.364   2.673  20.705  0.00  0.00    +0.000 HD
ENDBRANCH  17  18
ENDBRANCH   4  17
TORSDOF 3
ENDMDL
MODEL 6
REMARK VINA RESULT:      -7.8      1.306      2.173
REMARK  Name = 
REMARK  6 active torsions:
REMARK  status: ('A' for Active; 'I' for Inactive)
REMARK    1  A    between atoms: C_1  and  C_2
REMARK    2  A    between atoms: C_4  and  O_5
REMARK    3  A    between atoms: O_5  and  C_6
REMARK    4  A    between atoms: C_17  and  C_18
REMARK    5  A    between atoms: C_19  and  C_20
REMARK    6  A    between atoms: C_25  and  C_26
REMARK                            x       y       z     vdW  Elec       q    Type
REMARK                         _______ _______ _______ _____ _____    ______ ____
ROOT
ATOM      1  C   UNL     1       0.147   8.921  21.801  0.00  0.00    +0.000 C 
ATOM      2  C   UNL     1       0.899   8.788  20.503  0.00  0.00    +0.000 A 
ATOM      3  C   UNL     1       1.811   7.700  20.459  0.00  0.00    +0.000 A 
ATOM      4  C   UNL     1       2.501   7.360  19.300  0.00  0.00    +0.000 A 
ATOM      5  C   UNL     1       2.305   8.135  18.172  0.00  0.00    +0.000 A 
ATOM      6  C   UNL     1       1.521   9.292  18.242  0.00  0.00    +0.000 A 
ATOM      7  C   UNL     1       0.759   9.649  19.379  0.00  0.00    +0.000 A 
ENDROOT
BRANCH   7   8
ATOM      8  C   UNL     1      -0.123  10.873  19.283  0.00  0.00    +0.000 A 
ATOM      9  C   UNL     1      -1.385  10.877  18.652  0.00  0.00    +0.000 A 
ATOM     10  C   UNL     1      -2.036   9.695  18.001  0.00  0.00    +0.000 C 
ATOM     11  N   UNL     1      -2.185  11.975  18.571  0.00  0.00    +0.000 NA
ATOM     12  C   UNL     1      -1.804  13.101  19.193  0.00  0.00    +0.000 A 
ATOM     13  N   UNL     1      -0.642  13.213  19.895  0.00  0.00    +0.000 N 
ATOM     14  O   UNL     1      -0.384  14.303  20.506  0.00  0.00    +0.000 OA
ATOM     15  C   UNL     1       0.230  12.111  19.923  0.00  0.00    +0.000 A 
ATOM     16  C   UNL     1       1.502  12.347  20.695  0.00  0.00    +0.000 C 
ENDBRANCH   7   8
BRANCH   4  17
ATOM     17  O   UNL     1       3.264   6.220  19.362  0.00  0.00    +0.000 OA
BRANCH  17  18
ATOM     18  C   UNL     1       2.634   4.990  19.377  0.00  0.00    +0.000 A 
ATOM     19  N   UNL     1       1.421   4.794  19.991  0.00  0.00    +0.000 NA
ATOM     20  C   UNL     1       0.826   3.546  19.986  0.00  0.00    +0.000 A 
ATOM     21  C   UNL     1       1.292   2.369  19.389  0.00  0.00    +0.000 A 
ATOM     22  C   UNL     1       2.504   2.581  18.728  0.00  0.00    +0.000 A 
ATOM     23  N   UNL     1       3.270   1.723  18.022  0.00  0.00    +0.000 NA
ATOM     24  N   UNL     1       4.324   2.458  17.604  0.00  0.00    +0.000 N 
ATOM     25  C   UNL     1       4.298   3.763  18.006  0.00  0.00    +0.000 A 
ATOM     26  C   UNL     1       3.141   3.864  18.729  0.00  0.00    +0.000 A 
ATOM     27  H   UNL     1       5.035   1.991  17.047  0.00  0.00    +0.000 HD
ENDBRANCH  17  18
ENDBRANCH   4  17
TORSDOF 3
ENDMDL
MODEL 7
REMARK VINA RESULT:      -7.8      1.725      2.733
REMARK  Name = 
REMARK  6 active torsions:
REMARK  status: ('A' for Active; 'I' for Inactive)
REMARK    1  A    between atoms: C_1  and  C_2
REMARK    2  A    between atoms: C_4  and  O_5
REMARK    3  A    between atoms: O_5  and  C_6
REMARK    4  A    between atoms: C_17  and  C_18
REMARK    5  A    between atoms: C_19  and  C_20
REMARK    6  A    between atoms: C_25  and  C_26
REMARK                            x       y       z     vdW  Elec       q    Type
REMARK                         _______ _______ _______ _____ _____    ______ ____
ROOT
ATOM      1  C   UNL     1      -0.190   9.344  21.786  0.00  0.00    +0.000 C 
ATOM      2  C   UNL     1       0.711   8.935  20.650  0.00  0.00    +0.000 A 
ATOM      3  C   UNL     1       1.415   7.720  20.864  0.00  0.00    +0.000 A 
ATOM      4  C   UNL     1       2.200   7.136  19.874  0.00  0.00    +0.000 A 
ATOM      5  C   UNL     1       2.311   7.788  18.660  0.00  0.00    +0.000 A 
ATOM      6  C   UNL     1       1.739   9.053  18.486  0.00  0.00    +0.000 A 
ATOM      7  C   UNL     1       0.891   9.662  19.440  0.00  0.00    +0.000 A 
ENDROOT
BRANCH   7   8
ATOM      8  C   UNL     1       0.260  10.988  19.081  0.00  0.00    +0.000 A 
ATOM      9  C   UNL     1      -0.912  11.109  18.305  0.00  0.00    +0.000 A 
ATOM     10  C   UNL     1      -1.699   9.968  17.735  0.00  0.00    +0.000 C 
ATOM     11  N   UNL     1      -1.487  12.300  17.986  0.00  0.00    +0.000 NA
ATOM     12  C   UNL     1      -0.971  13.427  18.500  0.00  0.00    +0.000 A 
ATOM     13  N   UNL     1       0.117  13.446  19.320  0.00  0.00    +0.000 N 
ATOM     14  O   UNL     1       0.508  14.556  19.813  0.00  0.00    +0.000 OA
ATOM     15  C   UNL     1       0.768  12.231  19.596  0.00  0.00    +0.000 A 
ATOM     16  C   UNL     1       1.979  12.363  20.481  0.00  0.00    +0.000 C 
ENDBRANCH   7   8
BRANCH   4  17
ATOM     17  O   UNL     1       2.735   5.908  20.173  0.00  0.00    +0.000 OA
BRANCH  17  18
ATOM     18  C   UNL     1       3.253   5.134  19.151  0.00  0.00    +0.000 A 
ATOM     19  N   UNL     1       4.445   5.433  18.536  0.00  0.00    +0.000 NA
ATOM     20  C   UNL     1       4.925   4.635  17.514  0.00  0.00    +0.000 A 
ATOM     21  C   UNL     1       4.356   3.471  16.985  0.00  0.00    +0.000 A 
ATOM     22  C   UNL     1       3.166   3.146  17.641  0.00  0.00    +0.000 A 
ATOM     23  N   UNL     1       2.327   2.107  17.451  0.00  0.00    +0.000 NA
ATOM     24  N   UNL     1       1.341   2.283  18.359  0.00  0.00    +0.000 N 
ATOM     25  C   UNL     1       1.484   3.395  19.139  0.00  0.00    +0.000 A 
ATOM     26  C   UNL     1       2.647   3.964  18.696  0.00  0.00    +0.000 A 
ATOM     27  H   UNL     1       0.591   1.597  18.381  0.00  0.00    +0.000 HD
ENDBRANCH  17  18
ENDBRANCH   4  17
TORSDOF 3
ENDMDL
MODEL 8
REMARK VINA RESULT:      -7.8      1.657      2.421
REMARK  Name = 
REMARK  6 active torsions:
REMARK  status: ('A' for Active; 'I' for Inactive)
REMARK    1  A    between atoms: C_1  and  C_2
REMARK    2  A    between atoms: C_4  and  O_5
REMARK    3  A    between atoms: O_5  and  C_6
REMARK    4  A    between atoms: C_17  and  C_18
REMARK    5  A    between atoms: C_19  and  C_20
REMARK    6  A    between atoms: C_25  and  C_26
REMARK                            x       y       z     vdW  Elec       q    Type
REMARK                         _______ _______ _______ _____ _____    ______ ____
ROOT
ATOM      1  C   UNL     1      -0.032   9.519  21.819  0.00  0.00    +0.000 C 
ATOM      2  C   UNL     1       0.812   9.071  20.654  0.00  0.00    +0.000 A 
ATOM      3  C   UNL     1       1.525   7.862  20.873  0.00  0.00    +0.000 A 
ATOM      4  C   UNL     1       2.259   7.244  19.865  0.00  0.00    +0.000 A 
ATOM      5  C   UNL     1       2.311   7.855  18.626  0.00  0.00    +0.000 A 
ATOM      6  C   UNL     1       1.732   9.115  18.440  0.00  0.00    +0.000 A 
ATOM      7  C   UNL     1       0.933   9.757  19.414  0.00  0.00    +0.000 A 
ENDROOT
BRANCH   7   8
ATOM      8  C   UNL     1       0.286  11.072  19.042  0.00  0.00    +0.000 A 
ATOM      9  C   UNL     1      -0.934  11.171  18.341  0.00  0.00    +0.000 A 
ATOM     10  C   UNL     1      -1.763  10.014  17.872  0.00  0.00    +0.000 C 
ATOM     11  N   UNL     1      -1.524  12.352  18.012  0.00  0.00    +0.000 NA
ATOM     12  C   UNL     1      -0.969  13.495  18.445  0.00  0.00    +0.000 A 
ATOM     13  N   UNL     1       0.171  13.539  19.189  0.00  0.00    +0.000 N 
ATOM     14  O   UNL     1       0.599  14.666  19.609  0.00  0.00    +0.000 OA
ATOM     15  C   UNL     1       0.833  12.331  19.471  0.00  0.00    +0.000 A 
ATOM     16  C   UNL     1       2.100  12.491  20.268  0.00  0.00    +0.000 C 
ENDBRANCH   7   8
BRANCH   4  17
ATOM     17  O   UNL     1       2.807   6.025  20.177  0.00  0.00    +0.000 OA
BRANCH  17  18
ATOM     18  C   UNL     1       2.709   4.991  19.265  0.00  0.00    +0.000 A 
ATOM     19  N   UNL     1       1.566   4.239  19.128  0.00  0.00    +0.000 NA
ATOM     20  C   UNL     1       1.511   3.210  18.206  0.00  0.00    +0.000 A 
ATOM     21  C   UNL     1       2.504   2.800  17.308  0.00  0.00    +0.000 A 
ATOM     22  C   UNL     1       3.648   3.593  17.420  0.00  0.00    +0.000 A 
ATOM     23  N   UNL     1       4.810   3.543  16.735  0.00  0.00    +0.000 NA
ATOM     24  N   UNL     1       5.562   4.541  17.248  0.00  0.00    +0.000 N 
ATOM     25  C   UNL     1       4.956   5.249  18.247  0.00  0.00    +0.000 A 
ATOM     26  C   UNL     1       3.728   4.658  18.374  0.00  0.00    +0.000 A 
ATOM     27  H   UNL     1       6.494   4.676  16.865  0.00  0.00    +0.000 HD
ENDBRANCH  17  18
ENDBRANCH   4  17
TORSDOF 3
ENDMDL
MODEL 9
REMARK VINA RESULT:      -7.8      2.595      3.931
REMARK  Name = 
REMARK  6 active torsions:
REMARK  status: ('A' for Active; 'I' for Inactive)
REMARK    1  A    between atoms: C_1  and  C_2
REMARK    2  A    between atoms: C_4  and  O_5
REMARK    3  A    between atoms: O_5  and  C_6
REMARK    4  A    between atoms: C_17  and  C_18
REMARK    5  A    between atoms: C_19  and  C_20
REMARK    6  A    between atoms: C_25  and  C_26
REMARK                            x       y       z     vdW  Elec       q    Type
REMARK                         _______ _______ _______ _____ _____    ______ ____
ROOT
ATOM      1  C   UNL     1       2.348   9.769  17.721  0.00  0.00    +0.000 C 
ATOM      2  C   UNL     1       2.092   8.552  18.571  0.00  0.00    +0.000 A 
ATOM      3  C   UNL     1       2.794   7.388  18.160  0.00  0.00    +0.000 A 
ATOM      4  C   UNL     1       2.766   6.208  18.898  0.00  0.00    +0.000 A 
ATOM      5  C   UNL     1       2.000   6.176  20.049  0.00  0.00    +0.000 A 
ATOM      6  C   UNL     1       1.193   7.268  20.386  0.00  0.00    +0.000 A 
ATOM      7  C   UNL     1       1.228   8.504  19.700  0.00  0.00    +0.000 A 
ENDROOT
BRANCH   7   8
ATOM      8  C   UNL     1       0.375   9.633  20.234  0.00  0.00    +0.000 A 
ATOM      9  C   UNL     1      -0.598  10.305  19.465  0.00  0.00    +0.000 A 
ATOM     10  C   UNL     1      -0.934  10.008  18.034  0.00  0.00    +0.000 C 
ATOM     11  N   UNL     1      -1.373  11.316  19.943  0.00  0.00    +0.000 NA
ATOM     12  C   UNL     1      -1.277  11.647  21.240  0.00  0.00    +0.000 A 
ATOM     13  N   UNL     1      -0.428  11.031  22.109  0.00  0.00    +0.000 N 
ATOM     14  O   UNL     1      -0.443  11.367  23.340  0.00  0.00    +0.000 OA
ATOM     15  C   UNL     1       0.433  10.038  21.612  0.00  0.00    +0.000 A 
ATOM     16  C   UNL     1       1.356   9.444  22.644  0.00  0.00    +0.000 C 
ENDBRANCH   7   8
BRANCH   4  17
ATOM     17  O   UNL     1       3.577   5.195  18.450  0.00  0.00    +0.000 OA
BRANCH  17  18
ATOM     18  C   UNL     1       4.945   5.392  18.425  0.00  0.00    +0.000 A 
ATOM     19  N   UNL     1       5.711   5.367  19.565  0.00  0.00    +0.000 NA
ATOM     20  C   UNL     1       7.077   5.573  19.496  0.00  0.00    +0.000 A 
ATOM     21  C   UNL     1       7.861   5.796  18.359  0.00  0.00    +0.000 A 
ATOM     22  C   UNL     1       7.086   5.778  17.197  0.00  0.00    +0.000 A 
ATOM     23  N   UNL     1       7.451   5.933  15.907  0.00  0.00    +0.000 NA
ATOM     24  N   UNL     1       6.303   5.822  15.203  0.00  0.00    +0.000 N 
ATOM     25  C   UNL     1       5.191   5.606  15.966  0.00  0.00    +0.000 A 
ATOM     26  C   UNL     1       5.669   5.575  17.248  0.00  0.00    +0.000 A 
ATOM     27  H   UNL     1       6.358   5.913  14.192  0.00  0.00    +0.000 HD
ENDBRANCH  17  18
ENDBRANCH   4  17
TORSDOF 3
ENDMDL
