MODEL 1
REMARK VINA RESULT:      -7.7      0.000      0.000
REMARK  Name = 
REMARK  8 active torsions:
REMARK  status: ('A' for Active; 'I' for Inactive)
REMARK    1  A    between atoms: C_1  and  C_2
REMARK    2  A    between atoms: C_2  and  C_3
REMARK    3  A    between atoms: C_3  and  O_4
REMARK    4  A    between atoms: O_4  and  C_5
REMARK    5  A    between atoms: C_8  and  C_9
REMARK    6  A    between atoms: C_12  and  N_13
REMARK    7  A    between atoms: C_14  and  C_15
REMARK    8  A    between atoms: C_18  and  C_19
REMARK                            x       y       z     vdW  Elec       q    Type
REMARK                         _______ _______ _______ _____ _____    ______ ____
ROOT
ATOM      1  C   UNL     1       2.722   6.502  19.401  0.00  0.00    +0.000 A 
ATOM      2  C   UNL     1       2.713   5.405  20.262  0.00  0.00    +0.000 A 
ATOM      3  N   UNL     1       3.446   4.282  20.108  0.00  0.00    +0.000 NA
ATOM      4  C   UNL     1       4.239   4.206  19.027  0.00  0.00    +0.000 A 
ATOM      5  C   UNL     1       4.322   5.212  18.045  0.00  0.00    +0.000 A 
ATOM      6  C   UNL     1       3.545   6.370  18.275  0.00  0.00    +0.000 A 
ENDROOT
BRANCH   1  10
ATOM      7  C   UNL     1       0.319   9.985  20.268  0.00  0.00    +0.000 A 
ATOM      8  C   UNL     1       0.539   8.999  21.227  0.00  0.00    +0.000 A 
ATOM      9  C   UNL     1       1.337   7.894  20.941  0.00  0.00    +0.000 A 
ATOM     10  C   UNL     1       1.924   7.712  19.680  0.00  0.00    +0.000 A 
ATOM     11  C   UNL     1       1.706   8.722  18.724  0.00  0.00    +0.000 A 
ATOM     12  C   UNL     1       0.917   9.847  19.017  0.00  0.00    +0.000 A 
BRANCH   7  13
ATOM     13  O   UNL     1      -0.450  11.108  20.458  0.00  0.00    +0.000 OA
BRANCH  13  14
ATOM     14  C   UNL     1       0.004  11.956  21.516  0.00  0.00    +0.000 C 
BRANCH  14  16
ATOM     15  C   UNL     1      -1.655  11.286  23.243  0.00  0.00    +0.000 C 
ATOM     16  C   UNL     1      -1.160  12.432  22.371  0.00  0.00    +0.000 C 
ENDBRANCH  14  16
ENDBRANCH  13  14
ENDBRANCH   7  13
ENDBRANCH   1  10
BRANCH   5  17
ATOM     17  C   UNL     1       5.166   5.111  16.826  0.00  0.00    +0.000 A 
ATOM     18  C   UNL     1       6.479   5.612  16.800  0.00  0.00    +0.000 A 
ATOM     19  C   UNL     1       7.270   5.564  15.644  0.00  0.00    +0.000 A 
ATOM     20  C   UNL     1       6.779   4.970  14.482  0.00  0.00    +0.000 A 
ATOM     21  C   UNL     1       5.493   4.419  14.500  0.00  0.00    +0.000 A 
ATOM     22  C   UNL     1       4.696   4.499  15.651  0.00  0.00    +0.000 A 
BRANCH  20  23
ATOM     23  C   UNL     1       7.558   4.888  13.216  0.00  0.00    +0.000 C 
ATOM     24  N   UNL     1       8.621   5.736  13.040  0.00  0.00    +0.000 N 
ATOM     25  O   UNL     1       7.259   4.096  12.331  0.00  0.00    +0.000 OA
ATOM     26  H   UNL     1       8.913   6.447  13.692  0.00  0.00    +0.000 HD
ATOM     27  H   UNL     1       9.110   5.669  12.157  0.00  0.00    +0.000 HD
ENDBRANCH  20  23
ENDBRANCH   5  17
BRANCH   4  28
ATOM     28  N   UNL     1       4.965   3.016  18.966  0.00  0.00    +0.000 N 
ATOM     29  H   UNL     1       5.847   3.243  18.514  0.00  0.00    +0.000 HD
ATOM     30  H   UNL     1       4.449   2.302  18.464  0.00  0.00    +0.000 HD
ENDBRANCH   4  28
TORSDOF 7
ENDMDL
MODEL 2
REMARK VINA RESULT:      -7.6      1.603      1.928
REMARK  Name = 
REMARK  8 active torsions:
REMARK  status: ('A' for Active; 'I' for Inactive)
REMARK    1  A    between atoms: C_1  and  C_2
REMARK    2  A    between atoms: C_2  and  C_3
REMARK    3  A    between atoms: C_3  and  O_4
REMARK    4  A    between atoms: O_4  and  C_5
REMARK    5  A    between atoms: C_8  and  C_9
REMARK    6  A    between atoms: C_12  and  N_13
REMARK    7  A    between atoms: C_14  and  C_15
REMARK    8  A    between atoms: C_18  and  C_19
REMARK                            x       y       z     vdW  Elec       q    Type
REMARK                         _______ _______ _______ _____ _____    ______ ____
ROOT
ATOM      1  C   UNL     1       2.979   6.659  18.908  0.00  0.00    +0.000 A 
ATOM      2  C   UNL     1       3.127   5.742  19.949  0.00  0.00    +0.000 A 
ATOM      3  N   UNL     1       3.882   4.624  19.905  0.00  0.00    +0.000 NA
ATOM      4  C   UNL     1       4.531   4.361  18.759  0.00  0.00    +0.000 A 
ATOM      5  C   UNL     1       4.443   5.167  17.608  0.00  0.00    +0.000 A 
ATOM      6  C   UNL     1       3.654   6.333  17.725  0.00  0.00    +0.000 A 
ENDROOT
BRANCH   1  10
ATOM      7  C   UNL     1       0.551  10.195  19.422  0.00  0.00    +0.000 A 
ATOM      8  C   UNL     1       0.745   9.290  20.464  0.00  0.00    +0.000 A 
ATOM      9  C   UNL     1       1.551   8.168  20.291  0.00  0.00    +0.000 A 
ATOM     10  C   UNL     1       2.174   7.886  19.065  0.00  0.00    +0.000 A 
ATOM     11  C   UNL     1       1.981   8.814  18.025  0.00  0.00    +0.000 A 
ATOM     12  C   UNL     1       1.184   9.957  18.204  0.00  0.00    +0.000 A 
BRANCH   7  13
ATOM     13  O   UNL     1      -0.223  11.327  19.500  0.00  0.00    +0.000 OA
BRANCH  13  14
ATOM     14  C   UNL     1      -1.007  11.582  18.331  0.00  0.00    +0.000 C 
BRANCH  14  16
ATOM     15  C   UNL     1      -2.405   9.884  17.172  0.00  0.00    +0.000 C 
ATOM     16  C   UNL     1      -2.318  10.813  18.375  0.00  0.00    +0.000 C 
ENDBRANCH  14  16
ENDBRANCH  13  14
ENDBRANCH   7  13
ENDBRANCH   1  10
BRANCH   5  17
ATOM     17  C   UNL     1       5.127   4.854  16.326  0.00  0.00    +0.000 A 
ATOM     18  C   UNL     1       6.464   5.225  16.098  0.00  0.00    +0.000 A 
ATOM     19  C   UNL     1       7.106   4.977  14.877  0.00  0.00    +0.000 A 
ATOM     20  C   UNL     1       6.435   4.307  13.855  0.00  0.00    +0.000 A 
ATOM     21  C   UNL     1       5.120   3.883  14.078  0.00  0.00    +0.000 A 
ATOM     22  C   UNL     1       4.474   4.163  15.290  0.00  0.00    +0.000 A 
BRANCH  20  23
ATOM     23  C   UNL     1       7.049   4.015  12.531  0.00  0.00    +0.000 C 
ATOM     24  N   UNL     1       6.848   2.780  11.969  0.00  0.00    +0.000 N 
ATOM     25  O   UNL     1       7.738   4.843  11.948  0.00  0.00    +0.000 OA
ATOM     26  H   UNL     1       6.335   2.023  12.394  0.00  0.00    +0.000 HD
ATOM     27  H   UNL     1       7.302   2.609  11.082  0.00  0.00    +0.000 HD
ENDBRANCH  20  23
ENDBRANCH   5  17
BRANCH   4  28
ATOM     28  N   UNL     1       5.292   3.193  18.821  0.00  0.00    +0.000 N 
ATOM     29  H   UNL     1       5.003   2.623  18.030  0.00  0.00    +0.000 HD
ATOM     30  H   UNL     1       5.157   2.719  19.706  0.00  0.00    +0.000 HD
ENDBRANCH   4  28
TORSDOF 7
ENDMDL
MODEL 3
REMARK VINA RESULT:      -7.6      1.006      1.624
REMARK  Name = 
REMARK  8 active torsions:
REMARK  status: ('A' for Active; 'I' for Inactive)
REMARK    1  A    between atoms: C_1  and  C_2
REMARK    2  A    between atoms: C_2  and  C_3
REMARK    3  A    between atoms: C_3  and  O_4
REMARK    4  A    between atoms: O_4  and  C_5
REMARK    5  A    between atoms: C_8  and  C_9
REMARK    6  A    between atoms: C_12  and  N_13
REMARK    7  A    between atoms: C_14  and  C_15
REMARK    8  A    between atoms: C_18  and  C_19
REMARK                            x       y       z     vdW  Elec       q    Type
REMARK                         _______ _______ _______ _____ _____    ______ ____
ROOT
ATOM      1  C   UNL     1       2.670   6.373  19.590  0.00  0.00    +0.000 A 
ATOM      2  C   UNL     1       2.671   5.255  20.423  0.00  0.00    +0.000 A 
ATOM      3  N   UNL     1       3.413   4.142  20.239  0.00  0.00    +0.000 NA
ATOM      4  C   UNL     1       4.202   4.099  19.154  0.00  0.00    +0.000 A 
ATOM      5  C   UNL     1       4.274   5.129  18.196  0.00  0.00    +0.000 A 
ATOM      6  C   UNL     1       3.489   6.274  18.459  0.00  0.00    +0.000 A 
ENDROOT
BRANCH   1  10
ATOM      7  C   UNL     1       0.384   9.935  20.453  0.00  0.00    +0.000 A 
ATOM      8  C   UNL     1       1.003   9.752  19.218  0.00  0.00    +0.000 A 
ATOM      9  C   UNL     1       1.715   8.586  18.945  0.00  0.00    +0.000 A 
ATOM     10  C   UNL     1       1.864   7.570  19.901  0.00  0.00    +0.000 A 
ATOM     11  C   UNL     1       1.224   7.762  21.140  0.00  0.00    +0.000 A 
ATOM     12  C   UNL     1       0.489   8.928  21.409  0.00  0.00    +0.000 A 
BRANCH   7  13
ATOM     13  O   UNL     1      -0.339  11.047  20.811  0.00  0.00    +0.000 OA
BRANCH  13  14
ATOM     14  C   UNL     1      -0.490  12.011  19.765  0.00  0.00    +0.000 C 
BRANCH  14  16
ATOM     15  C   UNL     1      -1.896  11.682  17.741  0.00  0.00    +0.000 C 
ATOM     16  C   UNL     1      -1.911  12.014  19.226  0.00  0.00    +0.000 C 
ENDBRANCH  14  16
ENDBRANCH  13  14
ENDBRANCH   7  13
ENDBRANCH   1  10
BRANCH   5  17
ATOM     17  C   UNL     1       5.115   5.064  16.973  0.00  0.00    +0.000 A 
ATOM     18  C   UNL     1       6.328   5.768  16.878  0.00  0.00    +0.000 A 
ATOM     19  C   UNL     1       7.108   5.752  15.714  0.00  0.00    +0.000 A 
ATOM     20  C   UNL     1       6.712   4.991  14.615  0.00  0.00    +0.000 A 
ATOM     21  C   UNL     1       5.533   4.241  14.705  0.00  0.00    +0.000 A 
ATOM     22  C   UNL     1       4.743   4.288  15.862  0.00  0.00    +0.000 A 
BRANCH  20  23
ATOM     23  C   UNL     1       7.484   4.930  13.344  0.00  0.00    +0.000 C 
ATOM     24  N   UNL     1       8.578   5.745  13.197  0.00  0.00    +0.000 N 
ATOM     25  O   UNL     1       7.155   4.185  12.430  0.00  0.00    +0.000 OA
ATOM     26  H   UNL     1       8.896   6.419  13.876  0.00  0.00    +0.000 HD
ATOM     27  H   UNL     1       9.061   5.695  12.311  0.00  0.00    +0.000 HD
ENDBRANCH  20  23
ENDBRANCH   5  17
BRANCH   4  28
ATOM     28  N   UNL     1       4.936   2.915  19.061  0.00  0.00    +0.000 N 
ATOM     29  H   UNL     1       5.740   3.124  18.474  0.00  0.00    +0.000 HD
ATOM     30  H   UNL     1       4.368   2.166  18.682  0.00  0.00    +0.000 HD
ENDBRANCH   4  28
TORSDOF 7
ENDMDL
MODEL 4
REMARK VINA RESULT:      -7.6      0.351      1.051
REMARK  Name = 
REMARK  8 active torsions:
REMARK  status: ('A' for Active; 'I' for Inactive)
REMARK    1  A    between atoms: C_1  and  C_2
REMARK    2  A    between atoms: C_2  and  C_3
REMARK    3  A    between atoms: C_3  and  O_4
REMARK    4  A    between atoms: O_4  and  C_5
REMARK    5  A    between atoms: C_8  and  C_9
REMARK    6  A    between atoms: C_12  and  N_13
REMARK    7  A    between atoms: C_14  and  C_15
REMARK    8  A    between atoms: C_18  and  C_19
REMARK                            x       y       z     vdW  Elec       q    Type
REMARK                         _______ _______ _______ _____ _____    ______ ____
ROOT
ATOM      1  C   UNL     1       2.714   6.361  19.492  0.00  0.00    +0.000 A 
ATOM      2  C   UNL     1       2.725   5.249  20.333  0.00  0.00    +0.000 A 
ATOM      3  N   UNL     1       3.474   4.140  20.155  0.00  0.00    +0.000 NA
ATOM      4  C   UNL     1       4.262   4.095  19.068  0.00  0.00    +0.000 A 
ATOM      5  C   UNL     1       4.324   5.119  18.103  0.00  0.00    +0.000 A 
ATOM      6  C   UNL     1       3.531   6.260  18.359  0.00  0.00    +0.000 A 
ENDROOT
BRANCH   1  10
ATOM      7  C   UNL     1       0.402   9.912  20.331  0.00  0.00    +0.000 A 
ATOM      8  C   UNL     1       0.991   9.708  19.086  0.00  0.00    +0.000 A 
ATOM      9  C   UNL     1       1.712   8.546  18.821  0.00  0.00    +0.000 A 
ATOM     10  C   UNL     1       1.900   7.554  19.796  0.00  0.00    +0.000 A 
ATOM     11  C   UNL     1       1.289   7.767  21.046  0.00  0.00    +0.000 A 
ATOM     12  C   UNL     1       0.546   8.929  21.308  0.00  0.00    +0.000 A 
BRANCH   7  13
ATOM     13  O   UNL     1      -0.327  11.022  20.682  0.00  0.00    +0.000 OA
BRANCH  13  14
ATOM     14  C   UNL     1      -0.156  11.430  22.042  0.00  0.00    +0.000 C 
BRANCH  14  16
ATOM     15  C   UNL     1      -2.414  12.457  21.865  0.00  0.00    +0.000 C 
ATOM     16  C   UNL     1      -1.499  11.603  22.733  0.00  0.00    +0.000 C 
ENDBRANCH  14  16
ENDBRANCH  13  14
ENDBRANCH   7  13
ENDBRANCH   1  10
BRANCH   5  17
ATOM     17  C   UNL     1       5.162   5.051  16.879  0.00  0.00    +0.000 A 
ATOM     18  C   UNL     1       6.466   5.576  16.852  0.00  0.00    +0.000 A 
ATOM     19  C   UNL     1       7.250   5.560  15.691  0.00  0.00    +0.000 A 
ATOM     20  C   UNL     1       6.763   4.976  14.523  0.00  0.00    +0.000 A 
ATOM     21  C   UNL     1       5.486   4.402  14.540  0.00  0.00    +0.000 A 
ATOM     22  C   UNL     1       4.696   4.450  15.696  0.00  0.00    +0.000 A 
BRANCH  20  23
ATOM     23  C   UNL     1       7.535   4.927  13.251  0.00  0.00    +0.000 C 
ATOM     24  N   UNL     1       8.592   5.786  13.088  0.00  0.00    +0.000 N 
ATOM     25  O   UNL     1       7.235   4.153  12.350  0.00  0.00    +0.000 OA
ATOM     26  H   UNL     1       8.883   6.484  13.754  0.00  0.00    +0.000 HD
ATOM     27  H   UNL     1       9.076   5.741  12.202  0.00  0.00    +0.000 HD
ENDBRANCH  20  23
ENDBRANCH   5  17
BRANCH   4  28
ATOM     28  N   UNL     1       5.004   2.917  18.982  0.00  0.00    +0.000 N 
ATOM     29  H   UNL     1       5.346   2.864  18.026  0.00  0.00    +0.000 HD
ATOM     30  H   UNL     1       4.438   2.113  19.231  0.00  0.00    +0.000 HD
ENDBRANCH   4  28
TORSDOF 7
ENDMDL
MODEL 5
REMARK VINA RESULT:      -7.5      0.969      1.088
REMARK  Name = 
REMARK  8 active torsions:
REMARK  status: ('A' for Active; 'I' for Inactive)
REMARK    1  A    between atoms: C_1  and  C_2
REMARK    2  A    between atoms: C_2  and  C_3
REMARK    3  A    between atoms: C_3  and  O_4
REMARK    4  A    between atoms: O_4  and  C_5
REMARK    5  A    between atoms: C_8  and  C_9
REMARK    6  A    between atoms: C_12  and  N_13
REMARK    7  A    between atoms: C_14  and  C_15
REMARK    8  A    between atoms: C_18  and  C_19
REMARK                            x       y       z     vdW  Elec       q    Type
REMARK                         _______ _______ _______ _____ _____    ______ ____
ROOT
ATOM      1  C   UNL     1       2.737   6.375  19.471  0.00  0.00    +0.000 A 
ATOM      2  C   UNL     1       2.735   5.260  20.308  0.00  0.00    +0.000 A 
ATOM      3  N   UNL     1       3.472   4.143  20.126  0.00  0.00    +0.000 NA
ATOM      4  C   UNL     1       4.260   4.093  19.039  0.00  0.00    +0.000 A 
ATOM      5  C   UNL     1       4.334   5.120  18.078  0.00  0.00    +0.000 A 
ATOM      6  C   UNL     1       3.554   6.270  18.338  0.00  0.00    +0.000 A 
ENDROOT
BRANCH   1  10
ATOM      7  C   UNL     1       0.326   9.831  20.421  0.00  0.00    +0.000 A 
ATOM      8  C   UNL     1       0.523   8.808  21.346  0.00  0.00    +0.000 A 
ATOM      9  C   UNL     1       1.324   7.711  21.034  0.00  0.00    +0.000 A 
ATOM     10  C   UNL     1       1.937   7.577  19.779  0.00  0.00    +0.000 A 
ATOM     11  C   UNL     1       1.741   8.623  18.859  0.00  0.00    +0.000 A 
ATOM     12  C   UNL     1       0.950   9.739  19.179  0.00  0.00    +0.000 A 
BRANCH   7  13
ATOM     13  O   UNL     1      -0.443  10.948  20.639  0.00  0.00    +0.000 OA
BRANCH  13  14
ATOM     14  C   UNL     1      -0.010  12.107  19.923  0.00  0.00    +0.000 C 
BRANCH  14  16
ATOM     15  C   UNL     1      -2.338  11.829  19.096  0.00  0.00    +0.000 C 
ATOM     16  C   UNL     1      -1.182  12.807  19.256  0.00  0.00    +0.000 C 
ENDBRANCH  14  16
ENDBRANCH  13  14
ENDBRANCH   7  13
ENDBRANCH   1  10
BRANCH   5  17
ATOM     17  C   UNL     1       5.172   5.048  16.854  0.00  0.00    +0.000 A 
ATOM     18  C   UNL     1       6.491   5.534  16.838  0.00  0.00    +0.000 A 
ATOM     19  C   UNL     1       7.277   5.514  15.678  0.00  0.00    +0.000 A 
ATOM     20  C   UNL     1       6.775   4.963  14.500  0.00  0.00    +0.000 A 
ATOM     21  C   UNL     1       5.482   4.427  14.506  0.00  0.00    +0.000 A 
ATOM     22  C   UNL     1       4.691   4.479  15.662  0.00  0.00    +0.000 A 
BRANCH  20  23
ATOM     23  C   UNL     1       7.547   4.912  13.229  0.00  0.00    +0.000 C 
ATOM     24  N   UNL     1       8.596   5.781  13.059  0.00  0.00    +0.000 N 
ATOM     25  O   UNL     1       7.256   4.129  12.333  0.00  0.00    +0.000 OA
ATOM     26  H   UNL     1       8.879   6.487  13.720  0.00  0.00    +0.000 HD
ATOM     27  H   UNL     1       9.080   5.734  12.173  0.00  0.00    +0.000 HD
ENDBRANCH  20  23
ENDBRANCH   5  17
BRANCH   4  28
ATOM     28  N   UNL     1       4.988   2.907  18.949  0.00  0.00    +0.000 N 
ATOM     29  H   UNL     1       5.095   2.565  19.901  0.00  0.00    +0.000 HD
ATOM     30  H   UNL     1       5.881   3.063  18.496  0.00  0.00    +0.000 HD
ENDBRANCH   4  28
TORSDOF 7
ENDMDL
MODEL 6
REMARK VINA RESULT:      -7.5      1.226      1.642
REMARK  Name = 
REMARK  8 active torsions:
REMARK  status: ('A' for Active; 'I' for Inactive)
REMARK    1  A    between atoms: C_1  and  C_2
REMARK    2  A    between atoms: C_2  and  C_3
REMARK    3  A    between atoms: C_3  and  O_4
REMARK    4  A    between atoms: O_4  and  C_5
REMARK    5  A    between atoms: C_8  and  C_9
REMARK    6  A    between atoms: C_12  and  N_13
REMARK    7  A    between atoms: C_14  and  C_15
REMARK    8  A    between atoms: C_18  and  C_19
REMARK                            x       y       z     vdW  Elec       q    Type
REMARK                         _______ _______ _______ _____ _____    ______ ____
ROOT
ATOM      1  C   UNL     1       2.055   6.825  20.208  0.00  0.00    +0.000 A 
ATOM      2  C   UNL     1       1.824   5.701  21.000  0.00  0.00    +0.000 A 
ATOM      3  N   UNL     1       2.388   4.488  20.822  0.00  0.00    +0.000 NA
ATOM      4  C   UNL     1       3.230   4.345  19.785  0.00  0.00    +0.000 A 
ATOM      5  C   UNL     1       3.527   5.374  18.871  0.00  0.00    +0.000 A 
ATOM      6  C   UNL     1       2.920   6.624  19.125  0.00  0.00    +0.000 A 
ENDROOT
BRANCH   1  10
ATOM      7  C   UNL     1       0.301  10.686  21.033  0.00  0.00    +0.000 A 
ATOM      8  C   UNL     1       0.683  10.324  19.744  0.00  0.00    +0.000 A 
ATOM      9  C   UNL     1       1.224   9.065  19.488  0.00  0.00    +0.000 A 
ATOM     10  C   UNL     1       1.433   8.129  20.512  0.00  0.00    +0.000 A 
ATOM     11  C   UNL     1       1.030   8.502  21.808  0.00  0.00    +0.000 A 
ATOM     12  C   UNL     1       0.467   9.763  22.064  0.00  0.00    +0.000 A 
BRANCH   7  13
ATOM     13  O   UNL     1      -0.241  11.900  21.379  0.00  0.00    +0.000 OA
BRANCH  13  14
ATOM     14  C   UNL     1      -1.561  12.118  20.875  0.00  0.00    +0.000 C 
BRANCH  14  16
ATOM     15  C   UNL     1      -2.433  11.980  23.200  0.00  0.00    +0.000 C 
ATOM     16  C   UNL     1      -2.438  12.797  21.915  0.00  0.00    +0.000 C 
ENDBRANCH  14  16
ENDBRANCH  13  14
ENDBRANCH   7  13
ENDBRANCH   1  10
BRANCH   5  17
ATOM     17  C   UNL     1       4.424   5.205  17.699  0.00  0.00    +0.000 A 
ATOM     18  C   UNL     1       5.568   6.004  17.528  0.00  0.00    +0.000 A 
ATOM     19  C   UNL     1       6.397   5.886  16.405  0.00  0.00    +0.000 A 
ATOM     20  C   UNL     1       6.126   4.927  15.430  0.00  0.00    +0.000 A 
ATOM     21  C   UNL     1       5.021   4.085  15.604  0.00  0.00    +0.000 A 
ATOM     22  C   UNL     1       4.178   4.231  16.715  0.00  0.00    +0.000 A 
BRANCH  20  23
ATOM     23  C   UNL     1       6.957   4.748  14.208  0.00  0.00    +0.000 C 
ATOM     24  N   UNL     1       6.666   3.710  13.360  0.00  0.00    +0.000 N 
ATOM     25  O   UNL     1       7.896   5.493  13.958  0.00  0.00    +0.000 OA
ATOM     26  H   UNL     1       5.944   3.023  13.507  0.00  0.00    +0.000 HD
ATOM     27  H   UNL     1       7.268   3.605  12.555  0.00  0.00    +0.000 HD
ENDBRANCH  20  23
ENDBRANCH   5  17
BRANCH   4  28
ATOM     28  N   UNL     1       3.770   3.062  19.695  0.00  0.00    +0.000 N 
ATOM     29  H   UNL     1       3.666   2.644  20.617  0.00  0.00    +0.000 HD
ATOM     30  H   UNL     1       4.738   3.096  19.397  0.00  0.00    +0.000 HD
ENDBRANCH   4  28
TORSDOF 7
ENDMDL
MODEL 7
REMARK VINA RESULT:      -7.5      1.322      1.683
REMARK  Name = 
REMARK  8 active torsions:
REMARK  status: ('A' for Active; 'I' for Inactive)
REMARK    1  A    between atoms: C_1  and  C_2
REMARK    2  A    between atoms: C_2  and  C_3
REMARK    3  A    between atoms: C_3  and  O_4
REMARK    4  A    between atoms: O_4  and  C_5
REMARK    5  A    between atoms: C_8  and  C_9
REMARK    6  A    between atoms: C_12  and  N_13
REMARK    7  A    between atoms: C_14  and  C_15
REMARK    8  A    between atoms: C_18  and  C_19
REMARK                            x       y       z     vdW  Elec       q    Type
REMARK                         _______ _______ _______ _____ _____    ______ ____
ROOT
ATOM      1  C   UNL     1       1.931   6.905  20.155  0.00  0.00    +0.000 A 
ATOM      2  C   UNL     1       1.632   5.777  20.918  0.00  0.00    +0.000 A 
ATOM      3  N   UNL     1       2.104   4.532  20.695  0.00  0.00    +0.000 NA
ATOM      4  C   UNL     1       2.917   4.361  19.639  0.00  0.00    +0.000 A 
ATOM      5  C   UNL     1       3.272   5.393  18.749  0.00  0.00    +0.000 A 
ATOM      6  C   UNL     1       2.761   6.675  19.051  0.00  0.00    +0.000 A 
ENDROOT
BRANCH   1  10
ATOM      7  C   UNL     1       0.338  10.767  21.255  0.00  0.00    +0.000 A 
ATOM      8  C   UNL     1       0.599   9.790  22.214  0.00  0.00    +0.000 A 
ATOM      9  C   UNL     1       1.136   8.558  21.847  0.00  0.00    +0.000 A 
ATOM     10  C   UNL     1       1.408   8.240  20.508  0.00  0.00    +0.000 A 
ATOM     11  C   UNL     1       1.153   9.240  19.551  0.00  0.00    +0.000 A 
ATOM     12  C   UNL     1       0.630  10.489  19.921  0.00  0.00    +0.000 A 
BRANCH   7  13
ATOM     13  O   UNL     1      -0.188  12.007  21.522  0.00  0.00    +0.000 OA
BRANCH  13  14
ATOM     14  C   UNL     1      -1.615  12.033  21.610  0.00  0.00    +0.000 C 
BRANCH  14  16
ATOM     15  C   UNL     1      -3.418  12.549  23.243  0.00  0.00    +0.000 C 
ATOM     16  C   UNL     1      -2.077  11.856  23.048  0.00  0.00    +0.000 C 
ENDBRANCH  14  16
ENDBRANCH  13  14
ENDBRANCH   7  13
ENDBRANCH   1  10
BRANCH   5  17
ATOM     17  C   UNL     1       4.136   5.195  17.557  0.00  0.00    +0.000 A 
ATOM     18  C   UNL     1       4.495   3.909  17.116  0.00  0.00    +0.000 A 
ATOM     19  C   UNL     1       5.345   3.709  16.021  0.00  0.00    +0.000 A 
ATOM     20  C   UNL     1       5.833   4.800  15.303  0.00  0.00    +0.000 A 
ATOM     21  C   UNL     1       5.448   6.088  15.692  0.00  0.00    +0.000 A 
ATOM     22  C   UNL     1       4.623   6.281  16.808  0.00  0.00    +0.000 A 
BRANCH  20  23
ATOM     23  C   UNL     1       6.745   4.666  14.134  0.00  0.00    +0.000 C 
ATOM     24  N   UNL     1       6.492   3.686  13.209  0.00  0.00    +0.000 N 
ATOM     25  O   UNL     1       7.718   5.397  13.994  0.00  0.00    +0.000 OA
ATOM     26  H   UNL     1       5.744   3.012  13.264  0.00  0.00    +0.000 HD
ATOM     27  H   UNL     1       7.147   3.609  12.443  0.00  0.00    +0.000 HD
ENDBRANCH  20  23
ENDBRANCH   5  17
BRANCH   4  28
ATOM     28  N   UNL     1       3.361   3.045  19.502  0.00  0.00    +0.000 N 
ATOM     29  H   UNL     1       3.771   2.789  20.397  0.00  0.00    +0.000 HD
ATOM     30  H   UNL     1       4.024   2.964  18.740  0.00  0.00    +0.000 HD
ENDBRANCH   4  28
TORSDOF 7
ENDMDL
MODEL 8
REMARK VINA RESULT:      -7.5      1.169      1.393
REMARK  Name = 
REMARK  8 active torsions:
REMARK  status: ('A' for Active; 'I' for Inactive)
REMARK    1  A    between atoms: C_1  and  C_2
REMARK    2  A    between atoms: C_2  and  C_3
REMARK    3  A    between atoms: C_3  and  O_4
REMARK    4  A    between atoms: O_4  and  C_5
REMARK    5  A    between atoms: C_8  and  C_9
REMARK    6  A    between atoms: C_12  and  N_13
REMARK    7  A    between atoms: C_14  and  C_15
REMARK    8  A    between atoms: C_18  and  C_19
REMARK                            x       y       z     vdW  Elec       q    Type
REMARK                         _______ _______ _______ _____ _____    ______ ____
ROOT
ATOM      1  C   UNL     1       1.945   6.840  20.120  0.00  0.00    +0.000 A 
ATOM      2  C   UNL     1       1.620   5.687  20.833  0.00  0.00    +0.000 A 
ATOM      3  N   UNL     1       2.092   4.449  20.577  0.00  0.00    +0.000 NA
ATOM      4  C   UNL     1       2.933   4.311  19.539  0.00  0.00    +0.000 A 
ATOM      5  C   UNL     1       3.318   5.373  18.698  0.00  0.00    +0.000 A 
ATOM      6  C   UNL     1       2.804   6.646  19.032  0.00  0.00    +0.000 A 
ENDROOT
BRANCH   1  10
ATOM      7  C   UNL     1       0.341  10.668  21.318  0.00  0.00    +0.000 A 
ATOM      8  C   UNL     1       0.576   9.658  22.248  0.00  0.00    +0.000 A 
ATOM      9  C   UNL     1       1.118   8.437  21.850  0.00  0.00    +0.000 A 
ATOM     10  C   UNL     1       1.419   8.164  20.507  0.00  0.00    +0.000 A 
ATOM     11  C   UNL     1       1.189   9.198  19.580  0.00  0.00    +0.000 A 
ATOM     12  C   UNL     1       0.661  10.436  19.982  0.00  0.00    +0.000 A 
BRANCH   7  13
ATOM     13  O   UNL     1      -0.187  11.901  21.616  0.00  0.00    +0.000 OA
BRANCH  13  14
ATOM     14  C   UNL     1      -1.050  11.910  22.756  0.00  0.00    +0.000 C 
BRANCH  14  16
ATOM     15  C   UNL     1      -3.331  12.390  23.620  0.00  0.00    +0.000 C 
ATOM     16  C   UNL     1      -2.438  12.406  22.387  0.00  0.00    +0.000 C 
ENDBRANCH  14  16
ENDBRANCH  13  14
ENDBRANCH   7  13
ENDBRANCH   1  10
BRANCH   5  17
ATOM     17  C   UNL     1       4.213   5.214  17.523  0.00  0.00    +0.000 A 
ATOM     18  C   UNL     1       4.625   6.320  16.759  0.00  0.00    +0.000 A 
ATOM     19  C   UNL     1       5.432   6.179  15.622  0.00  0.00    +0.000 A 
ATOM     20  C   UNL     1       5.888   4.919  15.237  0.00  0.00    +0.000 A 
ATOM     21  C   UNL     1       5.532   3.809  16.011  0.00  0.00    +0.000 A 
ATOM     22  C   UNL     1       4.699   3.954  17.129  0.00  0.00    +0.000 A 
BRANCH  20  23
ATOM     23  C   UNL     1       6.741   4.692  14.038  0.00  0.00    +0.000 C 
ATOM     24  N   UNL     1       7.827   5.505  13.839  0.00  0.00    +0.000 N 
ATOM     25  O   UNL     1       6.483   3.811  13.227  0.00  0.00    +0.000 OA
ATOM     26  H   UNL     1       8.090   6.280  14.427  0.00  0.00    +0.000 HD
ATOM     27  H   UNL     1       8.368   5.336  13.001  0.00  0.00    +0.000 HD
ENDBRANCH  20  23
ENDBRANCH   5  17
BRANCH   4  28
ATOM     28  N   UNL     1       3.375   2.999  19.366  0.00  0.00    +0.000 N 
ATOM     29  H   UNL     1       3.137   2.503  20.222  0.00  0.00    +0.000 HD
ATOM     30  H   UNL     1       4.370   2.974  19.173  0.00  0.00    +0.000 HD
ENDBRANCH   4  28
TORSDOF 7
ENDMDL
MODEL 9
REMARK VINA RESULT:      -7.4      0.469      1.061
REMARK  Name = 
REMARK  8 active torsions:
REMARK  status: ('A' for Active; 'I' for Inactive)
REMARK    1  A    between atoms: C_1  and  C_2
REMARK    2  A    between atoms: C_2  and  C_3
REMARK    3  A    between atoms: C_3  and  O_4
REMARK    4  A    between atoms: O_4  and  C_5
REMARK    5  A    between atoms: C_8  and  C_9
REMARK    6  A    between atoms: C_12  and  N_13
REMARK    7  A    between atoms: C_14  and  C_15
REMARK    8  A    between atoms: C_18  and  C_19
REMARK                            x       y       z     vdW  Elec       q    Type
REMARK                         _______ _______ _______ _____ _____    ______ ____
ROOT
ATOM      1  C   UNL     1       2.759   6.340  19.568  0.00  0.00    +0.000 A 
ATOM      2  C   UNL     1       2.771   5.197  20.366  0.00  0.00    +0.000 A 
ATOM      3  N   UNL     1       3.497   4.084  20.127  0.00  0.00    +0.000 NA
ATOM      4  C   UNL     1       4.257   4.068  19.020  0.00  0.00    +0.000 A 
ATOM      5  C   UNL     1       4.313   5.128  18.094  0.00  0.00    +0.000 A 
ATOM      6  C   UNL     1       3.547   6.271  18.413  0.00  0.00    +0.000 A 
ENDROOT
BRANCH   1  10
ATOM      7  C   UNL     1       0.392   9.772  20.701  0.00  0.00    +0.000 A 
ATOM      8  C   UNL     1       0.640   8.735  21.597  0.00  0.00    +0.000 A 
ATOM      9  C   UNL     1       1.426   7.647  21.225  0.00  0.00    +0.000 A 
ATOM     10  C   UNL     1       1.973   7.534  19.938  0.00  0.00    +0.000 A 
ATOM     11  C   UNL     1       1.726   8.595  19.047  0.00  0.00    +0.000 A 
ATOM     12  C   UNL     1       0.950   9.703  19.426  0.00  0.00    +0.000 A 
BRANCH   7  13
ATOM     13  O   UNL     1      -0.367  10.883  20.977  0.00  0.00    +0.000 OA
BRANCH  13  14
ATOM     14  C   UNL     1      -0.838  10.952  22.326  0.00  0.00    +0.000 C 
BRANCH  14  16
ATOM     15  C   UNL     1      -2.743  12.221  23.297  0.00  0.00    +0.000 C 
ATOM     16  C   UNL     1      -1.370  12.338  22.649  0.00  0.00    +0.000 C 
ENDBRANCH  14  16
ENDBRANCH  13  14
ENDBRANCH   7  13
ENDBRANCH   1  10
BRANCH   5  17
ATOM     17  C   UNL     1       5.121   5.094  16.848  0.00  0.00    +0.000 A 
ATOM     18  C   UNL     1       4.635   4.492  15.674  0.00  0.00    +0.000 A 
ATOM     19  C   UNL     1       5.403   4.413  14.505  0.00  0.00    +0.000 A 
ATOM     20  C   UNL     1       6.679   4.975  14.465  0.00  0.00    +0.000 A 
ATOM     21  C   UNL     1       7.164   5.624  15.606  0.00  0.00    +0.000 A 
ATOM     22  C   UNL     1       6.401   5.672  16.781  0.00  0.00    +0.000 A 
BRANCH  20  23
ATOM     23  C   UNL     1       7.555   4.924  13.263  0.00  0.00    +0.000 C 
ATOM     24  N   UNL     1       8.629   5.775  13.193  0.00  0.00    +0.000 N 
ATOM     25  O   UNL     1       7.327   4.155  12.337  0.00  0.00    +0.000 OA
ATOM     26  H   UNL     1       8.867   6.469  13.884  0.00  0.00    +0.000 HD
ATOM     27  H   UNL     1       9.185   5.729  12.350  0.00  0.00    +0.000 HD
ENDBRANCH  20  23
ENDBRANCH   5  17
BRANCH   4  28
ATOM     28  N   UNL     1       4.977   2.882  18.871  0.00  0.00    +0.000 N 
ATOM     29  H   UNL     1       5.412   2.698  19.771  0.00  0.00    +0.000 HD
ATOM     30  H   UNL     1       5.659   2.963  18.125  0.00  0.00    +0.000 HD
ENDBRANCH   4  28
TORSDOF 7
ENDMDL
