MODEL 1
REMARK VINA RESULT:      -8.4      0.000      0.000
REMARK  Name = 
REMARK  7 active torsions:
REMARK  status: ('A' for Active; 'I' for Inactive)
REMARK    1  A    between atoms: C_1  and  C_2
REMARK    2  A    between atoms: C_5  and  N_6
REMARK    3  A    between atoms: C_7  and  C_9
REMARK    4  A    between atoms: C_13  and  C_14
REMARK    5  A    between atoms: N_16  and  C_17
REMARK    6  A    between atoms: N_16  and  C_18
REMARK    7  A    between atoms: C_18  and  C_19
REMARK                            x       y       z     vdW  Elec       q    Type
REMARK                         _______ _______ _______ _____ _____    ______ ____
ROOT
ATOM      1  C   UNL     1       6.958   6.659  16.849  0.00  0.00    +0.000 A 
ATOM      2  N   UNL     1       7.640   6.106  15.762  0.00  0.00    +0.000 NA
ATOM      3  C   UNL     1       6.813   5.274  15.184  0.00  0.00    +0.000 A 
ATOM      4  N   UNL     1       5.617   5.278  15.812  0.00  0.00    +0.000 N 
ATOM      5  C   UNL     1       5.639   6.202  16.845  0.00  0.00    +0.000 A 
ATOM      6  H   UNL     1       4.822   4.695  15.585  0.00  0.00    +0.000 HD
ENDROOT
BRANCH   1   8
ATOM      7  N   UNL     1       7.676   8.886  17.485  0.00  0.00    +0.000 N 
ATOM      8  C   UNL     1       7.711   7.532  17.768  0.00  0.00    +0.000 C 
ATOM      9  O   UNL     1       8.303   7.047  18.727  0.00  0.00    +0.000 OA
ATOM     10  H   UNL     1       7.072   9.185  16.733  0.00  0.00    +0.000 HD
BRANCH   7  15
ATOM     11  C   UNL     1      10.506  13.193  19.994  0.00  0.00    +0.000 C 
ATOM     12  C   UNL     1       9.821  12.042  19.321  0.00  0.00    +0.000 A 
ATOM     13  C   UNL     1       9.901  10.755  19.855  0.00  0.00    +0.000 A 
ATOM     14  C   UNL     1       9.213   9.695  19.259  0.00  0.00    +0.000 A 
ATOM     15  C   UNL     1       8.423   9.902  18.125  0.00  0.00    +0.000 A 
ATOM     16  C   UNL     1       8.383  11.182  17.563  0.00  0.00    +0.000 A 
ATOM     17  C   UNL     1       9.081  12.243  18.151  0.00  0.00    +0.000 A 
ENDBRANCH   7  15
ENDBRANCH   1   8
BRANCH   5  18
ATOM     18  C   UNL     1       4.454   6.338  17.658  0.00  0.00    +0.000 C 
ATOM     19  O   UNL     1       3.592   7.137  17.285  0.00  0.00    +0.000 OA
ATOM     20  N   UNL     1       4.286   5.641  18.853  0.00  0.00    +0.000 N 
ATOM     21  C   UNL     1       5.289   4.822  19.527  0.00  0.00    +0.000 C 
BRANCH  20  22
ATOM     22  C   UNL     1       3.047   5.887  19.610  0.00  0.00    +0.000 C 
BRANCH  22  23
ATOM     23  C   UNL     1       2.183   4.652  19.786  0.00  0.00    +0.000 A 
ATOM     24  C   UNL     1       1.586   4.029  18.679  0.00  0.00    +0.000 A 
ATOM     25  C   UNL     1       0.817   2.871  18.835  0.00  0.00    +0.000 A 
ATOM     26  C   UNL     1       0.626   2.326  20.101  0.00  0.00    +0.000 A 
ATOM     27  C   UNL     1       1.198   2.941  21.213  0.00  0.00    +0.000 A 
ATOM     28  C   UNL     1       1.974   4.093  21.056  0.00  0.00    +0.000 A 
ENDBRANCH  22  23
ENDBRANCH  20  22
ENDBRANCH   5  18
TORSDOF 5
ENDMDL
MODEL 2
REMARK VINA RESULT:      -8.4      0.888      1.122
REMARK  Name = 
REMARK  7 active torsions:
REMARK  status: ('A' for Active; 'I' for Inactive)
REMARK    1  A    between atoms: C_1  and  C_2
REMARK    2  A    between atoms: C_5  and  N_6
REMARK    3  A    between atoms: C_7  and  C_9
REMARK    4  A    between atoms: C_13  and  C_14
REMARK    5  A    between atoms: N_16  and  C_17
REMARK    6  A    between atoms: N_16  and  C_18
REMARK    7  A    between atoms: C_18  and  C_19
REMARK                            x       y       z     vdW  Elec       q    Type
REMARK                         _______ _______ _______ _____ _____    ______ ____
ROOT
ATOM      1  C   UNL     1       7.019   6.524  17.226  0.00  0.00    +0.000 A 
ATOM      2  N   UNL     1       7.518   6.140  15.979  0.00  0.00    +0.000 NA
ATOM      3  C   UNL     1       6.736   5.189  15.539  0.00  0.00    +0.000 A 
ATOM      4  N   UNL     1       5.733   4.953  16.413  0.00  0.00    +0.000 N 
ATOM      5  C   UNL     1       5.833   5.833  17.481  0.00  0.00    +0.000 A 
ATOM      6  H   UNL     1       5.019   4.242  16.326  0.00  0.00    +0.000 HD
ENDROOT
BRANCH   1   8
ATOM      7  N   UNL     1       7.669   8.820  17.656  0.00  0.00    +0.000 N 
ATOM      8  C   UNL     1       7.801   7.492  18.018  0.00  0.00    +0.000 C 
ATOM      9  O   UNL     1       8.502   7.099  18.947  0.00  0.00    +0.000 OA
ATOM     10  H   UNL     1       6.985   9.040  16.947  0.00  0.00    +0.000 HD
BRANCH   7  15
ATOM     11  C   UNL     1      10.479  13.417  19.614  0.00  0.00    +0.000 C 
ATOM     12  C   UNL     1       9.799  12.191  19.085  0.00  0.00    +0.000 A 
ATOM     13  C   UNL     1       9.942  10.962  19.731  0.00  0.00    +0.000 A 
ATOM     14  C   UNL     1       9.260   9.833  19.270  0.00  0.00    +0.000 A 
ATOM     15  C   UNL     1       8.414   9.911  18.163  0.00  0.00    +0.000 A 
ATOM     16  C   UNL     1       8.309  11.132  17.486  0.00  0.00    +0.000 A 
ATOM     17  C   UNL     1       8.999  12.261  17.939  0.00  0.00    +0.000 A 
ENDBRANCH   7  15
ENDBRANCH   1   8
BRANCH   5  18
ATOM     18  C   UNL     1       4.861   5.724  18.543  0.00  0.00    +0.000 C 
ATOM     19  O   UNL     1       5.059   4.874  19.414  0.00  0.00    +0.000 OA
ATOM     20  N   UNL     1       3.707   6.502  18.580  0.00  0.00    +0.000 N 
ATOM     21  C   UNL     1       3.232   7.399  17.530  0.00  0.00    +0.000 C 
BRANCH  20  22
ATOM     22  C   UNL     1       2.775   6.277  19.698  0.00  0.00    +0.000 C 
BRANCH  22  23
ATOM     23  C   UNL     1       2.073   4.932  19.646  0.00  0.00    +0.000 A 
ATOM     24  C   UNL     1       1.693   4.365  18.420  0.00  0.00    +0.000 A 
ATOM     25  C   UNL     1       1.077   3.111  18.369  0.00  0.00    +0.000 A 
ATOM     26  C   UNL     1       0.823   2.411  19.544  0.00  0.00    +0.000 A 
ATOM     27  C   UNL     1       1.180   2.965  20.771  0.00  0.00    +0.000 A 
ATOM     28  C   UNL     1       1.803   4.215  20.822  0.00  0.00    +0.000 A 
ENDBRANCH  22  23
ENDBRANCH  20  22
ENDBRANCH   5  18
TORSDOF 5
ENDMDL
MODEL 3
REMARK VINA RESULT:      -8.3      4.327      7.182
REMARK  Name = 
REMARK  7 active torsions:
REMARK  status: ('A' for Active; 'I' for Inactive)
REMARK    1  A    between atoms: C_1  and  C_2
REMARK    2  A    between atoms: C_5  and  N_6
REMARK    3  A    between atoms: C_7  and  C_9
REMARK    4  A    between atoms: C_13  and  C_14
REMARK    5  A    between atoms: N_16  and  C_17
REMARK    6  A    between atoms: N_16  and  C_18
REMARK    7  A    between atoms: C_18  and  C_19
REMARK                            x       y       z     vdW  Elec       q    Type
REMARK                         _______ _______ _______ _____ _____    ______ ____
ROOT
ATOM      1  C   UNL     1       3.624   4.174  19.440  0.00  0.00    +0.000 A 
ATOM      2  N   UNL     1       3.133   3.193  20.305  0.00  0.00    +0.000 NA
ATOM      3  C   UNL     1       4.056   2.269  20.385  0.00  0.00    +0.000 A 
ATOM      4  N   UNL     1       5.136   2.608  19.647  0.00  0.00    +0.000 N 
ATOM      5  C   UNL     1       4.934   3.856  19.077  0.00  0.00    +0.000 A 
ATOM      6  H   UNL     1       5.966   2.047  19.511  0.00  0.00    +0.000 HD
ENDROOT
BRANCH   1   8
ATOM      7  N   UNL     1       2.957   6.495  19.662  0.00  0.00    +0.000 N 
ATOM      8  C   UNL     1       2.719   5.274  19.057  0.00  0.00    +0.000 C 
ATOM      9  O   UNL     1       1.833   5.078  18.231  0.00  0.00    +0.000 OA
ATOM     10  H   UNL     1       3.778   6.570  20.245  0.00  0.00    +0.000 HD
BRANCH   7  15
ATOM     11  C   UNL     1      -0.356  11.128  19.010  0.00  0.00    +0.000 C 
ATOM     12  C   UNL     1       0.548   9.950  19.217  0.00  0.00    +0.000 A 
ATOM     13  C   UNL     1       0.623   9.320  20.460  0.00  0.00    +0.000 A 
ATOM     14  C   UNL     1       1.422   8.186  20.634  0.00  0.00    +0.000 A 
ATOM     15  C   UNL     1       2.151   7.654  19.569  0.00  0.00    +0.000 A 
ATOM     16  C   UNL     1       2.113   8.315  18.337  0.00  0.00    +0.000 A 
ATOM     17  C   UNL     1       1.324   9.457  18.162  0.00  0.00    +0.000 A 
ENDBRANCH   7  15
ENDBRANCH   1   8
BRANCH   5  18
ATOM     18  C   UNL     1       5.971   4.388  18.225  0.00  0.00    +0.000 C 
ATOM     19  O   UNL     1       7.048   4.679  18.748  0.00  0.00    +0.000 OA
ATOM     20  N   UNL     1       5.772   4.622  16.866  0.00  0.00    +0.000 N 
ATOM     21  C   UNL     1       4.506   4.522  16.146  0.00  0.00    +0.000 C 
BRANCH  20  22
ATOM     22  C   UNL     1       6.896   5.197  16.108  0.00  0.00    +0.000 C 
BRANCH  22  23
ATOM     23  C   UNL     1       6.898   4.817  14.638  0.00  0.00    +0.000 A 
ATOM     24  C   UNL     1       7.718   5.495  13.722  0.00  0.00    +0.000 A 
ATOM     25  C   UNL     1       7.746   5.124  12.374  0.00  0.00    +0.000 A 
ATOM     26  C   UNL     1       6.949   4.078  11.921  0.00  0.00    +0.000 A 
ATOM     27  C   UNL     1       6.118   3.404  12.814  0.00  0.00    +0.000 A 
ATOM     28  C   UNL     1       6.095   3.769  14.163  0.00  0.00    +0.000 A 
ENDBRANCH  22  23
ENDBRANCH  20  22
ENDBRANCH   5  18
TORSDOF 5
ENDMDL
MODEL 4
REMARK VINA RESULT:      -8.2      4.313      7.173
REMARK  Name = 
REMARK  7 active torsions:
REMARK  status: ('A' for Active; 'I' for Inactive)
REMARK    1  A    between atoms: C_1  and  C_2
REMARK    2  A    between atoms: C_5  and  N_6
REMARK    3  A    between atoms: C_7  and  C_9
REMARK    4  A    between atoms: C_13  and  C_14
REMARK    5  A    between atoms: N_16  and  C_17
REMARK    6  A    between atoms: N_16  and  C_18
REMARK    7  A    between atoms: C_18  and  C_19
REMARK                            x       y       z     vdW  Elec       q    Type
REMARK                         _______ _______ _______ _____ _____    ______ ____
ROOT
ATOM      1  C   UNL     1       3.585   3.992  19.593  0.00  0.00    +0.000 A 
ATOM      2  N   UNL     1       3.171   2.945  20.420  0.00  0.00    +0.000 NA
ATOM      3  C   UNL     1       4.142   2.069  20.430  0.00  0.00    +0.000 A 
ATOM      4  N   UNL     1       5.181   2.500  19.683  0.00  0.00    +0.000 N 
ATOM      5  C   UNL     1       4.899   3.762  19.181  0.00  0.00    +0.000 A 
ATOM      6  H   UNL     1       6.036   1.991  19.499  0.00  0.00    +0.000 HD
ENDROOT
BRANCH   1   8
ATOM      7  N   UNL     1       3.056   6.356  19.482  0.00  0.00    +0.000 N 
ATOM      8  C   UNL     1       2.615   5.059  19.288  0.00  0.00    +0.000 C 
ATOM      9  O   UNL     1       1.497   4.770  18.869  0.00  0.00    +0.000 OA
ATOM     10  H   UNL     1       4.027   6.481  19.728  0.00  0.00    +0.000 HD
BRANCH   7  15
ATOM     11  C   UNL     1      -0.036  11.183  19.413  0.00  0.00    +0.000 C 
ATOM     12  C   UNL     1       0.730   9.894  19.395  0.00  0.00    +0.000 A 
ATOM     13  C   UNL     1       1.359   9.456  18.229  0.00  0.00    +0.000 A 
ATOM     14  C   UNL     1       2.121   8.285  18.230  0.00  0.00    +0.000 A 
ATOM     15  C   UNL     1       2.278   7.534  19.397  0.00  0.00    +0.000 A 
ATOM     16  C   UNL     1       1.607   7.947  20.553  0.00  0.00    +0.000 A 
ATOM     17  C   UNL     1       0.834   9.114  20.551  0.00  0.00    +0.000 A 
ENDBRANCH   7  15
ENDBRANCH   1   8
BRANCH   5  18
ATOM     18  C   UNL     1       5.883   4.388  18.330  0.00  0.00    +0.000 C 
ATOM     19  O   UNL     1       6.921   4.794  18.858  0.00  0.00    +0.000 OA
ATOM     20  N   UNL     1       5.672   4.587  16.968  0.00  0.00    +0.000 N 
ATOM     21  C   UNL     1       4.428   4.350  16.240  0.00  0.00    +0.000 C 
BRANCH  20  22
ATOM     22  C   UNL     1       6.737   5.266  16.211  0.00  0.00    +0.000 C 
BRANCH  22  23
ATOM     23  C   UNL     1       6.823   4.835  14.758  0.00  0.00    +0.000 A 
ATOM     24  C   UNL     1       6.031   3.784  14.271  0.00  0.00    +0.000 A 
ATOM     25  C   UNL     1       6.085   3.408  12.925  0.00  0.00    +0.000 A 
ATOM     26  C   UNL     1       6.939   4.072  12.050  0.00  0.00    +0.000 A 
ATOM     27  C   UNL     1       7.744   5.108  12.519  0.00  0.00    +0.000 A 
ATOM     28  C   UNL     1       7.684   5.489  13.862  0.00  0.00    +0.000 A 
ENDBRANCH  22  23
ENDBRANCH  20  22
ENDBRANCH   5  18
TORSDOF 5
ENDMDL
MODEL 5
REMARK VINA RESULT:      -8.2      0.903      1.740
REMARK  Name = 
REMARK  7 active torsions:
REMARK  status: ('A' for Active; 'I' for Inactive)
REMARK    1  A    between atoms: C_1  and  C_2
REMARK    2  A    between atoms: C_5  and  N_6
REMARK    3  A    between atoms: C_7  and  C_9
REMARK    4  A    between atoms: C_13  and  C_14
REMARK    5  A    between atoms: N_16  and  C_17
REMARK    6  A    between atoms: N_16  and  C_18
REMARK    7  A    between atoms: C_18  and  C_19
REMARK                            x       y       z     vdW  Elec       q    Type
REMARK                         _______ _______ _______ _____ _____    ______ ____
ROOT
ATOM      1  C   UNL     1       7.033   6.532  17.231  0.00  0.00    +0.000 A 
ATOM      2  N   UNL     1       7.524   6.169  15.974  0.00  0.00    +0.000 NA
ATOM      3  C   UNL     1       6.715   5.253  15.507  0.00  0.00    +0.000 A 
ATOM      4  N   UNL     1       5.705   5.022  16.374  0.00  0.00    +0.000 N 
ATOM      5  C   UNL     1       5.828   5.869  17.465  0.00  0.00    +0.000 A 
ATOM      6  H   UNL     1       4.971   4.334  16.266  0.00  0.00    +0.000 HD
ENDROOT
BRANCH   1   8
ATOM      7  N   UNL     1       7.770   8.793  17.708  0.00  0.00    +0.000 N 
ATOM      8  C   UNL     1       7.842   7.454  18.050  0.00  0.00    +0.000 C 
ATOM      9  O   UNL     1       8.511   7.019  18.983  0.00  0.00    +0.000 OA
ATOM     10  H   UNL     1       7.108   9.051  16.991  0.00  0.00    +0.000 HD
BRANCH   7  15
ATOM     11  C   UNL     1      11.081  12.857  20.027  0.00  0.00    +0.000 C 
ATOM     12  C   UNL     1      10.167  11.833  19.425  0.00  0.00    +0.000 A 
ATOM     13  C   UNL     1       9.640  12.013  18.145  0.00  0.00    +0.000 A 
ATOM     14  C   UNL     1       8.836  11.030  17.563  0.00  0.00    +0.000 A 
ATOM     15  C   UNL     1       8.551   9.844  18.242  0.00  0.00    +0.000 A 
ATOM     16  C   UNL     1       9.039   9.685  19.544  0.00  0.00    +0.000 A 
ATOM     17  C   UNL     1       9.835  10.673  20.133  0.00  0.00    +0.000 A 
ENDBRANCH   7  15
ENDBRANCH   1   8
BRANCH   5  18
ATOM     18  C   UNL     1       4.852   5.757  18.523  0.00  0.00    +0.000 C 
ATOM     19  O   UNL     1       5.047   4.908  19.395  0.00  0.00    +0.000 OA
ATOM     20  N   UNL     1       3.696   6.534  18.555  0.00  0.00    +0.000 N 
ATOM     21  C   UNL     1       3.225   7.431  17.504  0.00  0.00    +0.000 C 
BRANCH  20  22
ATOM     22  C   UNL     1       2.760   6.308  19.669  0.00  0.00    +0.000 C 
BRANCH  22  23
ATOM     23  C   UNL     1       2.094   4.944  19.640  0.00  0.00    +0.000 A 
ATOM     24  C   UNL     1       1.810   4.256  20.830  0.00  0.00    +0.000 A 
ATOM     25  C   UNL     1       1.165   3.015  20.805  0.00  0.00    +0.000 A 
ATOM     26  C   UNL     1       0.806   2.440  19.590  0.00  0.00    +0.000 A 
ATOM     27  C   UNL     1       1.094   3.102  18.398  0.00  0.00    +0.000 A 
ATOM     28  C   UNL     1       1.731   4.346  18.423  0.00  0.00    +0.000 A 
ENDBRANCH  22  23
ENDBRANCH  20  22
ENDBRANCH   5  18
TORSDOF 5
ENDMDL
MODEL 6
REMARK VINA RESULT:      -8.0      0.850      1.364
REMARK  Name = 
REMARK  7 active torsions:
REMARK  status: ('A' for Active; 'I' for Inactive)
REMARK    1  A    between atoms: C_1  and  C_2
REMARK    2  A    between atoms: C_5  and  N_6
REMARK    3  A    between atoms: C_7  and  C_9
REMARK    4  A    between atoms: C_13  and  C_14
REMARK    5  A    between atoms: N_16  and  C_17
REMARK    6  A    between atoms: N_16  and  C_18
REMARK    7  A    between atoms: C_18  and  C_19
REMARK                            x       y       z     vdW  Elec       q    Type
REMARK                         _______ _______ _______ _____ _____    ______ ____
ROOT
ATOM      1  C   UNL     1       6.881   6.438  16.630  0.00  0.00    +0.000 A 
ATOM      2  N   UNL     1       7.656   5.836  15.635  0.00  0.00    +0.000 NA
ATOM      3  C   UNL     1       6.870   5.006  14.999  0.00  0.00    +0.000 A 
ATOM      4  N   UNL     1       5.617   5.057  15.501  0.00  0.00    +0.000 N 
ATOM      5  C   UNL     1       5.558   6.013  16.504  0.00  0.00    +0.000 A 
ATOM      6  H   UNL     1       4.833   4.487  15.210  0.00  0.00    +0.000 HD
ENDROOT
BRANCH   1   8
ATOM      7  N   UNL     1       7.572   8.669  17.283  0.00  0.00    +0.000 N 
ATOM      8  C   UNL     1       7.560   7.321  17.596  0.00  0.00    +0.000 C 
ATOM      9  O   UNL     1       8.054   6.849  18.616  0.00  0.00    +0.000 OA
ATOM     10  H   UNL     1       7.044   8.960  16.473  0.00  0.00    +0.000 HD
BRANCH   7  15
ATOM     11  C   UNL     1      10.604  12.603  20.146  0.00  0.00    +0.000 C 
ATOM     12  C   UNL     1       9.759  11.603  19.416  0.00  0.00    +0.000 A 
ATOM     13  C   UNL     1       9.039  11.973  18.279  0.00  0.00    +0.000 A 
ATOM     14  C   UNL     1       8.300  11.025  17.566  0.00  0.00    +0.000 A 
ATOM     15  C   UNL     1       8.273   9.689  17.969  0.00  0.00    +0.000 A 
ATOM     16  C   UNL     1       8.955   9.328  19.136  0.00  0.00    +0.000 A 
ATOM     17  C   UNL     1       9.686  10.277  19.858  0.00  0.00    +0.000 A 
ENDBRANCH   7  15
ENDBRANCH   1   8
BRANCH   5  18
ATOM     18  C   UNL     1       4.300   6.202  17.187  0.00  0.00    +0.000 C 
ATOM     19  O   UNL     1       3.995   7.350  17.518  0.00  0.00    +0.000 OA
ATOM     20  N   UNL     1       3.465   5.137  17.519  0.00  0.00    +0.000 N 
ATOM     21  C   UNL     1       3.774   3.717  17.379  0.00  0.00    +0.000 C 
BRANCH  20  22
ATOM     22  C   UNL     1       2.222   5.454  18.243  0.00  0.00    +0.000 C 
BRANCH  22  23
ATOM     23  C   UNL     1       1.927   4.506  19.392  0.00  0.00    +0.000 A 
ATOM     24  C   UNL     1       1.052   3.422  19.224  0.00  0.00    +0.000 A 
ATOM     25  C   UNL     1       0.806   2.529  20.272  0.00  0.00    +0.000 A 
ATOM     26  C   UNL     1       1.423   2.714  21.505  0.00  0.00    +0.000 A 
ATOM     27  C   UNL     1       2.282   3.794  21.694  0.00  0.00    +0.000 A 
ATOM     28  C   UNL     1       2.535   4.682  20.645  0.00  0.00    +0.000 A 
ENDBRANCH  22  23
ENDBRANCH  20  22
ENDBRANCH   5  18
TORSDOF 5
ENDMDL
MODEL 7
REMARK VINA RESULT:      -7.7      0.454      1.342
REMARK  Name = 
REMARK  7 active torsions:
REMARK  status: ('A' for Active; 'I' for Inactive)
REMARK    1  A    between atoms: C_1  and  C_2
REMARK    2  A    between atoms: C_5  and  N_6
REMARK    3  A    between atoms: C_7  and  C_9
REMARK    4  A    between atoms: C_13  and  C_14
REMARK    5  A    between atoms: N_16  and  C_17
REMARK    6  A    between atoms: N_16  and  C_18
REMARK    7  A    between atoms: C_18  and  C_19
REMARK                            x       y       z     vdW  Elec       q    Type
REMARK                         _______ _______ _______ _____ _____    ______ ____
ROOT
ATOM      1  C   UNL     1       6.998   6.682  16.769  0.00  0.00    +0.000 A 
ATOM      2  N   UNL     1       7.668   6.221  15.633  0.00  0.00    +0.000 NA
ATOM      3  C   UNL     1       6.876   5.355  15.057  0.00  0.00    +0.000 A 
ATOM      4  N   UNL     1       5.712   5.249  15.734  0.00  0.00    +0.000 N 
ATOM      5  C   UNL     1       5.716   6.132  16.803  0.00  0.00    +0.000 A 
ATOM      6  H   UNL     1       4.950   4.620  15.517  0.00  0.00    +0.000 HD
ENDROOT
BRANCH   1   8
ATOM      7  N   UNL     1       7.674   8.923  17.402  0.00  0.00    +0.000 N 
ATOM      8  C   UNL     1       7.729   7.571  17.691  0.00  0.00    +0.000 C 
ATOM      9  O   UNL     1       8.322   7.099  18.657  0.00  0.00    +0.000 OA
ATOM     10  H   UNL     1       7.071   9.209  16.645  0.00  0.00    +0.000 HD
BRANCH   7  15
ATOM     11  C   UNL     1      10.802  12.901  20.096  0.00  0.00    +0.000 C 
ATOM     12  C   UNL     1       9.933  11.891  19.409  0.00  0.00    +0.000 A 
ATOM     13  C   UNL     1       9.212  12.233  18.264  0.00  0.00    +0.000 A 
ATOM     14  C   UNL     1       8.449  11.274  17.592  0.00  0.00    +0.000 A 
ATOM     15  C   UNL     1       8.400   9.953  18.044  0.00  0.00    +0.000 A 
ATOM     16  C   UNL     1       9.083   9.623  19.220  0.00  0.00    +0.000 A 
ATOM     17  C   UNL     1       9.838  10.584  19.901  0.00  0.00    +0.000 A 
ENDBRANCH   7  15
ENDBRANCH   1   8
BRANCH   5  18
ATOM     18  C   UNL     1       4.562   6.152  17.670  0.00  0.00    +0.000 C 
ATOM     19  O   UNL     1       3.596   6.834  17.323  0.00  0.00    +0.000 OA
ATOM     20  N   UNL     1       4.532   5.474  18.887  0.00  0.00    +0.000 N 
ATOM     21  C   UNL     1       5.655   4.795  19.528  0.00  0.00    +0.000 C 
BRANCH  20  22
ATOM     22  C   UNL     1       3.310   5.595  19.699  0.00  0.00    +0.000 C 
BRANCH  22  23
ATOM     23  C   UNL     1       2.365   4.415  19.560  0.00  0.00    +0.000 A 
ATOM     24  C   UNL     1       1.372   4.172  20.522  0.00  0.00    +0.000 A 
ATOM     25  C   UNL     1       0.479   3.105  20.379  0.00  0.00    +0.000 A 
ATOM     26  C   UNL     1       0.574   2.261  19.277  0.00  0.00    +0.000 A 
ATOM     27  C   UNL     1       1.563   2.478  18.320  0.00  0.00    +0.000 A 
ATOM     28  C   UNL     1       2.450   3.549  18.459  0.00  0.00    +0.000 A 
ENDBRANCH  22  23
ENDBRANCH  20  22
ENDBRANCH   5  18
TORSDOF 5
ENDMDL
MODEL 8
REMARK VINA RESULT:      -7.7      4.319      7.027
REMARK  Name = 
REMARK  7 active torsions:
REMARK  status: ('A' for Active; 'I' for Inactive)
REMARK    1  A    between atoms: C_1  and  C_2
REMARK    2  A    between atoms: C_5  and  N_6
REMARK    3  A    between atoms: C_7  and  C_9
REMARK    4  A    between atoms: C_13  and  C_14
REMARK    5  A    between atoms: N_16  and  C_17
REMARK    6  A    between atoms: N_16  and  C_18
REMARK    7  A    between atoms: C_18  and  C_19
REMARK                            x       y       z     vdW  Elec       q    Type
REMARK                         _______ _______ _______ _____ _____    ______ ____
ROOT
ATOM      1  C   UNL     1       3.653   3.969  19.875  0.00  0.00    +0.000 A 
ATOM      2  N   UNL     1       3.290   2.831  20.599  0.00  0.00    +0.000 NA
ATOM      3  C   UNL     1       4.203   1.926  20.357  0.00  0.00    +0.000 A 
ATOM      4  N   UNL     1       5.160   2.421  19.543  0.00  0.00    +0.000 N 
ATOM      5  C   UNL     1       4.888   3.751  19.262  0.00  0.00    +0.000 A 
ATOM      6  H   UNL     1       5.954   1.911  19.176  0.00  0.00    +0.000 HD
ENDROOT
BRANCH   1   8
ATOM      7  N   UNL     1       3.079   6.182  19.066  0.00  0.00    +0.000 N 
ATOM      8  C   UNL     1       2.713   5.106  19.854  0.00  0.00    +0.000 C 
ATOM      9  O   UNL     1       1.670   5.050  20.499  0.00  0.00    +0.000 OA
ATOM     10  H   UNL     1       3.906   6.078  18.496  0.00  0.00    +0.000 HD
BRANCH   7  15
ATOM     11  C   UNL     1       0.486  11.295  19.039  0.00  0.00    +0.000 C 
ATOM     12  C   UNL     1       1.120   9.936  19.008  0.00  0.00    +0.000 A 
ATOM     13  C   UNL     1       1.730   9.461  17.846  0.00  0.00    +0.000 A 
ATOM     14  C   UNL     1       2.371   8.220  17.837  0.00  0.00    +0.000 A 
ATOM     15  C   UNL     1       2.424   7.434  18.990  0.00  0.00    +0.000 A 
ATOM     16  C   UNL     1       1.771   7.889  20.140  0.00  0.00    +0.000 A 
ATOM     17  C   UNL     1       1.118   9.126  20.148  0.00  0.00    +0.000 A 
ENDBRANCH   7  15
ENDBRANCH   1   8
BRANCH   5  18
ATOM     18  C   UNL     1       5.788   4.456  18.380  0.00  0.00    +0.000 C 
ATOM     19  O   UNL     1       6.808   4.943  18.873  0.00  0.00    +0.000 OA
ATOM     20  N   UNL     1       5.514   4.638  17.026  0.00  0.00    +0.000 N 
ATOM     21  C   UNL     1       4.269   4.303  16.341  0.00  0.00    +0.000 C 
BRANCH  20  22
ATOM     22  C   UNL     1       6.494   5.402  16.235  0.00  0.00    +0.000 C 
BRANCH  22  23
ATOM     23  C   UNL     1       6.628   4.923  14.801  0.00  0.00    +0.000 A 
ATOM     24  C   UNL     1       7.607   5.461  13.952  0.00  0.00    +0.000 A 
ATOM     25  C   UNL     1       7.754   4.997  12.641  0.00  0.00    +0.000 A 
ATOM     26  C   UNL     1       6.917   3.995  12.158  0.00  0.00    +0.000 A 
ATOM     27  C   UNL     1       5.930   3.460  12.983  0.00  0.00    +0.000 A 
ATOM     28  C   UNL     1       5.788   3.918  14.296  0.00  0.00    +0.000 A 
ENDBRANCH  22  23
ENDBRANCH  20  22
ENDBRANCH   5  18
TORSDOF 5
ENDMDL
MODEL 9
REMARK VINA RESULT:      -7.7      4.111      7.019
REMARK  Name = 
REMARK  7 active torsions:
REMARK  status: ('A' for Active; 'I' for Inactive)
REMARK    1  A    between atoms: C_1  and  C_2
REMARK    2  A    between atoms: C_5  and  N_6
REMARK    3  A    between atoms: C_7  and  C_9
REMARK    4  A    between atoms: C_13  and  C_14
REMARK    5  A    between atoms: N_16  and  C_17
REMARK    6  A    between atoms: N_16  and  C_18
REMARK    7  A    between atoms: C_18  and  C_19
REMARK                            x       y       z     vdW  Elec       q    Type
REMARK                         _______ _______ _______ _____ _____    ______ ____
ROOT
ATOM      1  C   UNL     1       3.548   4.467  19.636  0.00  0.00    +0.000 A 
ATOM      2  N   UNL     1       3.600   3.321  20.434  0.00  0.00    +0.000 NA
ATOM      3  C   UNL     1       4.485   2.526  19.889  0.00  0.00    +0.000 A 
ATOM      4  N   UNL     1       5.037   3.102  18.800  0.00  0.00    +0.000 N 
ATOM      5  C   UNL     1       4.518   4.378  18.637  0.00  0.00    +0.000 A 
ATOM      6  H   UNL     1       5.717   2.680  18.181  0.00  0.00    +0.000 HD
ENDROOT
BRANCH   1   8
ATOM      7  N   UNL     1       2.690   6.718  19.354  0.00  0.00    +0.000 N 
ATOM      8  C   UNL     1       2.519   5.478  19.944  0.00  0.00    +0.000 C 
ATOM      9  O   UNL     1       1.573   5.189  20.671  0.00  0.00    +0.000 OA
ATOM     10  H   UNL     1       3.445   6.813  18.690  0.00  0.00    +0.000 HD
BRANCH   7  15
ATOM     11  C   UNL     1      -0.487  11.433  20.082  0.00  0.00    +0.000 C 
ATOM     12  C   UNL     1       0.387  10.225  19.928  0.00  0.00    +0.000 A 
ATOM     13  C   UNL     1       0.593   9.355  21.000  0.00  0.00    +0.000 A 
ATOM     14  C   UNL     1       1.360   8.198  20.838  0.00  0.00    +0.000 A 
ATOM     15  C   UNL     1       1.927   7.883  19.601  0.00  0.00    +0.000 A 
ATOM     16  C   UNL     1       1.761   8.781  18.541  0.00  0.00    +0.000 A 
ATOM     17  C   UNL     1       1.003   9.945  18.704  0.00  0.00    +0.000 A 
ENDBRANCH   7  15
ENDBRANCH   1   8
BRANCH   5  18
ATOM     18  C   UNL     1       4.967   5.153  17.505  0.00  0.00    +0.000 C 
ATOM     19  O   UNL     1       4.119   5.785  16.871  0.00  0.00    +0.000 OA
ATOM     20  N   UNL     1       6.297   5.165  17.090  0.00  0.00    +0.000 N 
ATOM     21  C   UNL     1       7.372   4.321  17.603  0.00  0.00    +0.000 C 
BRANCH  20  22
ATOM     22  C   UNL     1       6.627   5.970  15.902  0.00  0.00    +0.000 C 
BRANCH  22  23
ATOM     23  C   UNL     1       6.620   5.179  14.607  0.00  0.00    +0.000 A 
ATOM     24  C   UNL     1       7.628   5.362  13.647  0.00  0.00    +0.000 A 
ATOM     25  C   UNL     1       7.641   4.609  12.468  0.00  0.00    +0.000 A 
ATOM     26  C   UNL     1       6.641   3.672  12.228  0.00  0.00    +0.000 A 
ATOM     27  C   UNL     1       5.625   3.488  13.163  0.00  0.00    +0.000 A 
ATOM     28  C   UNL     1       5.616   4.234  14.345  0.00  0.00    +0.000 A 
ENDBRANCH  22  23
ENDBRANCH  20  22
ENDBRANCH   5  18
TORSDOF 5
ENDMDL
