MODEL 1
REMARK VINA RESULT:      -8.3      0.000      0.000
REMARK  Name = 
REMARK  14 active torsions:
REMARK  status: ('A' for Active; 'I' for Inactive)
REMARK    1  A    between atoms: C_1  and  O_2
REMARK    2  A    between atoms: O_2  and  C_3
REMARK    3  A    between atoms: C_6  and  O_7
REMARK    4  A    between atoms: O_7  and  C_8
REMARK    5  A    between atoms: C_8  and  C_9
REMARK    6  A    between atoms: C_9  and  C_10
REMARK    7  A    between atoms: C_10  and  C_11
REMARK    8  A    between atoms: C_11  and  C_12
REMARK    9  A    between atoms: C_12  and  C_13
REMARK   10  A    between atoms: C_13  and  N_14
REMARK   11  A    between atoms: N_14  and  C_15
REMARK   12  A    between atoms: N_14  and  C_16
REMARK   13  A    between atoms: C_22  and  C_23
REMARK   14  A    between atoms: C_32  and  C_33
REMARK                            x       y       z     vdW  Elec       q    Type
REMARK                         _______ _______ _______ _____ _____    ______ ____
ROOT
ATOM      1  C   UNL     1       6.071   4.199  14.143  0.00  0.00    +0.000 A 
ATOM      2  C   UNL     1       7.314   4.764  14.435  0.00  0.00    +0.000 A 
ATOM      3  C   UNL     1       7.652   5.167  15.743  0.00  0.00    +0.000 A 
ATOM      4  C   UNL     1       6.748   5.027  16.793  0.00  0.00    +0.000 A 
ATOM      5  C   UNL     1       5.439   4.542  16.472  0.00  0.00    +0.000 A 
ATOM      6  C   UNL     1       5.127   4.122  15.152  0.00  0.00    +0.000 A 
ENDROOT
BRANCH   5   7
ATOM      7  C   UNL     1       4.431   4.315  17.562  0.00  0.00    +0.000 C 
ATOM      8  S   UNL     1       3.788   2.623  17.430  0.00  0.00    +0.000 S 
ATOM      9  C   UNL     1       2.676   3.062  18.702  0.00  0.00    +0.000 A 
ATOM     10  C   UNL     1       2.321   2.192  19.720  0.00  0.00    +0.000 A 
ATOM     11  C   UNL     1       1.428   2.636  20.673  0.00  0.00    +0.000 A 
ATOM     12  C   UNL     1       0.859   3.917  20.525  0.00  0.00    +0.000 A 
ATOM     13  C   UNL     1       1.302   4.807  19.545  0.00  0.00    +0.000 A 
ATOM     14  C   UNL     1       2.342   4.421  18.697  0.00  0.00    +0.000 A 
ATOM     15  N   UNL     1       3.226   5.202  17.855  0.00  0.00    +0.000 N 
ATOM     16  C   UNL     1       3.347   6.573  17.723  0.00  0.00    +0.000 C 
ATOM     17  C   UNL     1       2.489   7.573  18.484  0.00  0.00    +0.000 C 
ATOM     18  O   UNL     1       4.213   7.074  16.996  0.00  0.00    +0.000 OA
ENDBRANCH   5   7
BRANCH   1  20
ATOM     19  C   UNL     1       4.626   3.334  12.445  0.00  0.00    +0.000 C 
ATOM     20  O   UNL     1       5.925   3.748  12.858  0.00  0.00    +0.000 OA
ENDBRANCH   1  20
BRANCH   4  21
ATOM     21  O   UNL     1       7.072   5.298  18.119  0.00  0.00    +0.000 OA
BRANCH  21  22
ATOM     22  C   UNL     1       7.632   6.608  18.459  0.00  0.00    +0.000 C 
BRANCH  22  23
ATOM     23  C   UNL     1       7.316   7.698  17.391  0.00  0.00    +0.000 C 
BRANCH  23  24
ATOM     24  C   UNL     1       8.050   9.037  17.660  0.00  0.00    +0.000 C 
BRANCH  24  25
ATOM     25  C   UNL     1       8.921   9.011  18.933  0.00  0.00    +0.000 C 
BRANCH  25  26
ATOM     26  C   UNL     1       9.209  10.431  19.464  0.00  0.00    +0.000 C 
BRANCH  26  27
ATOM     27  C   UNL     1      10.273  11.177  18.639  0.00  0.00    +0.000 C 
BRANCH  27  28
ATOM     28  N   UNL     1      10.952  12.279  19.355  0.00  0.00    +0.000 NA
ATOM     29  C   UNL     1      12.313  11.873  19.733  0.00  0.00    +0.000 C 
BRANCH  28  30
ATOM     30  C   UNL     1      10.938  13.546  18.567  0.00  0.00    +0.000 C 
ATOM     31  C   UNL     1       9.601  13.766  17.811  0.00  0.00    +0.000 C 
ATOM     32  C   UNL     1       8.419  13.954  18.765  0.00  0.00    +0.000 C 
ATOM     33  C   UNL     1       8.659  15.115  19.728  0.00  0.00    +0.000 C 
ATOM     34  C   UNL     1      10.000  14.994  20.447  0.00  0.00    +0.000 C 
ATOM     35  C   UNL     1      11.141  14.809  19.444  0.00  0.00    +0.000 C 
ENDBRANCH  28  30
ENDBRANCH  27  28
ENDBRANCH  26  27
ENDBRANCH  25  26
ENDBRANCH  24  25
ENDBRANCH  23  24
ENDBRANCH  22  23
ENDBRANCH  21  22
ENDBRANCH   4  21
TORSDOF 11
ENDMDL
MODEL 2
REMARK VINA RESULT:      -8.1      1.027      1.391
REMARK  Name = 
REMARK  14 active torsions:
REMARK  status: ('A' for Active; 'I' for Inactive)
REMARK    1  A    between atoms: C_1  and  O_2
REMARK    2  A    between atoms: O_2  and  C_3
REMARK    3  A    between atoms: C_6  and  O_7
REMARK    4  A    between atoms: O_7  and  C_8
REMARK    5  A    between atoms: C_8  and  C_9
REMARK    6  A    between atoms: C_9  and  C_10
REMARK    7  A    between atoms: C_10  and  C_11
REMARK    8  A    between atoms: C_11  and  C_12
REMARK    9  A    between atoms: C_12  and  C_13
REMARK   10  A    between atoms: C_13  and  N_14
REMARK   11  A    between atoms: N_14  and  C_15
REMARK   12  A    between atoms: N_14  and  C_16
REMARK   13  A    between atoms: C_22  and  C_23
REMARK   14  A    between atoms: C_32  and  C_33
REMARK                            x       y       z     vdW  Elec       q    Type
REMARK                         _______ _______ _______ _____ _____    ______ ____
ROOT
ATOM      1  C   UNL     1       5.900   4.057  14.093  0.00  0.00    +0.000 A 
ATOM      2  C   UNL     1       7.045   4.858  14.083  0.00  0.00    +0.000 A 
ATOM      3  C   UNL     1       7.458   5.568  15.228  0.00  0.00    +0.000 A 
ATOM      4  C   UNL     1       6.729   5.504  16.414  0.00  0.00    +0.000 A 
ATOM      5  C   UNL     1       5.502   4.764  16.391  0.00  0.00    +0.000 A 
ATOM      6  C   UNL     1       5.115   4.040  15.232  0.00  0.00    +0.000 A 
ENDROOT
BRANCH   5   7
ATOM      7  C   UNL     1       4.693   4.609  17.646  0.00  0.00    +0.000 C 
ATOM      8  S   UNL     1       4.252   2.860  17.853  0.00  0.00    +0.000 S 
ATOM      9  C   UNL     1       3.283   3.377  19.210  0.00  0.00    +0.000 A 
ATOM     10  C   UNL     1       3.184   2.644  20.382  0.00  0.00    +0.000 A 
ATOM     11  C   UNL     1       2.385   3.138  21.391  0.00  0.00    +0.000 A 
ATOM     12  C   UNL     1       1.646   4.316  21.158  0.00  0.00    +0.000 A 
ATOM     13  C   UNL     1       1.835   5.082  20.007  0.00  0.00    +0.000 A 
ATOM     14  C   UNL     1       2.786   4.677  19.068  0.00  0.00    +0.000 A 
ATOM     15  N   UNL     1       3.440   5.403  17.998  0.00  0.00    +0.000 N 
ATOM     16  C   UNL     1       3.370   6.741  17.660  0.00  0.00    +0.000 C 
ATOM     17  C   UNL     1       2.510   7.755  18.398  0.00  0.00    +0.000 C 
ATOM     18  O   UNL     1       4.058   7.208  16.743  0.00  0.00    +0.000 OA
ENDBRANCH   5   7
BRANCH   1  20
ATOM     19  C   UNL     1       6.729   3.308  11.978  0.00  0.00    +0.000 C 
ATOM     20  O   UNL     1       5.686   3.337  12.947  0.00  0.00    +0.000 OA
ENDBRANCH   1  20
BRANCH   4  21
ATOM     21  O   UNL     1       7.155   6.087  17.603  0.00  0.00    +0.000 OA
BRANCH  21  22
ATOM     22  C   UNL     1       7.110   7.544  17.735  0.00  0.00    +0.000 C 
BRANCH  22  23
ATOM     23  C   UNL     1       8.384   8.132  18.415  0.00  0.00    +0.000 C 
BRANCH  23  24
ATOM     24  C   UNL     1       8.536   9.659  18.194  0.00  0.00    +0.000 C 
BRANCH  24  25
ATOM     25  C   UNL     1       9.295  10.368  19.333  0.00  0.00    +0.000 C 
BRANCH  25  26
ATOM     26  C   UNL     1      10.574  11.068  18.826  0.00  0.00    +0.000 C 
BRANCH  26  27
ATOM     27  C   UNL     1      10.880  12.378  19.575  0.00  0.00    +0.000 C 
BRANCH  27  28
ATOM     28  N   UNL     1       9.695  13.060  20.138  0.00  0.00    +0.000 NA
ATOM     29  C   UNL     1       9.705  12.962  21.605  0.00  0.00    +0.000 C 
BRANCH  28  30
ATOM     30  C   UNL     1       9.592  14.473  19.668  0.00  0.00    +0.000 C 
ATOM     31  C   UNL     1       9.203  14.578  18.170  0.00  0.00    +0.000 C 
ATOM     32  C   UNL     1       7.799  14.033  17.896  0.00  0.00    +0.000 C 
ATOM     33  C   UNL     1       6.749  14.742  18.748  0.00  0.00    +0.000 C 
ATOM     34  C   UNL     1       7.118  14.738  20.229  0.00  0.00    +0.000 C 
ATOM     35  C   UNL     1       8.527  15.294  20.440  0.00  0.00    +0.000 C 
ENDBRANCH  28  30
ENDBRANCH  27  28
ENDBRANCH  26  27
ENDBRANCH  25  26
ENDBRANCH  24  25
ENDBRANCH  23  24
ENDBRANCH  22  23
ENDBRANCH  21  22
ENDBRANCH   4  21
TORSDOF 11
ENDMDL
MODEL 3
REMARK VINA RESULT:      -8.0      0.756      1.159
REMARK  Name = 
REMARK  14 active torsions:
REMARK  status: ('A' for Active; 'I' for Inactive)
REMARK    1  A    between atoms: C_1  and  O_2
REMARK    2  A    between atoms: O_2  and  C_3
REMARK    3  A    between atoms: C_6  and  O_7
REMARK    4  A    between atoms: O_7  and  C_8
REMARK    5  A    between atoms: C_8  and  C_9
REMARK    6  A    between atoms: C_9  and  C_10
REMARK    7  A    between atoms: C_10  and  C_11
REMARK    8  A    between atoms: C_11  and  C_12
REMARK    9  A    between atoms: C_12  and  C_13
REMARK   10  A    between atoms: C_13  and  N_14
REMARK   11  A    between atoms: N_14  and  C_15
REMARK   12  A    between atoms: N_14  and  C_16
REMARK   13  A    between atoms: C_22  and  C_23
REMARK   14  A    between atoms: C_32  and  C_33
REMARK                            x       y       z     vdW  Elec       q    Type
REMARK                         _______ _______ _______ _____ _____    ______ ____
ROOT
ATOM      1  C   UNL     1       6.056   3.929  14.348  0.00  0.00    +0.000 A 
ATOM      2  C   UNL     1       7.302   4.503  14.610  0.00  0.00    +0.000 A 
ATOM      3  C   UNL     1       7.643   4.972  15.895  0.00  0.00    +0.000 A 
ATOM      4  C   UNL     1       6.739   4.889  16.951  0.00  0.00    +0.000 A 
ATOM      5  C   UNL     1       5.427   4.393  16.656  0.00  0.00    +0.000 A 
ATOM      6  C   UNL     1       5.113   3.907  15.359  0.00  0.00    +0.000 A 
ENDROOT
BRANCH   5   7
ATOM      7  C   UNL     1       4.420   4.226  17.757  0.00  0.00    +0.000 C 
ATOM      8  S   UNL     1       3.783   2.526  17.723  0.00  0.00    +0.000 S 
ATOM      9  C   UNL     1       2.669   3.034  18.967  0.00  0.00    +0.000 A 
ATOM     10  C   UNL     1       2.316   2.223  20.033  0.00  0.00    +0.000 A 
ATOM     11  C   UNL     1       1.421   2.718  20.958  0.00  0.00    +0.000 A 
ATOM     12  C   UNL     1       0.847   3.986  20.736  0.00  0.00    +0.000 A 
ATOM     13  C   UNL     1       1.287   4.819  19.707  0.00  0.00    +0.000 A 
ATOM     14  C   UNL     1       2.330   4.389  18.882  0.00  0.00    +0.000 A 
ATOM     15  N   UNL     1       3.212   5.123  17.997  0.00  0.00    +0.000 N 
ATOM     16  C   UNL     1       3.326   6.484  17.786  0.00  0.00    +0.000 C 
ATOM     17  C   UNL     1       2.465   7.523  18.487  0.00  0.00    +0.000 C 
ATOM     18  O   UNL     1       4.192   6.946  17.032  0.00  0.00    +0.000 OA
ENDBRANCH   5   7
BRANCH   1  20
ATOM     19  C   UNL     1       4.837   3.913  12.290  0.00  0.00    +0.000 C 
ATOM     20  O   UNL     1       5.907   3.414  13.086  0.00  0.00    +0.000 OA
ENDBRANCH   1  20
BRANCH   4  21
ATOM     21  O   UNL     1       7.066   5.226  18.261  0.00  0.00    +0.000 OA
BRANCH  21  22
ATOM     22  C   UNL     1       7.875   6.421  18.506  0.00  0.00    +0.000 C 
BRANCH  22  23
ATOM     23  C   UNL     1       7.300   7.695  17.816  0.00  0.00    +0.000 C 
BRANCH  23  24
ATOM     24  C   UNL     1       8.389   8.749  17.493  0.00  0.00    +0.000 C 
BRANCH  24  25
ATOM     25  C   UNL     1       8.689   9.699  18.671  0.00  0.00    +0.000 C 
BRANCH  25  26
ATOM     26  C   UNL     1       9.364  11.005  18.202  0.00  0.00    +0.000 C 
BRANCH  26  27
ATOM     27  C   UNL     1       9.679  11.968  19.361  0.00  0.00    +0.000 C 
BRANCH  27  28
ATOM     28  N   UNL     1      10.606  13.068  19.017  0.00  0.00    +0.000 NA
ATOM     29  C   UNL     1      11.321  12.755  17.772  0.00  0.00    +0.000 C 
BRANCH  28  30
ATOM     30  C   UNL     1       9.904  14.384  18.950  0.00  0.00    +0.000 C 
ATOM     31  C   UNL     1       9.139  14.721  20.257  0.00  0.00    +0.000 C 
ATOM     32  C   UNL     1      10.080  14.906  21.449  0.00  0.00    +0.000 C 
ATOM     33  C   UNL     1      11.124  15.987  21.174  0.00  0.00    +0.000 C 
ATOM     34  C   UNL     1      11.859  15.749  19.858  0.00  0.00    +0.000 C 
ATOM     35  C   UNL     1      10.868  15.574  18.706  0.00  0.00    +0.000 C 
ENDBRANCH  28  30
ENDBRANCH  27  28
ENDBRANCH  26  27
ENDBRANCH  25  26
ENDBRANCH  24  25
ENDBRANCH  23  24
ENDBRANCH  22  23
ENDBRANCH  21  22
ENDBRANCH   4  21
TORSDOF 11
ENDMDL
MODEL 4
REMARK VINA RESULT:      -8.0      0.857      1.129
REMARK  Name = 
REMARK  14 active torsions:
REMARK  status: ('A' for Active; 'I' for Inactive)
REMARK    1  A    between atoms: C_1  and  O_2
REMARK    2  A    between atoms: O_2  and  C_3
REMARK    3  A    between atoms: C_6  and  O_7
REMARK    4  A    between atoms: O_7  and  C_8
REMARK    5  A    between atoms: C_8  and  C_9
REMARK    6  A    between atoms: C_9  and  C_10
REMARK    7  A    between atoms: C_10  and  C_11
REMARK    8  A    between atoms: C_11  and  C_12
REMARK    9  A    between atoms: C_12  and  C_13
REMARK   10  A    between atoms: C_13  and  N_14
REMARK   11  A    between atoms: N_14  and  C_15
REMARK   12  A    between atoms: N_14  and  C_16
REMARK   13  A    between atoms: C_22  and  C_23
REMARK   14  A    between atoms: C_32  and  C_33
REMARK                            x       y       z     vdW  Elec       q    Type
REMARK                         _______ _______ _______ _____ _____    ______ ____
ROOT
ATOM      1  C   UNL     1       6.180   4.070  14.506  0.00  0.00    +0.000 A 
ATOM      2  C   UNL     1       7.300   4.883  14.698  0.00  0.00    +0.000 A 
ATOM      3  C   UNL     1       7.521   5.559  15.915  0.00  0.00    +0.000 A 
ATOM      4  C   UNL     1       6.619   5.448  16.971  0.00  0.00    +0.000 A 
ATOM      5  C   UNL     1       5.423   4.696  16.736  0.00  0.00    +0.000 A 
ATOM      6  C   UNL     1       5.230   4.006  15.510  0.00  0.00    +0.000 A 
ENDROOT
BRANCH   5   7
ATOM      7  C   UNL     1       4.433   4.490  17.846  0.00  0.00    +0.000 C 
ATOM      8  S   UNL     1       3.854   2.769  17.811  0.00  0.00    +0.000 S 
ATOM      9  C   UNL     1       2.736   3.234  19.069  0.00  0.00    +0.000 A 
ATOM     10  C   UNL     1       2.422   2.407  20.135  0.00  0.00    +0.000 A 
ATOM     11  C   UNL     1       1.520   2.867  21.071  0.00  0.00    +0.000 A 
ATOM     12  C   UNL     1       0.901   4.116  20.861  0.00  0.00    +0.000 A 
ATOM     13  C   UNL     1       1.302   4.968  19.831  0.00  0.00    +0.000 A 
ATOM     14  C   UNL     1       2.350   4.577  18.994  0.00  0.00    +0.000 A 
ATOM     15  N   UNL     1       3.197   5.344  18.103  0.00  0.00    +0.000 N 
ATOM     16  C   UNL     1       3.264   6.710  17.897  0.00  0.00    +0.000 C 
ATOM     17  C   UNL     1       2.374   7.716  18.612  0.00  0.00    +0.000 C 
ATOM     18  O   UNL     1       4.105   7.204  17.137  0.00  0.00    +0.000 OA
ENDBRANCH   5   7
BRANCH   1  20
ATOM     19  C   UNL     1       6.776   3.995  12.191  0.00  0.00    +0.000 C 
ATOM     20  O   UNL     1       6.156   3.385  13.319  0.00  0.00    +0.000 OA
ENDBRANCH   1  20
BRANCH   4  21
ATOM     21  O   UNL     1       6.849   5.996  18.229  0.00  0.00    +0.000 OA
BRANCH  21  22
ATOM     22  C   UNL     1       8.038   6.824  18.436  0.00  0.00    +0.000 C 
BRANCH  22  23
ATOM     23  C   UNL     1       7.906   8.244  17.807  0.00  0.00    +0.000 C 
BRANCH  23  24
ATOM     24  C   UNL     1       8.592   9.347  18.654  0.00  0.00    +0.000 C 
BRANCH  24  25
ATOM     25  C   UNL     1       9.302  10.418  17.802  0.00  0.00    +0.000 C 
BRANCH  25  26
ATOM     26  C   UNL     1       8.698  11.821  18.018  0.00  0.00    +0.000 C 
BRANCH  26  27
ATOM     27  C   UNL     1       9.694  12.957  17.725  0.00  0.00    +0.000 C 
BRANCH  27  28
ATOM     28  N   UNL     1      10.459  13.430  18.899  0.00  0.00    +0.000 NA
ATOM     29  C   UNL     1      11.865  13.016  18.787  0.00  0.00    +0.000 C 
BRANCH  28  30
ATOM     30  C   UNL     1      10.317  14.902  19.098  0.00  0.00    +0.000 C 
ATOM     31  C   UNL     1       8.836  15.359  19.156  0.00  0.00    +0.000 C 
ATOM     32  C   UNL     1       8.100  14.787  20.370  0.00  0.00    +0.000 C 
ATOM     33  C   UNL     1       8.801  15.160  21.674  0.00  0.00    +0.000 C 
ATOM     34  C   UNL     1      10.285  14.804  21.647  0.00  0.00    +0.000 C 
ATOM     35  C   UNL     1      10.966  15.402  20.415  0.00  0.00    +0.000 C 
ENDBRANCH  28  30
ENDBRANCH  27  28
ENDBRANCH  26  27
ENDBRANCH  25  26
ENDBRANCH  24  25
ENDBRANCH  23  24
ENDBRANCH  22  23
ENDBRANCH  21  22
ENDBRANCH   4  21
TORSDOF 11
ENDMDL
MODEL 5
REMARK VINA RESULT:      -7.3      6.434     11.136
REMARK  Name = 
REMARK  14 active torsions:
REMARK  status: ('A' for Active; 'I' for Inactive)
REMARK    1  A    between atoms: C_1  and  O_2
REMARK    2  A    between atoms: O_2  and  C_3
REMARK    3  A    between atoms: C_6  and  O_7
REMARK    4  A    between atoms: O_7  and  C_8
REMARK    5  A    between atoms: C_8  and  C_9
REMARK    6  A    between atoms: C_9  and  C_10
REMARK    7  A    between atoms: C_10  and  C_11
REMARK    8  A    between atoms: C_11  and  C_12
REMARK    9  A    between atoms: C_12  and  C_13
REMARK   10  A    between atoms: C_13  and  N_14
REMARK   11  A    between atoms: N_14  and  C_15
REMARK   12  A    between atoms: N_14  and  C_16
REMARK   13  A    between atoms: C_22  and  C_23
REMARK   14  A    between atoms: C_32  and  C_33
REMARK                            x       y       z     vdW  Elec       q    Type
REMARK                         _______ _______ _______ _____ _____    ______ ____
ROOT
ATOM      1  C   UNL     1      -3.590  11.216  17.048  0.00  0.00    +0.000 A 
ATOM      2  C   UNL     1      -2.774  10.169  16.612  0.00  0.00    +0.000 A 
ATOM      3  C   UNL     1      -1.572   9.846  17.273  0.00  0.00    +0.000 A 
ATOM      4  C   UNL     1      -1.146  10.572  18.383  0.00  0.00    +0.000 A 
ATOM      5  C   UNL     1      -1.932  11.708  18.765  0.00  0.00    +0.000 A 
ATOM      6  C   UNL     1      -3.151  12.002  18.098  0.00  0.00    +0.000 A 
ENDROOT
BRANCH   5   7
ATOM      7  C   UNL     1      -1.562  12.504  19.984  0.00  0.00    +0.000 C 
ATOM      8  S   UNL     1      -2.981  12.547  21.116  0.00  0.00    +0.000 S 
ATOM      9  C   UNL     1      -2.039  13.653  22.082  0.00  0.00    +0.000 A 
ATOM     10  C   UNL     1      -2.039  13.624  23.468  0.00  0.00    +0.000 A 
ATOM     11  C   UNL     1      -1.264  14.548  24.137  0.00  0.00    +0.000 A 
ATOM     12  C   UNL     1      -0.574  15.524  23.390  0.00  0.00    +0.000 A 
ATOM     13  C   UNL     1      -0.516  15.474  21.997  0.00  0.00    +0.000 A 
ATOM     14  C   UNL     1      -1.149  14.424  21.327  0.00  0.00    +0.000 A 
ATOM     15  N   UNL     1      -0.984  13.914  19.980  0.00  0.00    +0.000 N 
ATOM     16  C   UNL     1      -0.078  14.272  19.000  0.00  0.00    +0.000 C 
ATOM     17  C   UNL     1       0.968  15.362  19.173  0.00  0.00    +0.000 C 
ATOM     18  O   UNL     1      -0.037  13.676  17.916  0.00  0.00    +0.000 OA
ENDBRANCH   5   7
BRANCH   1  20
ATOM     19  C   UNL     1      -5.922  11.738  17.138  0.00  0.00    +0.000 C 
ATOM     20  O   UNL     1      -4.781  11.340  16.383  0.00  0.00    +0.000 OA
ENDBRANCH   1  20
BRANCH   4  21
ATOM     21  O   UNL     1      -0.033  10.223  19.141  0.00  0.00    +0.000 OA
BRANCH  21  22
ATOM     22  C   UNL     1       1.268  10.799  18.798  0.00  0.00    +0.000 C 
BRANCH  22  23
ATOM     23  C   UNL     1       2.232   9.770  18.133  0.00  0.00    +0.000 C 
BRANCH  23  24
ATOM     24  C   UNL     1       1.581   8.377  17.932  0.00  0.00    +0.000 C 
BRANCH  24  25
ATOM     25  C   UNL     1       2.598   7.218  17.957  0.00  0.00    +0.000 C 
BRANCH  25  26
ATOM     26  C   UNL     1       2.906   6.752  19.395  0.00  0.00    +0.000 C 
BRANCH  26  27
ATOM     27  C   UNL     1       4.005   5.675  19.456  0.00  0.00    +0.000 C 
BRANCH  27  28
ATOM     28  N   UNL     1       3.696   4.432  18.717  0.00  0.00    +0.000 NA
ATOM     29  C   UNL     1       4.693   4.212  17.659  0.00  0.00    +0.000 C 
BRANCH  28  30
ATOM     30  C   UNL     1       3.574   3.259  19.630  0.00  0.00    +0.000 C 
ATOM     31  C   UNL     1       2.568   3.503  20.786  0.00  0.00    +0.000 C 
ATOM     32  C   UNL     1       1.135   3.682  20.281  0.00  0.00    +0.000 C 
ATOM     33  C   UNL     1       0.681   2.482  19.453  0.00  0.00    +0.000 C 
ATOM     34  C   UNL     1       1.673   2.144  18.344  0.00  0.00    +0.000 C 
ATOM     35  C   UNL     1       3.085   1.976  18.909  0.00  0.00    +0.000 C 
ENDBRANCH  28  30
ENDBRANCH  27  28
ENDBRANCH  26  27
ENDBRANCH  25  26
ENDBRANCH  24  25
ENDBRANCH  23  24
ENDBRANCH  22  23
ENDBRANCH  21  22
ENDBRANCH   4  21
TORSDOF 11
ENDMDL
MODEL 6
REMARK VINA RESULT:      -7.3      0.711      1.332
REMARK  Name = 
REMARK  14 active torsions:
REMARK  status: ('A' for Active; 'I' for Inactive)
REMARK    1  A    between atoms: C_1  and  O_2
REMARK    2  A    between atoms: O_2  and  C_3
REMARK    3  A    between atoms: C_6  and  O_7
REMARK    4  A    between atoms: O_7  and  C_8
REMARK    5  A    between atoms: C_8  and  C_9
REMARK    6  A    between atoms: C_9  and  C_10
REMARK    7  A    between atoms: C_10  and  C_11
REMARK    8  A    between atoms: C_11  and  C_12
REMARK    9  A    between atoms: C_12  and  C_13
REMARK   10  A    between atoms: C_13  and  N_14
REMARK   11  A    between atoms: N_14  and  C_15
REMARK   12  A    between atoms: N_14  and  C_16
REMARK   13  A    between atoms: C_22  and  C_23
REMARK   14  A    between atoms: C_32  and  C_33
REMARK                            x       y       z     vdW  Elec       q    Type
REMARK                         _______ _______ _______ _____ _____    ______ ____
ROOT
ATOM      1  C   UNL     1       5.661   4.223  13.911  0.00  0.00    +0.000 A 
ATOM      2  C   UNL     1       7.001   4.575  14.092  0.00  0.00    +0.000 A 
ATOM      3  C   UNL     1       7.538   4.794  15.376  0.00  0.00    +0.000 A 
ATOM      4  C   UNL     1       6.745   4.678  16.515  0.00  0.00    +0.000 A 
ATOM      5  C   UNL     1       5.350   4.417  16.320  0.00  0.00    +0.000 A 
ATOM      6  C   UNL     1       4.834   4.179  15.019  0.00  0.00    +0.000 A 
ENDROOT
BRANCH   5   7
ATOM      7  C   UNL     1       4.447   4.226  17.504  0.00  0.00    +0.000 C 
ATOM      8  S   UNL     1       3.758   2.547  17.459  0.00  0.00    +0.000 S 
ATOM      9  C   UNL     1       2.782   3.027  18.825  0.00  0.00    +0.000 A 
ATOM     10  C   UNL     1       2.508   2.178  19.885  0.00  0.00    +0.000 A 
ATOM     11  C   UNL     1       1.719   2.654  20.911  0.00  0.00    +0.000 A 
ATOM     12  C   UNL     1       1.166   3.945  20.800  0.00  0.00    +0.000 A 
ATOM     13  C   UNL     1       1.532   4.812  19.769  0.00  0.00    +0.000 A 
ATOM     14  C   UNL     1       2.478   4.393  18.831  0.00  0.00    +0.000 A 
ATOM     15  N   UNL     1       3.294   5.143  17.898  0.00  0.00    +0.000 N 
ATOM     16  C   UNL     1       3.430   6.509  17.735  0.00  0.00    +0.000 C 
ATOM     17  C   UNL     1       2.670   7.537  18.559  0.00  0.00    +0.000 C 
ATOM     18  O   UNL     1       4.234   6.982  16.922  0.00  0.00    +0.000 OA
ENDBRANCH   5   7
BRANCH   1  20
ATOM     19  C   UNL     1       5.579   2.613  12.144  0.00  0.00    +0.000 C 
ATOM     20  O   UNL     1       5.307   3.928  12.621  0.00  0.00    +0.000 OA
ENDBRANCH   1  20
BRANCH   4  21
ATOM     21  O   UNL     1       7.252   4.767  17.809  0.00  0.00    +0.000 OA
BRANCH  21  22
ATOM     22  C   UNL     1       7.066   6.010  18.560  0.00  0.00    +0.000 C 
BRANCH  22  23
ATOM     23  C   UNL     1       7.699   7.246  17.853  0.00  0.00    +0.000 C 
BRANCH  23  24
ATOM     24  C   UNL     1       8.627   8.065  18.786  0.00  0.00    +0.000 C 
BRANCH  24  25
ATOM     25  C   UNL     1       8.614   9.578  18.488  0.00  0.00    +0.000 C 
BRANCH  25  26
ATOM     26  C   UNL     1       9.744  10.323  19.228  0.00  0.00    +0.000 C 
BRANCH  26  27
ATOM     27  C   UNL     1       9.221  11.371  20.226  0.00  0.00    +0.000 C 
BRANCH  27  28
ATOM     28  N   UNL     1      10.246  12.307  20.736  0.00  0.00    +0.000 NA
ATOM     29  C   UNL     1      11.515  12.104  20.022  0.00  0.00    +0.000 C 
BRANCH  28  30
ATOM     30  C   UNL     1       9.784  13.724  20.676  0.00  0.00    +0.000 C 
ATOM     31  C   UNL     1      10.943  14.720  20.407  0.00  0.00    +0.000 C 
ATOM     32  C   UNL     1      11.575  14.517  19.028  0.00  0.00    +0.000 C 
ATOM     33  C   UNL     1      10.535  14.630  17.915  0.00  0.00    +0.000 C 
ATOM     34  C   UNL     1       9.330  13.727  18.165  0.00  0.00    +0.000 C 
ATOM     35  C   UNL     1       8.742  13.976  19.555  0.00  0.00    +0.000 C 
ENDBRANCH  28  30
ENDBRANCH  27  28
ENDBRANCH  26  27
ENDBRANCH  25  26
ENDBRANCH  24  25
ENDBRANCH  23  24
ENDBRANCH  22  23
ENDBRANCH  21  22
ENDBRANCH   4  21
TORSDOF 11
ENDMDL
MODEL 7
REMARK VINA RESULT:      -7.2      6.650     10.539
REMARK  Name = 
REMARK  14 active torsions:
REMARK  status: ('A' for Active; 'I' for Inactive)
REMARK    1  A    between atoms: C_1  and  O_2
REMARK    2  A    between atoms: O_2  and  C_3
REMARK    3  A    between atoms: C_6  and  O_7
REMARK    4  A    between atoms: O_7  and  C_8
REMARK    5  A    between atoms: C_8  and  C_9
REMARK    6  A    between atoms: C_9  and  C_10
REMARK    7  A    between atoms: C_10  and  C_11
REMARK    8  A    between atoms: C_11  and  C_12
REMARK    9  A    between atoms: C_12  and  C_13
REMARK   10  A    between atoms: C_13  and  N_14
REMARK   11  A    between atoms: N_14  and  C_15
REMARK   12  A    between atoms: N_14  and  C_16
REMARK   13  A    between atoms: C_22  and  C_23
REMARK   14  A    between atoms: C_32  and  C_33
REMARK                            x       y       z     vdW  Elec       q    Type
REMARK                         _______ _______ _______ _____ _____    ______ ____
ROOT
ATOM      1  C   UNL     1      -2.582  11.432  17.791  0.00  0.00    +0.000 A 
ATOM      2  C   UNL     1      -1.696  10.366  17.614  0.00  0.00    +0.000 A 
ATOM      3  C   UNL     1      -0.807   9.969  18.633  0.00  0.00    +0.000 A 
ATOM      4  C   UNL     1      -0.772  10.636  19.855  0.00  0.00    +0.000 A 
ATOM      5  C   UNL     1      -1.609  11.790  19.997  0.00  0.00    +0.000 A 
ATOM      6  C   UNL     1      -2.513  12.160  18.965  0.00  0.00    +0.000 A 
ENDROOT
BRANCH   5   7
ATOM      7  C   UNL     1      -1.663  12.525  21.305  0.00  0.00    +0.000 C 
ATOM      8  S   UNL     1      -3.397  12.846  21.733  0.00  0.00    +0.000 S 
ATOM      9  C   UNL     1      -2.781  13.777  23.075  0.00  0.00    +0.000 A 
ATOM     10  C   UNL     1      -3.377  13.772  24.326  0.00  0.00    +0.000 A 
ATOM     11  C   UNL     1      -2.814  14.550  25.317  0.00  0.00    +0.000 A 
ATOM     12  C   UNL     1      -1.714  15.370  24.994  0.00  0.00    +0.000 A 
ATOM     13  C   UNL     1      -1.078  15.287  23.755  0.00  0.00    +0.000 A 
ATOM     14  C   UNL     1      -1.536  14.360  22.815  0.00  0.00    +0.000 A 
ATOM     15  N   UNL     1      -0.904  13.805  21.635  0.00  0.00    +0.000 N 
ATOM     16  C   UNL     1       0.380  13.975  21.152  0.00  0.00    +0.000 C 
ATOM     17  C   UNL     1       1.423  14.858  21.818  0.00  0.00    +0.000 C 
ATOM     18  O   UNL     1       0.775  13.363  20.152  0.00  0.00    +0.000 OA
ENDBRANCH   5   7
BRANCH   1  20
ATOM     19  C   UNL     1      -4.849  11.719  17.087  0.00  0.00    +0.000 C 
ATOM     20  O   UNL     1      -3.465  11.631  16.763  0.00  0.00    +0.000 OA
ENDBRANCH   1  20
BRANCH   4  21
ATOM     21  O   UNL     1      -0.001  10.211  20.933  0.00  0.00    +0.000 OA
BRANCH  21  22
ATOM     22  C   UNL     1      -0.002   8.792  21.291  0.00  0.00    +0.000 C 
BRANCH  22  23
ATOM     23  C   UNL     1       1.405   8.134  21.165  0.00  0.00    +0.000 C 
BRANCH  23  24
ATOM     24  C   UNL     1       1.855   7.947  19.693  0.00  0.00    +0.000 C 
BRANCH  24  25
ATOM     25  C   UNL     1       2.746   6.706  19.479  0.00  0.00    +0.000 C 
BRANCH  25  26
ATOM     26  C   UNL     1       1.964   5.536  18.848  0.00  0.00    +0.000 C 
BRANCH  26  27
ATOM     27  C   UNL     1       2.783   4.761  17.799  0.00  0.00    +0.000 C 
BRANCH  27  28
ATOM     28  N   UNL     1       4.248   4.808  18.000  0.00  0.00    +0.000 NA
ATOM     29  C   UNL     1       4.687   3.647  18.787  0.00  0.00    +0.000 C 
BRANCH  28  30
ATOM     30  C   UNL     1       4.982   4.923  16.706  0.00  0.00    +0.000 C 
ATOM     31  C   UNL     1       5.140   6.393  16.236  0.00  0.00    +0.000 C 
ATOM     32  C   UNL     1       6.011   7.216  17.188  0.00  0.00    +0.000 C 
ATOM     33  C   UNL     1       7.391   6.585  17.367  0.00  0.00    +0.000 C 
ATOM     34  C   UNL     1       7.300   5.112  17.756  0.00  0.00    +0.000 C 
ATOM     35  C   UNL     1       6.419   4.343  16.770  0.00  0.00    +0.000 C 
ENDBRANCH  28  30
ENDBRANCH  27  28
ENDBRANCH  26  27
ENDBRANCH  25  26
ENDBRANCH  24  25
ENDBRANCH  23  24
ENDBRANCH  22  23
ENDBRANCH  21  22
ENDBRANCH   4  21
TORSDOF 11
ENDMDL
MODEL 8
REMARK VINA RESULT:      -7.1      5.838     10.235
REMARK  Name = 
REMARK  14 active torsions:
REMARK  status: ('A' for Active; 'I' for Inactive)
REMARK    1  A    between atoms: C_1  and  O_2
REMARK    2  A    between atoms: O_2  and  C_3
REMARK    3  A    between atoms: C_6  and  O_7
REMARK    4  A    between atoms: O_7  and  C_8
REMARK    5  A    between atoms: C_8  and  C_9
REMARK    6  A    between atoms: C_9  and  C_10
REMARK    7  A    between atoms: C_10  and  C_11
REMARK    8  A    between atoms: C_11  and  C_12
REMARK    9  A    between atoms: C_12  and  C_13
REMARK   10  A    between atoms: C_13  and  N_14
REMARK   11  A    between atoms: N_14  and  C_15
REMARK   12  A    between atoms: N_14  and  C_16
REMARK   13  A    between atoms: C_22  and  C_23
REMARK   14  A    between atoms: C_32  and  C_33
REMARK                            x       y       z     vdW  Elec       q    Type
REMARK                         _______ _______ _______ _____ _____    ______ ____
ROOT
ATOM      1  C   UNL     1      -2.020  11.419  17.459  0.00  0.00    +0.000 A 
ATOM      2  C   UNL     1      -1.456  10.143  17.529  0.00  0.00    +0.000 A 
ATOM      3  C   UNL     1      -0.396   9.852  18.411  0.00  0.00    +0.000 A 
ATOM      4  C   UNL     1       0.137  10.836  19.240  0.00  0.00    +0.000 A 
ATOM      5  C   UNL     1      -0.374  12.167  19.093  0.00  0.00    +0.000 A 
ATOM      6  C   UNL     1      -1.456  12.433  18.213  0.00  0.00    +0.000 A 
ENDROOT
BRANCH   5   7
ATOM      7  C   UNL     1       0.117  13.265  19.991  0.00  0.00    +0.000 C 
ATOM      8  S   UNL     1      -1.304  14.024  20.829  0.00  0.00    +0.000 S 
ATOM      9  C   UNL     1      -0.170  15.189  21.463  0.00  0.00    +0.000 A 
ATOM     10  C   UNL     1      -0.247  15.684  22.756  0.00  0.00    +0.000 A 
ATOM     11  C   UNL     1       0.695  16.608  23.155  0.00  0.00    +0.000 A 
ATOM     12  C   UNL     1       1.639  17.066  22.214  0.00  0.00    +0.000 A 
ATOM     13  C   UNL     1       1.753  16.486  20.950  0.00  0.00    +0.000 A 
ATOM     14  C   UNL     1       0.918  15.418  20.613  0.00  0.00    +0.000 A 
ATOM     15  N   UNL     1       1.021  14.418  19.569  0.00  0.00    +0.000 N 
ATOM     16  C   UNL     1       2.035  14.186  18.659  0.00  0.00    +0.000 C 
ATOM     17  C   UNL     1       3.305  15.018  18.578  0.00  0.00    +0.000 C 
ATOM     18  O   UNL     1       1.984  13.232  17.872  0.00  0.00    +0.000 OA
ENDBRANCH   5   7
BRANCH   1  20
ATOM     19  C   UNL     1      -3.076  10.854  15.389  0.00  0.00    +0.000 C 
ATOM     20  O   UNL     1      -3.116  11.526  16.644  0.00  0.00    +0.000 OA
ENDBRANCH   1  20
BRANCH   4  21
ATOM     21  O   UNL     1       1.100  10.575  20.211  0.00  0.00    +0.000 OA
BRANCH  21  22
ATOM     22  C   UNL     1       0.701   9.886  21.439  0.00  0.00    +0.000 C 
BRANCH  22  23
ATOM     23  C   UNL     1       1.433   8.523  21.634  0.00  0.00    +0.000 C 
BRANCH  23  24
ATOM     24  C   UNL     1       1.120   7.503  20.510  0.00  0.00    +0.000 C 
BRANCH  24  25
ATOM     25  C   UNL     1       2.372   7.045  19.734  0.00  0.00    +0.000 C 
BRANCH  25  26
ATOM     26  C   UNL     1       2.331   5.537  19.410  0.00  0.00    +0.000 C 
BRANCH  26  27
ATOM     27  C   UNL     1       3.181   5.163  18.183  0.00  0.00    +0.000 C 
BRANCH  27  28
ATOM     28  N   UNL     1       4.586   4.815  18.486  0.00  0.00    +0.000 NA
ATOM     29  C   UNL     1       4.642   3.570  19.265  0.00  0.00    +0.000 C 
BRANCH  28  30
ATOM     30  C   UNL     1       5.420   4.745  17.250  0.00  0.00    +0.000 C 
ATOM     31  C   UNL     1       5.263   6.000  16.351  0.00  0.00    +0.000 C 
ATOM     32  C   UNL     1       5.781   7.270  17.031  0.00  0.00    +0.000 C 
ATOM     33  C   UNL     1       7.242   7.121  17.451  0.00  0.00    +0.000 C 
ATOM     34  C   UNL     1       7.473   5.858  18.276  0.00  0.00    +0.000 C 
ATOM     35  C   UNL     1       6.937   4.625  17.547  0.00  0.00    +0.000 C 
ENDBRANCH  28  30
ENDBRANCH  27  28
ENDBRANCH  26  27
ENDBRANCH  25  26
ENDBRANCH  24  25
ENDBRANCH  23  24
ENDBRANCH  22  23
ENDBRANCH  21  22
ENDBRANCH   4  21
TORSDOF 11
ENDMDL
MODEL 9
REMARK VINA RESULT:      -6.9      1.159      1.495
REMARK  Name = 
REMARK  14 active torsions:
REMARK  status: ('A' for Active; 'I' for Inactive)
REMARK    1  A    between atoms: C_1  and  O_2
REMARK    2  A    between atoms: O_2  and  C_3
REMARK    3  A    between atoms: C_6  and  O_7
REMARK    4  A    between atoms: O_7  and  C_8
REMARK    5  A    between atoms: C_8  and  C_9
REMARK    6  A    between atoms: C_9  and  C_10
REMARK    7  A    between atoms: C_10  and  C_11
REMARK    8  A    between atoms: C_11  and  C_12
REMARK    9  A    between atoms: C_12  and  C_13
REMARK   10  A    between atoms: C_13  and  N_14
REMARK   11  A    between atoms: N_14  and  C_15
REMARK   12  A    between atoms: N_14  and  C_16
REMARK   13  A    between atoms: C_22  and  C_23
REMARK   14  A    between atoms: C_32  and  C_33
REMARK                            x       y       z     vdW  Elec       q    Type
REMARK                         _______ _______ _______ _____ _____    ______ ____
ROOT
ATOM      1  C   UNL     1       5.630   3.610  13.290  0.00  0.00    +0.000 A 
ATOM      2  C   UNL     1       6.854   4.264  13.126  0.00  0.00    +0.000 A 
ATOM      3  C   UNL     1       7.447   4.992  14.177  0.00  0.00    +0.000 A 
ATOM      4  C   UNL     1       6.826   5.095  15.419  0.00  0.00    +0.000 A 
ATOM      5  C   UNL     1       5.525   4.510  15.552  0.00  0.00    +0.000 A 
ATOM      6  C   UNL     1       4.954   3.763  14.487  0.00  0.00    +0.000 A 
ENDROOT
BRANCH   5   7
ATOM      7  C   UNL     1       4.819   4.536  16.877  0.00  0.00    +0.000 C 
ATOM      8  S   UNL     1       4.077   2.908  17.185  0.00  0.00    +0.000 S 
ATOM      9  C   UNL     1       3.352   3.627  18.601  0.00  0.00    +0.000 A 
ATOM     10  C   UNL     1       3.224   2.950  19.803  0.00  0.00    +0.000 A 
ATOM     11  C   UNL     1       2.629   3.607  20.859  0.00  0.00    +0.000 A 
ATOM     12  C   UNL     1       2.108   4.900  20.649  0.00  0.00    +0.000 A 
ATOM     13  C   UNL     1       2.332   5.594  19.458  0.00  0.00    +0.000 A 
ATOM     14  C   UNL     1       3.099   4.996  18.456  0.00  0.00    +0.000 A 
ATOM     15  N   UNL     1       3.777   5.562  17.307  0.00  0.00    +0.000 N 
ATOM     16  C   UNL     1       3.930   6.882  16.928  0.00  0.00    +0.000 C 
ATOM     17  C   UNL     1       3.350   8.056  17.702  0.00  0.00    +0.000 C 
ATOM     18  O   UNL     1       4.607   7.192  15.940  0.00  0.00    +0.000 OA
ENDBRANCH   5   7
BRANCH   1  20
ATOM     19  C   UNL     1       4.330   3.435  11.290  0.00  0.00    +0.000 C 
ATOM     20  O   UNL     1       5.232   2.847  12.223  0.00  0.00    +0.000 OA
ENDBRANCH   1  20
BRANCH   4  21
ATOM     21  O   UNL     1       7.422   5.699  16.522  0.00  0.00    +0.000 OA
BRANCH  21  22
ATOM     22  C   UNL     1       7.184   5.138  17.853  0.00  0.00    +0.000 C 
BRANCH  22  23
ATOM     23  C   UNL     1       7.259   6.208  18.984  0.00  0.00    +0.000 C 
BRANCH  23  24
ATOM     24  C   UNL     1       8.466   7.168  18.827  0.00  0.00    +0.000 C 
BRANCH  24  25
ATOM     25  C   UNL     1       8.075   8.557  18.283  0.00  0.00    +0.000 C 
BRANCH  25  26
ATOM     26  C   UNL     1       8.891   9.687  18.944  0.00  0.00    +0.000 C 
BRANCH  26  27
ATOM     27  C   UNL     1       9.047  10.925  18.041  0.00  0.00    +0.000 C 
BRANCH  27  28
ATOM     28  N   UNL     1      10.033  11.918  18.517  0.00  0.00    +0.000 NA
ATOM     29  C   UNL     1      11.242  11.870  17.681  0.00  0.00    +0.000 C 
BRANCH  28  30
ATOM     30  C   UNL     1       9.450  13.290  18.588  0.00  0.00    +0.000 C 
ATOM     31  C   UNL     1       8.532  13.487  19.823  0.00  0.00    +0.000 C 
ATOM     32  C   UNL     1       9.303  13.384  21.142  0.00  0.00    +0.000 C 
ATOM     33  C   UNL     1      10.454  14.386  21.195  0.00  0.00    +0.000 C 
ATOM     34  C   UNL     1      11.351  14.293  19.964  0.00  0.00    +0.000 C 
ATOM     35  C   UNL     1      10.526  14.403  18.680  0.00  0.00    +0.000 C 
ENDBRANCH  28  30
ENDBRANCH  27  28
ENDBRANCH  26  27
ENDBRANCH  25  26
ENDBRANCH  24  25
ENDBRANCH  23  24
ENDBRANCH  22  23
ENDBRANCH  21  22
ENDBRANCH   4  21
TORSDOF 11
ENDMDL
