MODEL 1
REMARK VINA RESULT:      -8.2      0.000      0.000
REMARK  Name = 
REMARK  9 active torsions:
REMARK  status: ('A' for Active; 'I' for Inactive)
REMARK    1  A    between atoms: C_1  and  C_2
REMARK    2  A    between atoms: C_2  and  C_3
REMARK    3  A    between atoms: C_3  and  C_4
REMARK    4  A    between atoms: C_4  and  C_5
REMARK    5  A    between atoms: C_5  and  C_6
REMARK    6  A    between atoms: C_5  and  C_8
REMARK    7  A    between atoms: C_6  and  C_7
REMARK    8  A    between atoms: C_13  and  C_14
REMARK    9  A    between atoms: C_23  and  C_24
REMARK                            x       y       z     vdW  Elec       q    Type
REMARK                         _______ _______ _______ _____ _____    ______ ____
ROOT
ATOM      1  C   UNL     1       3.830   7.284  17.627  0.00  0.00    +0.000 C 
ATOM      2  O   UNL     1       3.442   8.334  17.123  0.00  0.00    +0.000 OA
ATOM      3  N   UNL     1       3.095   6.757  18.706  0.00  0.00    +0.000 N 
ATOM      4  C   UNL     1       2.928   5.447  19.214  0.00  0.00    +0.000 A 
ATOM      5  C   UNL     1       3.506   4.209  18.864  0.00  0.00    +0.000 A 
ATOM      6  C   UNL     1       3.018   3.008  19.419  0.00  0.00    +0.000 A 
ATOM      7  C   UNL     1       1.995   3.048  20.366  0.00  0.00    +0.000 A 
ATOM      8  C   UNL     1       1.455   4.268  20.783  0.00  0.00    +0.000 A 
ATOM      9  C   UNL     1       1.918   5.461  20.199  0.00  0.00    +0.000 A 
ATOM     10  C   UNL     1       1.607   6.819  20.352  0.00  0.00    +0.000 A 
ATOM     11  O   UNL     1       0.804   7.582  21.137  0.00  0.00    +0.000 OA
ATOM     12  C   UNL     1       0.979   8.869  20.682  0.00  0.00    +0.000 A 
ATOM     13  C   UNL     1       1.915   8.924  19.666  0.00  0.00    +0.000 A 
ATOM     14  C   UNL     1       2.279   7.575  19.476  0.00  0.00    +0.000 A 
ENDROOT
BRANCH  12  15
ATOM     15  C   UNL     1       0.283   9.987  21.305  0.00  0.00    +0.000 C 
ATOM     16  O   UNL     1       0.603  10.356  22.438  0.00  0.00    +0.000 OA
ATOM     17  N   UNL     1      -0.710  10.676  20.604  0.00  0.00    +0.000 N 
ATOM     18  C   UNL     1      -1.087  10.505  19.196  0.00  0.00    +0.000 C 
ATOM     19  C   UNL     1      -0.904  11.815  18.421  0.00  0.00    +0.000 C 
ATOM     20  O   UNL     1      -1.582  12.909  19.055  0.00  0.00    +0.000 OA
ATOM     21  C   UNL     1      -1.098  13.093  20.396  0.00  0.00    +0.000 C 
ATOM     22  C   UNL     1      -1.348  11.836  21.234  0.00  0.00    +0.000 C 
ENDBRANCH  12  15
BRANCH   6  23
ATOM     23  C   UNL     1       3.579   1.683  18.952  0.00  0.00    +0.000 C 
ATOM     24  F   UNL     1       4.669   1.278  19.665  0.00  0.00    +0.000 F 
ATOM     25  F   UNL     1       2.678   0.668  19.041  0.00  0.00    +0.000 F 
ATOM     26  F   UNL     1       3.982   1.722  17.652  0.00  0.00    +0.000 F 
ENDBRANCH   6  23
BRANCH   1  27
ATOM     27  C   UNL     1       5.089   6.561  17.194  0.00  0.00    +0.000 C 
BRANCH  27  28
ATOM     28  C   UNL     1       6.317   7.480  17.338  0.00  0.00    +0.000 C 
ATOM     29  C   UNL     1       7.582   6.798  17.855  0.00  0.00    +0.000 C 
ENDBRANCH  27  28
BRANCH  27  30
ATOM     30  C   UNL     1       4.901   5.977  15.774  0.00  0.00    +0.000 C 
BRANCH  30  31
ATOM     31  C   UNL     1       5.164   4.473  15.637  0.00  0.00    +0.000 C 
BRANCH  31  33
ATOM     32  C   UNL     1       6.204   3.903  13.419  0.00  0.00    +0.000 C 
ATOM     33  C   UNL     1       6.460   4.127  14.902  0.00  0.00    +0.000 C 
ENDBRANCH  31  33
ENDBRANCH  30  31
ENDBRANCH  27  30
ENDBRANCH   1  27
TORSDOF 7
ENDMDL
MODEL 2
REMARK VINA RESULT:      -7.9      1.564      2.105
REMARK  Name = 
REMARK  9 active torsions:
REMARK  status: ('A' for Active; 'I' for Inactive)
REMARK    1  A    between atoms: C_1  and  C_2
REMARK    2  A    between atoms: C_2  and  C_3
REMARK    3  A    between atoms: C_3  and  C_4
REMARK    4  A    between atoms: C_4  and  C_5
REMARK    5  A    between atoms: C_5  and  C_6
REMARK    6  A    between atoms: C_5  and  C_8
REMARK    7  A    between atoms: C_6  and  C_7
REMARK    8  A    between atoms: C_13  and  C_14
REMARK    9  A    between atoms: C_23  and  C_24
REMARK                            x       y       z     vdW  Elec       q    Type
REMARK                         _______ _______ _______ _____ _____    ______ ____
ROOT
ATOM      1  C   UNL     1       4.943   6.407  16.247  0.00  0.00    +0.000 C 
ATOM      2  O   UNL     1       4.828   7.291  15.401  0.00  0.00    +0.000 OA
ATOM      3  N   UNL     1       4.030   6.395  17.319  0.00  0.00    +0.000 N 
ATOM      4  C   UNL     1       3.549   5.370  18.167  0.00  0.00    +0.000 A 
ATOM      5  C   UNL     1       3.875   4.004  18.289  0.00  0.00    +0.000 A 
ATOM      6  C   UNL     1       3.101   3.153  19.104  0.00  0.00    +0.000 A 
ATOM      7  C   UNL     1       2.038   3.676  19.840  0.00  0.00    +0.000 A 
ATOM      8  C   UNL     1       1.740   5.041  19.791  0.00  0.00    +0.000 A 
ATOM      9  C   UNL     1       2.490   5.880  18.949  0.00  0.00    +0.000 A 
ATOM     10  C   UNL     1       2.465   7.248  18.642  0.00  0.00    +0.000 A 
ATOM     11  O   UNL     1       1.783   8.353  19.039  0.00  0.00    +0.000 OA
ATOM     12  C   UNL     1       2.264   9.371  18.250  0.00  0.00    +0.000 A 
ATOM     13  C   UNL     1       3.268   8.930  17.407  0.00  0.00    +0.000 A 
ATOM     14  C   UNL     1       3.350   7.549  17.684  0.00  0.00    +0.000 A 
ENDROOT
BRANCH  12  15
ATOM     15  C   UNL     1       1.776  10.736  18.404  0.00  0.00    +0.000 C 
ATOM     16  O   UNL     1       2.488  11.685  18.071  0.00  0.00    +0.000 OA
ATOM     17  N   UNL     1       0.483  10.970  18.881  0.00  0.00    +0.000 N 
ATOM     18  C   UNL     1      -0.563   9.974  19.143  0.00  0.00    +0.000 C 
ATOM     19  C   UNL     1      -1.806  10.253  18.289  0.00  0.00    +0.000 C 
ATOM     20  O   UNL     1      -2.264  11.603  18.439  0.00  0.00    +0.000 OA
ATOM     21  C   UNL     1      -1.231  12.532  18.070  0.00  0.00    +0.000 C 
ATOM     22  C   UNL     1      -0.002  12.350  18.965  0.00  0.00    +0.000 C 
ENDBRANCH  12  15
BRANCH   6  23
ATOM     23  C   UNL     1       3.401   1.671  19.140  0.00  0.00    +0.000 C 
ATOM     24  F   UNL     1       2.345   0.917  19.564  0.00  0.00    +0.000 F 
ATOM     25  F   UNL     1       3.750   1.172  17.925  0.00  0.00    +0.000 F 
ATOM     26  F   UNL     1       4.428   1.373  19.983  0.00  0.00    +0.000 F 
ENDBRANCH   6  23
BRANCH   1  27
ATOM     27  C   UNL     1       6.049   5.372  16.233  0.00  0.00    +0.000 C 
BRANCH  27  28
ATOM     28  C   UNL     1       7.157   5.752  17.235  0.00  0.00    +0.000 C 
ATOM     29  C   UNL     1       7.450   7.247  17.343  0.00  0.00    +0.000 C 
ENDBRANCH  27  28
BRANCH  27  30
ATOM     30  C   UNL     1       6.553   5.157  14.787  0.00  0.00    +0.000 C 
BRANCH  30  31
ATOM     31  C   UNL     1       6.213   3.798  14.163  0.00  0.00    +0.000 C 
BRANCH  31  33
ATOM     32  C   UNL     1       5.133   3.259  11.957  0.00  0.00    +0.000 C 
ATOM     33  C   UNL     1       6.402   3.739  12.646  0.00  0.00    +0.000 C 
ENDBRANCH  31  33
ENDBRANCH  30  31
ENDBRANCH  27  30
ENDBRANCH   1  27
TORSDOF 7
ENDMDL
MODEL 3
REMARK VINA RESULT:      -7.8      1.242      2.011
REMARK  Name = 
REMARK  9 active torsions:
REMARK  status: ('A' for Active; 'I' for Inactive)
REMARK    1  A    between atoms: C_1  and  C_2
REMARK    2  A    between atoms: C_2  and  C_3
REMARK    3  A    between atoms: C_3  and  C_4
REMARK    4  A    between atoms: C_4  and  C_5
REMARK    5  A    between atoms: C_5  and  C_6
REMARK    6  A    between atoms: C_5  and  C_8
REMARK    7  A    between atoms: C_6  and  C_7
REMARK    8  A    between atoms: C_13  and  C_14
REMARK    9  A    between atoms: C_23  and  C_24
REMARK                            x       y       z     vdW  Elec       q    Type
REMARK                         _______ _______ _______ _____ _____    ______ ____
ROOT
ATOM      1  C   UNL     1       4.392   6.765  16.645  0.00  0.00    +0.000 C 
ATOM      2  O   UNL     1       4.111   7.734  15.943  0.00  0.00    +0.000 OA
ATOM      3  N   UNL     1       3.579   6.501  17.763  0.00  0.00    +0.000 N 
ATOM      4  C   UNL     1       3.284   5.321  18.487  0.00  0.00    +0.000 A 
ATOM      5  C   UNL     1       3.767   4.000  18.392  0.00  0.00    +0.000 A 
ATOM      6  C   UNL     1       3.160   2.961  19.127  0.00  0.00    +0.000 A 
ATOM      7  C   UNL     1       2.112   3.250  20.000  0.00  0.00    +0.000 A 
ATOM      8  C   UNL     1       1.664   4.563  20.167  0.00  0.00    +0.000 A 
ATOM      9  C   UNL     1       2.245   5.592  19.404  0.00  0.00    +0.000 A 
ATOM     10  C   UNL     1       2.045   6.975  19.296  0.00  0.00    +0.000 A 
ATOM     11  O   UNL     1       1.283   7.927  19.893  0.00  0.00    +0.000 OA
ATOM     12  C   UNL     1       1.582   9.093  19.225  0.00  0.00    +0.000 A 
ATOM     13  C   UNL     1       2.554   8.891  18.263  0.00  0.00    +0.000 A 
ATOM     14  C   UNL     1       2.809   7.506  18.334  0.00  0.00    +0.000 A 
ENDROOT
BRANCH  12  15
ATOM     15  C   UNL     1       0.962  10.356  19.605  0.00  0.00    +0.000 C 
ATOM     16  O   UNL     1       0.527  11.113  18.735  0.00  0.00    +0.000 OA
ATOM     17  N   UNL     1       0.812  10.688  20.954  0.00  0.00    +0.000 N 
ATOM     18  C   UNL     1       1.092   9.837  22.117  0.00  0.00    +0.000 C 
ATOM     19  C   UNL     1      -0.172   9.639  22.963  0.00  0.00    +0.000 C 
ATOM     20  O   UNL     1      -0.779  10.890  23.315  0.00  0.00    +0.000 OA
ATOM     21  C   UNL     1      -1.124  11.634  22.134  0.00  0.00    +0.000 C 
ATOM     22  C   UNL     1       0.128  11.936  21.306  0.00  0.00    +0.000 C 
ENDBRANCH  12  15
BRANCH   6  23
ATOM     23  C   UNL     1       3.623   1.534  18.931  0.00  0.00    +0.000 C 
ATOM     24  F   UNL     1       2.668   0.611  19.242  0.00  0.00    +0.000 F 
ATOM     25  F   UNL     1       3.994   1.270  17.651  0.00  0.00    +0.000 F 
ATOM     26  F   UNL     1       4.697   1.229  19.711  0.00  0.00    +0.000 F 
ENDBRANCH   6  23
BRANCH   1  27
ATOM     27  C   UNL     1       5.599   5.881  16.410  0.00  0.00    +0.000 C 
BRANCH  27  28
ATOM     28  C   UNL     1       6.874   6.550  16.958  0.00  0.00    +0.000 C 
ATOM     29  C   UNL     1       7.482   5.880  18.188  0.00  0.00    +0.000 C 
ENDBRANCH  27  28
BRANCH  27  30
ATOM     30  C   UNL     1       5.684   5.490  14.915  0.00  0.00    +0.000 C 
BRANCH  30  31
ATOM     31  C   UNL     1       6.200   4.075  14.630  0.00  0.00    +0.000 C 
BRANCH  31  33
ATOM     32  C   UNL     1       5.457   3.366  12.334  0.00  0.00    +0.000 C 
ATOM     33  C   UNL     1       6.628   3.843  13.180  0.00  0.00    +0.000 C 
ENDBRANCH  31  33
ENDBRANCH  30  31
ENDBRANCH  27  30
ENDBRANCH   1  27
TORSDOF 7
ENDMDL
MODEL 4
REMARK VINA RESULT:      -7.7      1.511      1.912
REMARK  Name = 
REMARK  9 active torsions:
REMARK  status: ('A' for Active; 'I' for Inactive)
REMARK    1  A    between atoms: C_1  and  C_2
REMARK    2  A    between atoms: C_2  and  C_3
REMARK    3  A    between atoms: C_3  and  C_4
REMARK    4  A    between atoms: C_4  and  C_5
REMARK    5  A    between atoms: C_5  and  C_6
REMARK    6  A    between atoms: C_5  and  C_8
REMARK    7  A    between atoms: C_6  and  C_7
REMARK    8  A    between atoms: C_13  and  C_14
REMARK    9  A    between atoms: C_23  and  C_24
REMARK                            x       y       z     vdW  Elec       q    Type
REMARK                         _______ _______ _______ _____ _____    ______ ____
ROOT
ATOM      1  C   UNL     1       4.660   6.546  16.720  0.00  0.00    +0.000 C 
ATOM      2  O   UNL     1       4.421   7.302  15.782  0.00  0.00    +0.000 OA
ATOM      3  N   UNL     1       3.829   6.616  17.854  0.00  0.00    +0.000 N 
ATOM      4  C   UNL     1       3.486   5.682  18.860  0.00  0.00    +0.000 A 
ATOM      5  C   UNL     1       3.921   4.367  19.127  0.00  0.00    +0.000 A 
ATOM      6  C   UNL     1       3.271   3.582  20.101  0.00  0.00    +0.000 A 
ATOM      7  C   UNL     1       2.227   4.128  20.849  0.00  0.00    +0.000 A 
ATOM      8  C   UNL     1       1.827   5.453  20.653  0.00  0.00    +0.000 A 
ATOM      9  C   UNL     1       2.452   6.221  19.654  0.00  0.00    +0.000 A 
ATOM     10  C   UNL     1       2.303   7.532  19.181  0.00  0.00    +0.000 A 
ATOM     11  O   UNL     1       1.572   8.633  19.490  0.00  0.00    +0.000 OA
ATOM     12  C   UNL     1       1.919   9.569  18.543  0.00  0.00    +0.000 A 
ATOM     13  C   UNL     1       2.890   9.086  17.685  0.00  0.00    +0.000 A 
ATOM     14  C   UNL     1       3.093   7.762  18.125  0.00  0.00    +0.000 A 
ENDROOT
BRANCH  12  15
ATOM     15  C   UNL     1       1.343  10.908  18.563  0.00  0.00    +0.000 C 
ATOM     16  O   UNL     1       2.035  11.879  18.250  0.00  0.00    +0.000 OA
ATOM     17  N   UNL     1      -0.004  11.089  18.887  0.00  0.00    +0.000 N 
ATOM     18  C   UNL     1      -1.016  10.047  19.097  0.00  0.00    +0.000 C 
ATOM     19  C   UNL     1      -2.173  10.203  18.102  0.00  0.00    +0.000 C 
ATOM     20  O   UNL     1      -2.718  11.530  18.123  0.00  0.00    +0.000 OA
ATOM     21  C   UNL     1      -1.703  12.498  17.809  0.00  0.00    +0.000 C 
ATOM     22  C   UNL     1      -0.570  12.440  18.837  0.00  0.00    +0.000 C 
ENDBRANCH  12  15
BRANCH   6  23
ATOM     23  C   UNL     1       3.682   2.140  20.299  0.00  0.00    +0.000 C 
ATOM     24  F   UNL     1       4.995   1.908  20.010  0.00  0.00    +0.000 F 
ATOM     25  F   UNL     1       3.499   1.709  21.576  0.00  0.00    +0.000 F 
ATOM     26  F   UNL     1       2.974   1.288  19.506  0.00  0.00    +0.000 F 
ENDBRANCH   6  23
BRANCH   1  27
ATOM     27  C   UNL     1       5.835   5.591  16.748  0.00  0.00    +0.000 C 
BRANCH  27  28
ATOM     28  C   UNL     1       6.907   6.083  17.740  0.00  0.00    +0.000 C 
ATOM     29  C   UNL     1       7.495   7.458  17.432  0.00  0.00    +0.000 C 
ENDBRANCH  27  28
BRANCH  27  30
ATOM     30  C   UNL     1       6.364   5.361  15.313  0.00  0.00    +0.000 C 
BRANCH  30  31
ATOM     31  C   UNL     1       5.610   4.308  14.492  0.00  0.00    +0.000 C 
BRANCH  31  33
ATOM     32  C   UNL     1       5.400   3.296  12.199  0.00  0.00    +0.000 C 
ATOM     33  C   UNL     1       6.364   3.819  13.253  0.00  0.00    +0.000 C 
ENDBRANCH  31  33
ENDBRANCH  30  31
ENDBRANCH  27  30
ENDBRANCH   1  27
TORSDOF 7
ENDMDL
MODEL 5
REMARK VINA RESULT:      -7.7      4.756      8.453
REMARK  Name = 
REMARK  9 active torsions:
REMARK  status: ('A' for Active; 'I' for Inactive)
REMARK    1  A    between atoms: C_1  and  C_2
REMARK    2  A    between atoms: C_2  and  C_3
REMARK    3  A    between atoms: C_3  and  C_4
REMARK    4  A    between atoms: C_4  and  C_5
REMARK    5  A    between atoms: C_5  and  C_6
REMARK    6  A    between atoms: C_5  and  C_8
REMARK    7  A    between atoms: C_6  and  C_7
REMARK    8  A    between atoms: C_13  and  C_14
REMARK    9  A    between atoms: C_23  and  C_24
REMARK                            x       y       z     vdW  Elec       q    Type
REMARK                         _______ _______ _______ _____ _____    ______ ____
ROOT
ATOM      1  C   UNL     1       0.955  10.651  18.197  0.00  0.00    +0.000 C 
ATOM      2  O   UNL     1       1.941  10.525  17.476  0.00  0.00    +0.000 OA
ATOM      3  N   UNL     1       0.860   9.829  19.337  0.00  0.00    +0.000 N 
ATOM      4  C   UNL     1       0.197   9.972  20.579  0.00  0.00    +0.000 A 
ATOM      5  C   UNL     1      -0.673  10.959  21.086  0.00  0.00    +0.000 A 
ATOM      6  C   UNL     1      -1.051  10.950  22.444  0.00  0.00    +0.000 A 
ATOM      7  C   UNL     1      -0.609   9.926  23.281  0.00  0.00    +0.000 A 
ATOM      8  C   UNL     1       0.196   8.896  22.784  0.00  0.00    +0.000 A 
ATOM      9  C   UNL     1       0.602   8.928  21.438  0.00  0.00    +0.000 A 
ATOM     10  C   UNL     1       1.395   8.105  20.627  0.00  0.00    +0.000 A 
ATOM     11  O   UNL     1       2.054   6.923  20.738  0.00  0.00    +0.000 OA
ATOM     12  C   UNL     1       2.677   6.747  19.524  0.00  0.00    +0.000 A 
ATOM     13  C   UNL     1       2.375   7.771  18.646  0.00  0.00    +0.000 A 
ATOM     14  C   UNL     1       1.559   8.632  19.408  0.00  0.00    +0.000 A 
ENDROOT
BRANCH  12  15
ATOM     15  C   UNL     1       3.476   5.558  19.256  0.00  0.00    +0.000 C 
ATOM     16  O   UNL     1       4.662   5.525  19.590  0.00  0.00    +0.000 OA
ATOM     17  N   UNL     1       2.889   4.435  18.666  0.00  0.00    +0.000 N 
ATOM     18  C   UNL     1       1.465   4.223  18.378  0.00  0.00    +0.000 C 
ATOM     19  C   UNL     1       0.940   2.984  19.115  0.00  0.00    +0.000 C 
ATOM     20  O   UNL     1       1.745   1.827  18.853  0.00  0.00    +0.000 OA
ATOM     21  C   UNL     1       3.107   2.058  19.250  0.00  0.00    +0.000 C 
ATOM     22  C   UNL     1       3.702   3.232  18.466  0.00  0.00    +0.000 C 
ENDBRANCH  12  15
BRANCH   6  23
ATOM     23  C   UNL     1      -1.899  12.076  22.995  0.00  0.00    +0.000 C 
ATOM     24  F   UNL     1      -1.180  13.001  23.693  0.00  0.00    +0.000 F 
ATOM     25  F   UNL     1      -2.554  12.767  22.024  0.00  0.00    +0.000 F 
ATOM     26  F   UNL     1      -2.856  11.628  23.854  0.00  0.00    +0.000 F 
ENDBRANCH   6  23
BRANCH   1  27
ATOM     27  C   UNL     1      -0.192  11.594  17.894  0.00  0.00    +0.000 C 
BRANCH  27  28
ATOM     28  C   UNL     1      -0.072  12.879  18.736  0.00  0.00    +0.000 C 
ATOM     29  C   UNL     1       1.271  13.600  18.632  0.00  0.00    +0.000 C 
ENDBRANCH  27  28
BRANCH  27  30
ATOM     30  C   UNL     1      -1.540  10.855  18.061  0.00  0.00    +0.000 C 
BRANCH  30  31
ATOM     31  C   UNL     1      -1.893   9.864  16.946  0.00  0.00    +0.000 C 
BRANCH  31  33
ATOM     32  C   UNL     1      -3.961  11.124  16.265  0.00  0.00    +0.000 C 
ATOM     33  C   UNL     1      -2.671  10.480  15.780  0.00  0.00    +0.000 C 
ENDBRANCH  31  33
ENDBRANCH  30  31
ENDBRANCH  27  30
ENDBRANCH   1  27
TORSDOF 7
ENDMDL
MODEL 6
REMARK VINA RESULT:      -7.6      1.202      1.848
REMARK  Name = 
REMARK  9 active torsions:
REMARK  status: ('A' for Active; 'I' for Inactive)
REMARK    1  A    between atoms: C_1  and  C_2
REMARK    2  A    between atoms: C_2  and  C_3
REMARK    3  A    between atoms: C_3  and  C_4
REMARK    4  A    between atoms: C_4  and  C_5
REMARK    5  A    between atoms: C_5  and  C_6
REMARK    6  A    between atoms: C_5  and  C_8
REMARK    7  A    between atoms: C_6  and  C_7
REMARK    8  A    between atoms: C_13  and  C_14
REMARK    9  A    between atoms: C_23  and  C_24
REMARK                            x       y       z     vdW  Elec       q    Type
REMARK                         _______ _______ _______ _____ _____    ______ ____
ROOT
ATOM      1  C   UNL     1       4.101   7.041  16.905  0.00  0.00    +0.000 C 
ATOM      2  O   UNL     1       3.701   7.837  16.059  0.00  0.00    +0.000 OA
ATOM      3  N   UNL     1       3.367   6.924  18.101  0.00  0.00    +0.000 N 
ATOM      4  C   UNL     1       3.214   5.879  19.043  0.00  0.00    +0.000 A 
ATOM      5  C   UNL     1       3.809   4.606  19.157  0.00  0.00    +0.000 A 
ATOM      6  C   UNL     1       3.334   3.676  20.104  0.00  0.00    +0.000 A 
ATOM      7  C   UNL     1       2.305   4.036  20.974  0.00  0.00    +0.000 A 
ATOM      8  C   UNL     1       1.748   5.317  20.928  0.00  0.00    +0.000 A 
ATOM      9  C   UNL     1       2.198   6.230  19.958  0.00  0.00    +0.000 A 
ATOM     10  C   UNL     1       1.869   7.549  19.615  0.00  0.00    +0.000 A 
ATOM     11  O   UNL     1       1.052   8.530  20.076  0.00  0.00    +0.000 OA
ATOM     12  C   UNL     1       1.213   9.572  19.192  0.00  0.00    +0.000 A 
ATOM     13  C   UNL     1       2.154   9.274  18.223  0.00  0.00    +0.000 A 
ATOM     14  C   UNL     1       2.536   7.951  18.527  0.00  0.00    +0.000 A 
ENDROOT
BRANCH  12  15
ATOM     15  C   UNL     1       0.499  10.830  19.375  0.00  0.00    +0.000 C 
ATOM     16  O   UNL     1       0.064  11.438  18.394  0.00  0.00    +0.000 OA
ATOM     17  N   UNL     1       0.262  11.323  20.661  0.00  0.00    +0.000 N 
ATOM     18  C   UNL     1       0.534  10.649  21.936  0.00  0.00    +0.000 C 
ATOM     19  C   UNL     1      -0.756  10.479  22.747  0.00  0.00    +0.000 C 
ATOM     20  O   UNL     1      -1.455  11.722  22.905  0.00  0.00    +0.000 OA
ATOM     21  C   UNL     1      -1.784  12.282  21.623  0.00  0.00    +0.000 C 
ATOM     22  C   UNL     1      -0.513  12.557  20.815  0.00  0.00    +0.000 C 
ENDBRANCH  12  15
BRANCH   6  23
ATOM     23  C   UNL     1       3.914   2.279  20.142  0.00  0.00    +0.000 C 
ATOM     24  F   UNL     1       5.181   2.208  19.640  0.00  0.00    +0.000 F 
ATOM     25  F   UNL     1       3.982   1.769  21.400  0.00  0.00    +0.000 F 
ATOM     26  F   UNL     1       3.178   1.395  19.411  0.00  0.00    +0.000 F 
ENDBRANCH   6  23
BRANCH   1  27
ATOM     27  C   UNL     1       5.370   6.228  16.759  0.00  0.00    +0.000 C 
BRANCH  27  28
ATOM     28  C   UNL     1       6.553   6.949  17.435  0.00  0.00    +0.000 C 
ATOM     29  C   UNL     1       7.450   6.059  18.294  0.00  0.00    +0.000 C 
ENDBRANCH  27  28
BRANCH  27  30
ATOM     30  C   UNL     1       5.609   5.885  15.270  0.00  0.00    +0.000 C 
BRANCH  30  31
ATOM     31  C   UNL     1       5.473   4.403  14.903  0.00  0.00    +0.000 C 
BRANCH  31  33
ATOM     32  C   UNL     1       5.493   3.417  12.589  0.00  0.00    +0.000 C 
ATOM     33  C   UNL     1       6.345   3.964  13.725  0.00  0.00    +0.000 C 
ENDBRANCH  31  33
ENDBRANCH  30  31
ENDBRANCH  27  30
ENDBRANCH   1  27
TORSDOF 7
ENDMDL
MODEL 7
REMARK VINA RESULT:      -7.5      1.815      4.413
REMARK  Name = 
REMARK  9 active torsions:
REMARK  status: ('A' for Active; 'I' for Inactive)
REMARK    1  A    between atoms: C_1  and  C_2
REMARK    2  A    between atoms: C_2  and  C_3
REMARK    3  A    between atoms: C_3  and  C_4
REMARK    4  A    between atoms: C_4  and  C_5
REMARK    5  A    between atoms: C_5  and  C_6
REMARK    6  A    between atoms: C_5  and  C_8
REMARK    7  A    between atoms: C_6  and  C_7
REMARK    8  A    between atoms: C_13  and  C_14
REMARK    9  A    between atoms: C_23  and  C_24
REMARK                            x       y       z     vdW  Elec       q    Type
REMARK                         _______ _______ _______ _____ _____    ______ ____
ROOT
ATOM      1  C   UNL     1       2.086   5.315  20.301  0.00  0.00    +0.000 C 
ATOM      2  O   UNL     1       1.745   5.781  21.385  0.00  0.00    +0.000 OA
ATOM      3  N   UNL     1       2.444   6.214  19.278  0.00  0.00    +0.000 N 
ATOM      4  C   UNL     1       3.282   6.103  18.143  0.00  0.00    +0.000 A 
ATOM      5  C   UNL     1       3.996   5.021  17.590  0.00  0.00    +0.000 A 
ATOM      6  C   UNL     1       4.916   5.231  16.542  0.00  0.00    +0.000 A 
ATOM      7  C   UNL     1       5.078   6.509  16.008  0.00  0.00    +0.000 A 
ATOM      8  C   UNL     1       4.328   7.585  16.491  0.00  0.00    +0.000 A 
ATOM      9  C   UNL     1       3.439   7.379  17.562  0.00  0.00    +0.000 A 
ATOM     10  C   UNL     1       2.568   8.199  18.292  0.00  0.00    +0.000 A 
ATOM     11  O   UNL     1       2.148   9.490  18.268  0.00  0.00    +0.000 OA
ATOM     12  C   UNL     1       1.301   9.609  19.345  0.00  0.00    +0.000 A 
ATOM     13  C   UNL     1       1.146   8.404  20.005  0.00  0.00    +0.000 A 
ATOM     14  C   UNL     1       1.997   7.528  19.300  0.00  0.00    +0.000 A 
ENDROOT
BRANCH  12  15
ATOM     15  C   UNL     1       0.628  10.869  19.635  0.00  0.00    +0.000 C 
ATOM     16  O   UNL     1       0.249  11.592  18.710  0.00  0.00    +0.000 OA
ATOM     17  N   UNL     1       0.365  11.238  20.957  0.00  0.00    +0.000 N 
ATOM     18  C   UNL     1       0.567  10.427  22.164  0.00  0.00    +0.000 C 
ATOM     19  C   UNL     1      -0.756  10.227  22.913  0.00  0.00    +0.000 C 
ATOM     20  O   UNL     1      -1.413  11.474  23.177  0.00  0.00    +0.000 OA
ATOM     21  C   UNL     1      -1.677  12.176  21.951  0.00  0.00    +0.000 C 
ATOM     22  C   UNL     1      -0.369  12.480  21.215  0.00  0.00    +0.000 C 
ENDBRANCH  12  15
BRANCH   6  23
ATOM     23  C   UNL     1       5.751   4.077  16.032  0.00  0.00    +0.000 C 
ATOM     24  F   UNL     1       5.195   2.857  16.284  0.00  0.00    +0.000 F 
ATOM     25  F   UNL     1       5.952   4.124  14.688  0.00  0.00    +0.000 F 
ATOM     26  F   UNL     1       6.987   4.044  16.602  0.00  0.00    +0.000 F 
ENDBRANCH   6  23
BRANCH   1  27
ATOM     27  C   UNL     1       2.081   3.833  19.986  0.00  0.00    +0.000 C 
BRANCH  27  28
ATOM     28  C   UNL     1       0.678   3.382  19.536  0.00  0.00    +0.000 C 
ATOM     29  C   UNL     1       0.651   2.153  18.630  0.00  0.00    +0.000 C 
ENDBRANCH  27  28
BRANCH  27  30
ATOM     30  C   UNL     1       2.645   3.036  21.186  0.00  0.00    +0.000 C 
BRANCH  30  31
ATOM     31  C   UNL     1       3.942   2.265  20.916  0.00  0.00    +0.000 C 
BRANCH  31  33
ATOM     32  C   UNL     1       3.920   1.103  18.685  0.00  0.00    +0.000 C 
ATOM     33  C   UNL     1       4.412   2.316  19.460  0.00  0.00    +0.000 C 
ENDBRANCH  31  33
ENDBRANCH  30  31
ENDBRANCH  27  30
ENDBRANCH   1  27
TORSDOF 7
ENDMDL
MODEL 8
REMARK VINA RESULT:      -7.5      1.855      2.152
REMARK  Name = 
REMARK  9 active torsions:
REMARK  status: ('A' for Active; 'I' for Inactive)
REMARK    1  A    between atoms: C_1  and  C_2
REMARK    2  A    between atoms: C_2  and  C_3
REMARK    3  A    between atoms: C_3  and  C_4
REMARK    4  A    between atoms: C_4  and  C_5
REMARK    5  A    between atoms: C_5  and  C_6
REMARK    6  A    between atoms: C_5  and  C_8
REMARK    7  A    between atoms: C_6  and  C_7
REMARK    8  A    between atoms: C_13  and  C_14
REMARK    9  A    between atoms: C_23  and  C_24
REMARK                            x       y       z     vdW  Elec       q    Type
REMARK                         _______ _______ _______ _____ _____    ______ ____
ROOT
ATOM      1  C   UNL     1       4.076   7.113  16.846  0.00  0.00    +0.000 C 
ATOM      2  O   UNL     1       3.716   7.870  15.948  0.00  0.00    +0.000 OA
ATOM      3  N   UNL     1       3.308   7.075  18.026  0.00  0.00    +0.000 N 
ATOM      4  C   UNL     1       3.108   6.085  19.017  0.00  0.00    +0.000 A 
ATOM      5  C   UNL     1       3.674   4.809  19.217  0.00  0.00    +0.000 A 
ATOM      6  C   UNL     1       3.154   3.941  20.198  0.00  0.00    +0.000 A 
ATOM      7  C   UNL     1       2.110   4.367  21.018  0.00  0.00    +0.000 A 
ATOM      8  C   UNL     1       1.580   5.654  20.888  0.00  0.00    +0.000 A 
ATOM      9  C   UNL     1       2.075   6.504  19.883  0.00  0.00    +0.000 A 
ATOM     10  C   UNL     1       1.782   7.808  19.461  0.00  0.00    +0.000 A 
ATOM     11  O   UNL     1       0.973   8.828  19.846  0.00  0.00    +0.000 OA
ATOM     12  C   UNL     1       1.179   9.818  18.912  0.00  0.00    +0.000 A 
ATOM     13  C   UNL     1       2.140   9.451  17.988  0.00  0.00    +0.000 A 
ATOM     14  C   UNL     1       2.487   8.139  18.373  0.00  0.00    +0.000 A 
ENDROOT
BRANCH  12  15
ATOM     15  C   UNL     1       0.487  11.097  19.007  0.00  0.00    +0.000 C 
ATOM     16  O   UNL     1      -0.632  11.153  19.523  0.00  0.00    +0.000 OA
ATOM     17  N   UNL     1       1.107  12.267  18.563  0.00  0.00    +0.000 N 
ATOM     18  C   UNL     1       2.493  12.421  18.104  0.00  0.00    +0.000 C 
ATOM     19  C   UNL     1       3.246  13.433  18.975  0.00  0.00    +0.000 C 
ATOM     20  O   UNL     1       2.544  14.680  19.072  0.00  0.00    +0.000 OA
ATOM     21  C   UNL     1       1.232  14.480  19.624  0.00  0.00    +0.000 C 
ATOM     22  C   UNL     1       0.411  13.546  18.730  0.00  0.00    +0.000 C 
ENDBRANCH  12  15
BRANCH   6  23
ATOM     23  C   UNL     1       3.705   2.537  20.326  0.00  0.00    +0.000 C 
ATOM     24  F   UNL     1       5.035   2.451  20.035  0.00  0.00    +0.000 F 
ATOM     25  F   UNL     1       3.564   2.027  21.579  0.00  0.00    +0.000 F 
ATOM     26  F   UNL     1       3.086   1.661  19.487  0.00  0.00    +0.000 F 
ENDBRANCH   6  23
BRANCH   1  27
ATOM     27  C   UNL     1       5.333   6.270  16.780  0.00  0.00    +0.000 C 
BRANCH  27  28
ATOM     28  C   UNL     1       6.492   6.970  17.515  0.00  0.00    +0.000 C 
ATOM     29  C   UNL     1       7.507   6.034  18.167  0.00  0.00    +0.000 C 
ENDBRANCH  27  28
BRANCH  27  30
ATOM     30  C   UNL     1       5.647   5.905  15.310  0.00  0.00    +0.000 C 
BRANCH  30  31
ATOM     31  C   UNL     1       5.427   4.436  14.932  0.00  0.00    +0.000 C 
BRANCH  31  33
ATOM     32  C   UNL     1       5.531   3.383  12.650  0.00  0.00    +0.000 C 
ATOM     33  C   UNL     1       6.343   3.931  13.815  0.00  0.00    +0.000 C 
ENDBRANCH  31  33
ENDBRANCH  30  31
ENDBRANCH  27  30
ENDBRANCH   1  27
TORSDOF 7
ENDMDL
MODEL 9
REMARK VINA RESULT:      -7.4      2.187      4.505
REMARK  Name = 
REMARK  9 active torsions:
REMARK  status: ('A' for Active; 'I' for Inactive)
REMARK    1  A    between atoms: C_1  and  C_2
REMARK    2  A    between atoms: C_2  and  C_3
REMARK    3  A    between atoms: C_3  and  C_4
REMARK    4  A    between atoms: C_4  and  C_5
REMARK    5  A    between atoms: C_5  and  C_6
REMARK    6  A    between atoms: C_5  and  C_8
REMARK    7  A    between atoms: C_6  and  C_7
REMARK    8  A    between atoms: C_13  and  C_14
REMARK    9  A    between atoms: C_23  and  C_24
REMARK                            x       y       z     vdW  Elec       q    Type
REMARK                         _______ _______ _______ _____ _____    ______ ____
ROOT
ATOM      1  C   UNL     1       1.993   5.805  20.206  0.00  0.00    +0.000 C 
ATOM      2  O   UNL     1       1.572   6.388  21.201  0.00  0.00    +0.000 OA
ATOM      3  N   UNL     1       2.395   6.583  19.104  0.00  0.00    +0.000 N 
ATOM      4  C   UNL     1       3.307   6.362  18.045  0.00  0.00    +0.000 A 
ATOM      5  C   UNL     1       4.081   5.243  17.674  0.00  0.00    +0.000 A 
ATOM      6  C   UNL     1       5.061   5.353  16.666  0.00  0.00    +0.000 A 
ATOM      7  C   UNL     1       5.228   6.561  15.989  0.00  0.00    +0.000 A 
ATOM      8  C   UNL     1       4.422   7.664  16.290  0.00  0.00    +0.000 A 
ATOM      9  C   UNL     1       3.472   7.562  17.321  0.00  0.00    +0.000 A 
ATOM     10  C   UNL     1       2.536   8.437  17.891  0.00  0.00    +0.000 A 
ATOM     11  O   UNL     1       2.088   9.702  17.681  0.00  0.00    +0.000 OA
ATOM     12  C   UNL     1       1.171   9.925  18.682  0.00  0.00    +0.000 A 
ATOM     13  C   UNL     1       1.003   8.805  19.475  0.00  0.00    +0.000 A 
ATOM     14  C   UNL     1       1.917   7.876  18.937  0.00  0.00    +0.000 A 
ENDROOT
BRANCH  12  15
ATOM     15  C   UNL     1       0.452  11.189  18.773  0.00  0.00    +0.000 C 
ATOM     16  O   UNL     1      -0.719  11.204  19.159  0.00  0.00    +0.000 OA
ATOM     17  N   UNL     1       1.100  12.390  18.473  0.00  0.00    +0.000 N 
ATOM     18  C   UNL     1       2.527  12.583  18.186  0.00  0.00    +0.000 C 
ATOM     19  C   UNL     1       3.160  13.547  19.197  0.00  0.00    +0.000 C 
ATOM     20  O   UNL     1       2.432  14.780  19.287  0.00  0.00    +0.000 OA
ATOM     21  C   UNL     1       1.069  14.535  19.672  0.00  0.00    +0.000 C 
ATOM     22  C   UNL     1       0.370  13.650  18.635  0.00  0.00    +0.000 C 
ENDBRANCH  12  15
BRANCH   6  23
ATOM     23  C   UNL     1       5.954   4.172  16.354  0.00  0.00    +0.000 C 
ATOM     24  F   UNL     1       6.978   4.022  17.243  0.00  0.00    +0.000 F 
ATOM     25  F   UNL     1       5.284   2.989  16.353  0.00  0.00    +0.000 F 
ATOM     26  F   UNL     1       6.541   4.278  15.130  0.00  0.00    +0.000 F 
ENDBRANCH   6  23
BRANCH   1  27
ATOM     27  C   UNL     1       2.043   4.297  20.076  0.00  0.00    +0.000 C 
BRANCH  27  28
ATOM     28  C   UNL     1       0.636   3.732  19.797  0.00  0.00    +0.000 C 
ATOM     29  C   UNL     1       0.581   2.613  18.759  0.00  0.00    +0.000 C 
ENDBRANCH  27  28
BRANCH  27  30
ATOM     30  C   UNL     1       2.734   3.682  21.316  0.00  0.00    +0.000 C 
BRANCH  30  31
ATOM     31  C   UNL     1       3.496   2.375  21.068  0.00  0.00    +0.000 C 
BRANCH  31  33
ATOM     32  C   UNL     1       3.809   1.365  18.786  0.00  0.00    +0.000 C 
ATOM     33  C   UNL     1       4.342   2.373  19.793  0.00  0.00    +0.000 C 
ENDBRANCH  31  33
ENDBRANCH  30  31
ENDBRANCH  27  30
ENDBRANCH   1  27
TORSDOF 7
ENDMDL
