MODEL 1
REMARK VINA RESULT:      -8.8      0.000      0.000
REMARK  Name = 
REMARK  3 active torsions:
REMARK  status: ('A' for Active; 'I' for Inactive)
REMARK    1  A    between atoms: C_2  and  C_22
REMARK    2  A    between atoms: C_9  and  O_10
REMARK    3  A    between atoms: O_10  and  C_11
REMARK                            x       y       z     vdW  Elec       q    Type
REMARK                         _______ _______ _______ _____ _____    ______ ____
ROOT
ATOM      1  O   UNL     1      -0.118  11.758  22.679  0.00  0.00    +0.000 OA
ATOM      2  C   UNL     1      -1.090  12.165  22.051  0.00  0.00    +0.000 C 
ATOM      3  N   UNL     1      -1.359  11.866  20.729  0.00  0.00    +0.000 N 
ATOM      4  C   UNL     1      -0.475  11.129  19.972  0.00  0.00    +0.000 A 
ATOM      5  N   UNL     1      -0.176  11.549  18.737  0.00  0.00    +0.000 NA
ATOM      6  N   UNL     1       0.787  10.690  18.338  0.00  0.00    +0.000 N 
ATOM      7  C   UNL     1       0.994   9.657  19.204  0.00  0.00    +0.000 A 
ATOM      8  N   UNL     1       1.825   8.618  19.034  0.00  0.00    +0.000 NA
ATOM      9  C   UNL     1       1.759   7.758  20.069  0.00  0.00    +0.000 A 
ATOM     10  N   UNL     1       0.942   7.847  21.148  0.00  0.00    +0.000 NA
ATOM     11  C   UNL     1       0.157   8.941  21.281  0.00  0.00    +0.000 A 
ATOM     12  C   UNL     1       0.164   9.905  20.283  0.00  0.00    +0.000 A 
ATOM     13  H   UNL     1      -1.859  12.559  20.188  0.00  0.00    +0.000 HD
ATOM     14  H   UNL     1       1.260  10.847  17.457  0.00  0.00    +0.000 HD
ENDROOT
BRANCH   2  15
ATOM     15  C   UNL     1      -2.138  13.084  22.660  0.00  0.00    +0.000 C 
ATOM     16  C   UNL     1      -3.143  12.290  23.490  0.00  0.00    +0.000 C 
ATOM     17  C   UNL     1      -3.824  13.340  24.349  0.00  0.00    +0.000 C 
ATOM     18  C   UNL     1      -2.783  14.436  24.566  0.00  0.00    +0.000 C 
ATOM     19  C   UNL     1      -1.590  14.077  23.683  0.00  0.00    +0.000 C 
ENDBRANCH   2  15
BRANCH   9  20
ATOM     20  O   UNL     1       2.640   6.686  19.988  0.00  0.00    +0.000 OA
BRANCH  20  21
ATOM     21  C   UNL     1       2.120   5.449  19.687  0.00  0.00    +0.000 A 
ATOM     22  C   UNL     1       1.563   4.589  20.645  0.00  0.00    +0.000 A 
ATOM     23  C   UNL     1       1.047   3.352  20.260  0.00  0.00    +0.000 A 
ATOM     24  C   UNL     1       1.134   2.957  18.929  0.00  0.00    +0.000 A 
ATOM     25  F   UNL     1       0.641   1.767  18.564  0.00  0.00    +0.000 F 
ATOM     26  C   UNL     1       1.728   3.774  17.976  0.00  0.00    +0.000 A 
ATOM     27  C   UNL     1       2.219   5.017  18.363  0.00  0.00    +0.000 A 
ATOM     28  F   UNL     1       2.790   5.802  17.438  0.00  0.00    +0.000 F 
ENDBRANCH  20  21
ENDBRANCH   9  20
TORSDOF 3
ENDMDL
MODEL 2
REMARK VINA RESULT:      -8.5      1.066      1.564
REMARK  Name = 
REMARK  3 active torsions:
REMARK  status: ('A' for Active; 'I' for Inactive)
REMARK    1  A    between atoms: C_2  and  C_22
REMARK    2  A    between atoms: C_9  and  O_10
REMARK    3  A    between atoms: O_10  and  C_11
REMARK                            x       y       z     vdW  Elec       q    Type
REMARK                         _______ _______ _______ _____ _____    ______ ____
ROOT
ATOM      1  O   UNL     1      -0.011  11.694  22.580  0.00  0.00    +0.000 OA
ATOM      2  C   UNL     1      -1.034  12.049  22.004  0.00  0.00    +0.000 C 
ATOM      3  N   UNL     1      -1.368  11.714  20.705  0.00  0.00    +0.000 N 
ATOM      4  C   UNL     1      -0.499  10.999  19.909  0.00  0.00    +0.000 A 
ATOM      5  N   UNL     1      -0.292  11.406  18.651  0.00  0.00    +0.000 NA
ATOM      6  N   UNL     1       0.682  10.580  18.211  0.00  0.00    +0.000 N 
ATOM      7  C   UNL     1       0.982   9.573  19.080  0.00  0.00    +0.000 A 
ATOM      8  N   UNL     1       1.844   8.566  18.879  0.00  0.00    +0.000 NA
ATOM      9  C   UNL     1       1.876   7.725  19.931  0.00  0.00    +0.000 A 
ATOM     10  N   UNL     1       1.121   7.801  21.055  0.00  0.00    +0.000 NA
ATOM     11  C   UNL     1       0.300   8.865  21.216  0.00  0.00    +0.000 A 
ATOM     12  C   UNL     1       0.208   9.808  20.202  0.00  0.00    +0.000 A 
ATOM     13  H   UNL     1      -1.928  12.375  20.183  0.00  0.00    +0.000 HD
ATOM     14  H   UNL     1       1.094  10.739  17.300  0.00  0.00    +0.000 HD
ENDROOT
BRANCH   2  15
ATOM     15  C   UNL     1      -2.083  12.936  22.658  0.00  0.00    +0.000 C 
ATOM     16  C   UNL     1      -3.016  13.538  21.612  0.00  0.00    +0.000 C 
ATOM     17  C   UNL     1      -4.214  14.013  22.415  0.00  0.00    +0.000 C 
ATOM     18  C   UNL     1      -4.305  13.073  23.616  0.00  0.00    +0.000 C 
ATOM     19  C   UNL     1      -3.058  12.194  23.570  0.00  0.00    +0.000 C 
ENDBRANCH   2  15
BRANCH   9  20
ATOM     20  O   UNL     1       2.795   6.688  19.816  0.00  0.00    +0.000 OA
BRANCH  20  21
ATOM     21  C   UNL     1       2.325   5.452  19.438  0.00  0.00    +0.000 A 
ATOM     22  C   UNL     1       2.030   5.108  18.111  0.00  0.00    +0.000 A 
ATOM     23  C   UNL     1       1.564   3.830  17.806  0.00  0.00    +0.000 A 
ATOM     24  C   UNL     1       1.346   2.916  18.832  0.00  0.00    +0.000 A 
ATOM     25  F   UNL     1       0.895   1.691  18.535  0.00  0.00    +0.000 F 
ATOM     26  C   UNL     1       1.584   3.256  20.157  0.00  0.00    +0.000 A 
ATOM     27  C   UNL     1       2.072   4.526  20.452  0.00  0.00    +0.000 A 
ATOM     28  F   UNL     1       2.301   4.848  21.734  0.00  0.00    +0.000 F 
ENDBRANCH  20  21
ENDBRANCH   9  20
TORSDOF 3
ENDMDL
MODEL 3
REMARK VINA RESULT:      -8.4      2.630      3.654
REMARK  Name = 
REMARK  3 active torsions:
REMARK  status: ('A' for Active; 'I' for Inactive)
REMARK    1  A    between atoms: C_2  and  C_22
REMARK    2  A    between atoms: C_9  and  O_10
REMARK    3  A    between atoms: O_10  and  C_11
REMARK                            x       y       z     vdW  Elec       q    Type
REMARK                         _______ _______ _______ _____ _____    ______ ____
ROOT
ATOM      1  O   UNL     1       1.491  10.065  22.006  0.00  0.00    +0.000 OA
ATOM      2  C   UNL     1       0.560  10.551  21.373  0.00  0.00    +0.000 C 
ATOM      3  N   UNL     1       0.267  10.268  20.052  0.00  0.00    +0.000 N 
ATOM      4  C   UNL     1       1.086   9.452  19.301  0.00  0.00    +0.000 A 
ATOM      5  N   UNL     1       1.422   9.836  18.064  0.00  0.00    +0.000 NA
ATOM      6  N   UNL     1       2.307   8.893  17.673  0.00  0.00    +0.000 N 
ATOM      7  C   UNL     1       2.421   7.852  18.546  0.00  0.00    +0.000 A 
ATOM      8  N   UNL     1       3.159   6.743  18.385  0.00  0.00    +0.000 NA
ATOM      9  C   UNL     1       3.018   5.899  19.426  0.00  0.00    +0.000 A 
ATOM     10  N   UNL     1       2.209   6.066  20.502  0.00  0.00    +0.000 NA
ATOM     11  C   UNL     1       1.522   7.226  20.626  0.00  0.00    +0.000 A 
ATOM     12  C   UNL     1       1.615   8.179  19.621  0.00  0.00    +0.000 A 
ATOM     13  H   UNL     1      -0.170  10.998  19.505  0.00  0.00    +0.000 HD
ATOM     14  H   UNL     1       2.793   9.003  16.792  0.00  0.00    +0.000 HD
ENDROOT
BRANCH   2  15
ATOM     15  C   UNL     1      -0.406  11.562  21.973  0.00  0.00    +0.000 C 
ATOM     16  C   UNL     1      -1.469  11.970  20.957  0.00  0.00    +0.000 C 
ATOM     17  C   UNL     1      -2.560  12.606  21.799  0.00  0.00    +0.000 C 
ATOM     18  C   UNL     1      -2.491  11.912  23.158  0.00  0.00    +0.000 C 
ATOM     19  C   UNL     1      -1.252  11.021  23.123  0.00  0.00    +0.000 C 
ENDBRANCH   2  15
BRANCH   9  20
ATOM     20  O   UNL     1       3.802   4.755  19.354  0.00  0.00    +0.000 OA
BRANCH  20  21
ATOM     21  C   UNL     1       4.686   4.647  18.305  0.00  0.00    +0.000 A 
ATOM     22  C   UNL     1       4.342   4.118  17.053  0.00  0.00    +0.000 A 
ATOM     23  C   UNL     1       5.295   4.051  16.036  0.00  0.00    +0.000 A 
ATOM     24  C   UNL     1       6.598   4.465  16.288  0.00  0.00    +0.000 A 
ATOM     25  F   UNL     1       7.510   4.395  15.310  0.00  0.00    +0.000 F 
ATOM     26  C   UNL     1       6.969   4.945  17.537  0.00  0.00    +0.000 A 
ATOM     27  C   UNL     1       6.008   5.031  18.540  0.00  0.00    +0.000 A 
ATOM     28  F   UNL     1       6.372   5.497  19.745  0.00  0.00    +0.000 F 
ENDBRANCH  20  21
ENDBRANCH   9  20
TORSDOF 3
ENDMDL
MODEL 4
REMARK VINA RESULT:      -8.4      7.309      8.513
REMARK  Name = 
REMARK  3 active torsions:
REMARK  status: ('A' for Active; 'I' for Inactive)
REMARK    1  A    between atoms: C_2  and  C_22
REMARK    2  A    between atoms: C_9  and  O_10
REMARK    3  A    between atoms: O_10  and  C_11
REMARK                            x       y       z     vdW  Elec       q    Type
REMARK                         _______ _______ _______ _____ _____    ______ ____
ROOT
ATOM      1  O   UNL     1       7.045   9.241  17.788  0.00  0.00    +0.000 OA
ATOM      2  C   UNL     1       8.214   9.122  18.141  0.00  0.00    +0.000 C 
ATOM      3  N   UNL     1       8.788   7.949  18.594  0.00  0.00    +0.000 N 
ATOM      4  C   UNL     1       8.035   6.808  18.766  0.00  0.00    +0.000 A 
ATOM      5  N   UNL     1       8.184   6.099  19.891  0.00  0.00    +0.000 NA
ATOM      6  N   UNL     1       7.232   5.145  19.789  0.00  0.00    +0.000 N 
ATOM      7  C   UNL     1       6.599   5.130  18.581  0.00  0.00    +0.000 A 
ATOM      8  N   UNL     1       5.673   4.251  18.169  0.00  0.00    +0.000 NA
ATOM      9  C   UNL     1       5.279   4.504  16.905  0.00  0.00    +0.000 A 
ATOM     10  N   UNL     1       5.757   5.472  16.084  0.00  0.00    +0.000 NA
ATOM     11  C   UNL     1       6.661   6.352  16.574  0.00  0.00    +0.000 A 
ATOM     12  C   UNL     1       7.118   6.200  17.876  0.00  0.00    +0.000 A 
ATOM     13  H   UNL     1       9.542   8.028  19.265  0.00  0.00    +0.000 HD
ATOM     14  H   UNL     1       7.068   4.521  20.569  0.00  0.00    +0.000 HD
ENDROOT
BRANCH   2  15
ATOM     15  C   UNL     1       9.198  10.283  18.140  0.00  0.00    +0.000 C 
ATOM     16  C   UNL     1       8.506  11.582  17.737  0.00  0.00    +0.000 C 
ATOM     17  C   UNL     1       9.465  12.667  18.192  0.00  0.00    +0.000 C 
ATOM     18  C   UNL     1      10.192  12.094  19.407  0.00  0.00    +0.000 C 
ATOM     19  C   UNL     1       9.763  10.633  19.515  0.00  0.00    +0.000 C 
ENDBRANCH   2  15
BRANCH   9  20
ATOM     20  O   UNL     1       4.275   3.667  16.434  0.00  0.00    +0.000 OA
BRANCH  20  21
ATOM     21  C   UNL     1       3.191   3.443  17.251  0.00  0.00    +0.000 A 
ATOM     22  C   UNL     1       2.240   4.425  17.563  0.00  0.00    +0.000 A 
ATOM     23  C   UNL     1       1.162   4.117  18.393  0.00  0.00    +0.000 A 
ATOM     24  C   UNL     1       1.065   2.845  18.948  0.00  0.00    +0.000 A 
ATOM     25  F   UNL     1       0.031   2.555  19.747  0.00  0.00    +0.000 F 
ATOM     26  C   UNL     1       2.025   1.875  18.690  0.00  0.00    +0.000 A 
ATOM     27  C   UNL     1       3.085   2.182  17.842  0.00  0.00    +0.000 A 
ATOM     28  F   UNL     1       4.008   1.241  17.595  0.00  0.00    +0.000 F 
ENDBRANCH  20  21
ENDBRANCH   9  20
TORSDOF 3
ENDMDL
MODEL 5
REMARK VINA RESULT:      -8.3      1.460      1.799
REMARK  Name = 
REMARK  3 active torsions:
REMARK  status: ('A' for Active; 'I' for Inactive)
REMARK    1  A    between atoms: C_2  and  C_22
REMARK    2  A    between atoms: C_9  and  O_10
REMARK    3  A    between atoms: O_10  and  C_11
REMARK                            x       y       z     vdW  Elec       q    Type
REMARK                         _______ _______ _______ _____ _____    ______ ____
ROOT
ATOM      1  O   UNL     1       0.788  11.420  22.060  0.00  0.00    +0.000 OA
ATOM      2  C   UNL     1      -0.423  11.549  21.915  0.00  0.00    +0.000 C 
ATOM      3  N   UNL     1      -1.138  11.117  20.814  0.00  0.00    +0.000 N 
ATOM      4  C   UNL     1      -0.501  10.567  19.723  0.00  0.00    +0.000 A 
ATOM      5  N   UNL     1      -0.853  10.972  18.497  0.00  0.00    +0.000 NA
ATOM      6  N   UNL     1       0.031  10.342  17.693  0.00  0.00    +0.000 N 
ATOM      7  C   UNL     1       0.819   9.440  18.345  0.00  0.00    +0.000 A 
ATOM      8  N   UNL     1       1.726   8.618  17.795  0.00  0.00    +0.000 NA
ATOM      9  C   UNL     1       2.305   7.829  18.722  0.00  0.00    +0.000 A 
ATOM     10  N   UNL     1       2.015   7.787  20.047  0.00  0.00    +0.000 NA
ATOM     11  C   UNL     1       1.120   8.671  20.546  0.00  0.00    +0.000 A 
ATOM     12  C   UNL     1       0.481   9.548  19.682  0.00  0.00    +0.000 A 
ATOM     13  H   UNL     1      -1.967  11.640  20.564  0.00  0.00    +0.000 HD
ATOM     14  H   UNL     1       0.042  10.554  16.703  0.00  0.00    +0.000 HD
ENDROOT
BRANCH   2  15
ATOM     15  C   UNL     1      -1.309  12.229  22.948  0.00  0.00    +0.000 C 
ATOM     16  C   UNL     1      -0.965  13.711  23.069  0.00  0.00    +0.000 C 
ATOM     17  C   UNL     1      -2.168  14.313  23.773  0.00  0.00    +0.000 C 
ATOM     18  C   UNL     1      -3.361  13.451  23.363  0.00  0.00    +0.000 C 
ATOM     19  C   UNL     1      -2.790  12.273  22.578  0.00  0.00    +0.000 C 
ENDBRANCH   2  15
BRANCH   9  20
ATOM     20  O   UNL     1       3.300   6.993  18.231  0.00  0.00    +0.000 OA
BRANCH  20  21
ATOM     21  C   UNL     1       3.113   5.635  18.349  0.00  0.00    +0.000 A 
ATOM     22  C   UNL     1       2.000   4.959  17.829  0.00  0.00    +0.000 A 
ATOM     23  C   UNL     1       1.885   3.577  17.982  0.00  0.00    +0.000 A 
ATOM     24  C   UNL     1       2.857   2.883  18.696  0.00  0.00    +0.000 A 
ATOM     25  F   UNL     1       2.741   1.558  18.844  0.00  0.00    +0.000 F 
ATOM     26  C   UNL     1       3.939   3.544  19.262  0.00  0.00    +0.000 A 
ATOM     27  C   UNL     1       4.059   4.920  19.085  0.00  0.00    +0.000 A 
ATOM     28  F   UNL     1       5.108   5.552  19.632  0.00  0.00    +0.000 F 
ENDBRANCH  20  21
ENDBRANCH   9  20
TORSDOF 3
ENDMDL
MODEL 6
REMARK VINA RESULT:      -8.3      2.487      3.479
REMARK  Name = 
REMARK  3 active torsions:
REMARK  status: ('A' for Active; 'I' for Inactive)
REMARK    1  A    between atoms: C_2  and  C_22
REMARK    2  A    between atoms: C_9  and  O_10
REMARK    3  A    between atoms: O_10  and  C_11
REMARK                            x       y       z     vdW  Elec       q    Type
REMARK                         _______ _______ _______ _____ _____    ______ ____
ROOT
ATOM      1  O   UNL     1       1.402  10.072  22.075  0.00  0.00    +0.000 OA
ATOM      2  C   UNL     1       0.501  10.583  21.419  0.00  0.00    +0.000 C 
ATOM      3  N   UNL     1       0.237  10.312  20.090  0.00  0.00    +0.000 N 
ATOM      4  C   UNL     1       1.055   9.477  19.359  0.00  0.00    +0.000 A 
ATOM      5  N   UNL     1       1.434   9.857  18.132  0.00  0.00    +0.000 NA
ATOM      6  N   UNL     1       2.306   8.893  17.762  0.00  0.00    +0.000 N 
ATOM      7  C   UNL     1       2.370   7.847  18.634  0.00  0.00    +0.000 A 
ATOM      8  N   UNL     1       3.084   6.721  18.489  0.00  0.00    +0.000 NA
ATOM      9  C   UNL     1       2.893   5.877  19.522  0.00  0.00    +0.000 A 
ATOM     10  N   UNL     1       2.060   6.062  20.577  0.00  0.00    +0.000 NA
ATOM     11  C   UNL     1       1.399   7.238  20.687  0.00  0.00    +0.000 A 
ATOM     12  C   UNL     1       1.544   8.191  19.688  0.00  0.00    +0.000 A 
ATOM     13  H   UNL     1      -0.166  11.054  19.534  0.00  0.00    +0.000 HD
ATOM     14  H   UNL     1       2.818   8.993  16.895  0.00  0.00    +0.000 HD
ENDROOT
BRANCH   2  15
ATOM     15  C   UNL     1      -0.455  11.617  21.997  0.00  0.00    +0.000 C 
ATOM     16  C   UNL     1      -1.494  12.037  20.961  0.00  0.00    +0.000 C 
ATOM     17  C   UNL     1      -2.586  12.700  21.780  0.00  0.00    +0.000 C 
ATOM     18  C   UNL     1      -2.552  12.014  23.145  0.00  0.00    +0.000 C 
ATOM     19  C   UNL     1      -1.330  11.100  23.137  0.00  0.00    +0.000 C 
ENDBRANCH   2  15
BRANCH   9  20
ATOM     20  O   UNL     1       3.650   4.713  19.468  0.00  0.00    +0.000 OA
BRANCH  20  21
ATOM     21  C   UNL     1       4.679   4.659  18.556  0.00  0.00    +0.000 A 
ATOM     22  C   UNL     1       5.970   5.142  18.816  0.00  0.00    +0.000 A 
ATOM     23  C   UNL     1       6.963   5.043  17.841  0.00  0.00    +0.000 A 
ATOM     24  C   UNL     1       6.651   4.510  16.595  0.00  0.00    +0.000 A 
ATOM     25  F   UNL     1       7.607   4.420  15.662  0.00  0.00    +0.000 F 
ATOM     26  C   UNL     1       5.366   4.074  16.303  0.00  0.00    +0.000 A 
ATOM     27  C   UNL     1       4.385   4.153  17.288  0.00  0.00    +0.000 A 
ATOM     28  F   UNL     1       3.146   3.729  17.000  0.00  0.00    +0.000 F 
ENDBRANCH  20  21
ENDBRANCH   9  20
TORSDOF 3
ENDMDL
MODEL 7
REMARK VINA RESULT:      -8.2      7.190      8.413
REMARK  Name = 
REMARK  3 active torsions:
REMARK  status: ('A' for Active; 'I' for Inactive)
REMARK    1  A    between atoms: C_2  and  C_22
REMARK    2  A    between atoms: C_9  and  O_10
REMARK    3  A    between atoms: O_10  and  C_11
REMARK                            x       y       z     vdW  Elec       q    Type
REMARK                         _______ _______ _______ _____ _____    ______ ____
ROOT
ATOM      1  O   UNL     1       7.927   6.991  18.991  0.00  0.00    +0.000 OA
ATOM      2  C   UNL     1       8.156   7.751  18.056  0.00  0.00    +0.000 C 
ATOM      3  N   UNL     1       7.784   7.524  16.744  0.00  0.00    +0.000 N 
ATOM      4  C   UNL     1       7.182   6.343  16.369  0.00  0.00    +0.000 A 
ATOM      5  N   UNL     1       7.614   5.718  15.267  0.00  0.00    +0.000 NA
ATOM      6  N   UNL     1       6.913   4.564  15.265  0.00  0.00    +0.000 N 
ATOM      7  C   UNL     1       5.949   4.506  16.227  0.00  0.00    +0.000 A 
ATOM      8  N   UNL     1       5.054   3.524  16.414  0.00  0.00    +0.000 NA
ATOM      9  C   UNL     1       4.221   3.801  17.436  0.00  0.00    +0.000 A 
ATOM     10  N   UNL     1       4.203   4.932  18.185  0.00  0.00    +0.000 NA
ATOM     11  C   UNL     1       5.159   5.867  17.975  0.00  0.00    +0.000 A 
ATOM     12  C   UNL     1       6.086   5.671  16.961  0.00  0.00    +0.000 A 
ATOM     13  H   UNL     1       8.374   7.913  16.019  0.00  0.00    +0.000 HD
ATOM     14  H   UNL     1       7.122   3.856  14.573  0.00  0.00    +0.000 HD
ENDROOT
BRANCH   2  15
ATOM     15  C   UNL     1       8.908   9.063  18.223  0.00  0.00    +0.000 C 
ATOM     16  C   UNL     1       8.142  10.216  17.582  0.00  0.00    +0.000 C 
ATOM     17  C   UNL     1       8.767  11.458  18.190  0.00  0.00    +0.000 C 
ATOM     18  C   UNL     1       9.245  11.043  19.580  0.00  0.00    +0.000 C 
ATOM     19  C   UNL     1       9.043   9.532  19.670  0.00  0.00    +0.000 C 
ENDBRANCH   2  15
BRANCH   9  20
ATOM     20  O   UNL     1       3.304   2.797  17.724  0.00  0.00    +0.000 OA
BRANCH  20  21
ATOM     21  C   UNL     1       2.754   2.773  18.985  0.00  0.00    +0.000 A 
ATOM     22  C   UNL     1       3.463   2.390  20.132  0.00  0.00    +0.000 A 
ATOM     23  C   UNL     1       2.836   2.400  21.378  0.00  0.00    +0.000 A 
ATOM     24  C   UNL     1       1.492   2.745  21.468  0.00  0.00    +0.000 A 
ATOM     25  F   UNL     1       0.894   2.750  22.665  0.00  0.00    +0.000 F 
ATOM     26  C   UNL     1       0.761   3.078  20.335  0.00  0.00    +0.000 A 
ATOM     27  C   UNL     1       1.398   3.089  19.098  0.00  0.00    +0.000 A 
ATOM     28  F   UNL     1       0.687   3.413  18.008  0.00  0.00    +0.000 F 
ENDBRANCH  20  21
ENDBRANCH   9  20
TORSDOF 3
ENDMDL
MODEL 8
REMARK VINA RESULT:      -8.2      3.003      3.759
REMARK  Name = 
REMARK  3 active torsions:
REMARK  status: ('A' for Active; 'I' for Inactive)
REMARK    1  A    between atoms: C_2  and  C_22
REMARK    2  A    between atoms: C_9  and  O_10
REMARK    3  A    between atoms: O_10  and  C_11
REMARK                            x       y       z     vdW  Elec       q    Type
REMARK                         _______ _______ _______ _____ _____    ______ ____
ROOT
ATOM      1  O   UNL     1      -2.047   9.684  17.542  0.00  0.00    +0.000 OA
ATOM      2  C   UNL     1      -2.178  10.680  18.247  0.00  0.00    +0.000 C 
ATOM      3  N   UNL     1      -1.396  10.981  19.345  0.00  0.00    +0.000 N 
ATOM      4  C   UNL     1      -0.430  10.105  19.792  0.00  0.00    +0.000 A 
ATOM      5  N   UNL     1      -0.348   9.848  21.103  0.00  0.00    +0.000 NA
ATOM      6  N   UNL     1       0.594   8.882  21.175  0.00  0.00    +0.000 N 
ATOM      7  C   UNL     1       1.217   8.634  19.987  0.00  0.00    +0.000 A 
ATOM      8  N   UNL     1       2.238   7.791  19.774  0.00  0.00    +0.000 NA
ATOM      9  C   UNL     1       2.637   7.813  18.487  0.00  0.00    +0.000 A 
ATOM     10  N   UNL     1       2.147   8.601  17.498  0.00  0.00    +0.000 NA
ATOM     11  C   UNL     1       1.089   9.401  17.768  0.00  0.00    +0.000 A 
ATOM     12  C   UNL     1       0.580   9.437  19.058  0.00  0.00    +0.000 A 
ATOM     13  H   UNL     1      -1.827  11.507  20.094  0.00  0.00    +0.000 HD
ATOM     14  H   UNL     1       0.783   8.437  22.064  0.00  0.00    +0.000 HD
ENDROOT
BRANCH   2  15
ATOM     15  C   UNL     1      -3.255  11.726  18.002  0.00  0.00    +0.000 C 
ATOM     16  C   UNL     1      -4.303  11.211  17.019  0.00  0.00    +0.000 C 
ATOM     17  C   UNL     1      -5.482  12.146  17.212  0.00  0.00    +0.000 C 
ATOM     18  C   UNL     1      -5.415  12.602  18.668  0.00  0.00    +0.000 C 
ATOM     19  C   UNL     1      -4.102  12.060  19.228  0.00  0.00    +0.000 C 
ENDBRANCH   2  15
BRANCH   9  20
ATOM     20  O   UNL     1       3.654   6.916  18.181  0.00  0.00    +0.000 OA
BRANCH  20  21
ATOM     21  C   UNL     1       3.393   5.574  18.330  0.00  0.00    +0.000 A 
ATOM     22  C   UNL     1       2.247   4.947  17.819  0.00  0.00    +0.000 A 
ATOM     23  C   UNL     1       2.057   3.578  18.005  0.00  0.00    +0.000 A 
ATOM     24  C   UNL     1       2.986   2.850  18.741  0.00  0.00    +0.000 A 
ATOM     25  F   UNL     1       2.798   1.536  18.920  0.00  0.00    +0.000 F 
ATOM     26  C   UNL     1       4.100   3.464  19.297  0.00  0.00    +0.000 A 
ATOM     27  C   UNL     1       4.295   4.826  19.088  0.00  0.00    +0.000 A 
ATOM     28  F   UNL     1       5.375   5.413  19.627  0.00  0.00    +0.000 F 
ENDBRANCH  20  21
ENDBRANCH   9  20
TORSDOF 3
ENDMDL
MODEL 9
REMARK VINA RESULT:      -8.1      7.122      8.452
REMARK  Name = 
REMARK  3 active torsions:
REMARK  status: ('A' for Active; 'I' for Inactive)
REMARK    1  A    between atoms: C_2  and  C_22
REMARK    2  A    between atoms: C_9  and  O_10
REMARK    3  A    between atoms: O_10  and  C_11
REMARK                            x       y       z     vdW  Elec       q    Type
REMARK                         _______ _______ _______ _____ _____    ______ ____
ROOT
ATOM      1  O   UNL     1       7.079   9.291  17.872  0.00  0.00    +0.000 OA
ATOM      2  C   UNL     1       8.250   9.133  18.198  0.00  0.00    +0.000 C 
ATOM      3  N   UNL     1       8.805   7.933  18.601  0.00  0.00    +0.000 N 
ATOM      4  C   UNL     1       8.028   6.805  18.751  0.00  0.00    +0.000 A 
ATOM      5  N   UNL     1       8.181   6.055  19.849  0.00  0.00    +0.000 NA
ATOM      6  N   UNL     1       7.205   5.129  19.735  0.00  0.00    +0.000 N 
ATOM      7  C   UNL     1       6.549   5.168  18.541  0.00  0.00    +0.000 A 
ATOM      8  N   UNL     1       5.593   4.326  18.119  0.00  0.00    +0.000 NA
ATOM      9  C   UNL     1       5.182   4.629  16.872  0.00  0.00    +0.000 A 
ATOM     10  N   UNL     1       5.667   5.612  16.074  0.00  0.00    +0.000 NA
ATOM     11  C   UNL     1       6.601   6.454  16.573  0.00  0.00    +0.000 A 
ATOM     12  C   UNL     1       7.079   6.248  17.860  0.00  0.00    +0.000 A 
ATOM     13  H   UNL     1       9.573   7.972  19.259  0.00  0.00    +0.000 HD
ATOM     14  H   UNL     1       7.041   4.483  20.498  0.00  0.00    +0.000 HD
ENDROOT
BRANCH   2  15
ATOM     15  C   UNL     1       9.262  10.270  18.215  0.00  0.00    +0.000 C 
ATOM     16  C   UNL     1       8.615  11.581  17.779  0.00  0.00    +0.000 C 
ATOM     17  C   UNL     1       9.586  12.647  18.252  0.00  0.00    +0.000 C 
ATOM     18  C   UNL     1      10.263  12.070  19.493  0.00  0.00    +0.000 C 
ATOM     19  C   UNL     1       9.795  10.620  19.602  0.00  0.00    +0.000 C 
ENDBRANCH   2  15
BRANCH   9  20
ATOM     20  O   UNL     1       4.148   3.832  16.394  0.00  0.00    +0.000 OA
BRANCH  20  21
ATOM     21  C   UNL     1       3.151   3.479  17.273  0.00  0.00    +0.000 A 
ATOM     22  C   UNL     1       2.844   2.150  17.602  0.00  0.00    +0.000 A 
ATOM     23  C   UNL     1       1.822   1.872  18.510  0.00  0.00    +0.000 A 
ATOM     24  C   UNL     1       1.079   2.918  19.048  0.00  0.00    +0.000 A 
ATOM     25  F   UNL     1       0.097   2.646  19.917  0.00  0.00    +0.000 F 
ATOM     26  C   UNL     1       1.336   4.236  18.695  0.00  0.00    +0.000 A 
ATOM     27  C   UNL     1       2.372   4.508  17.806  0.00  0.00    +0.000 A 
ATOM     28  F   UNL     1       2.616   5.783  17.470  0.00  0.00    +0.000 F 
ENDBRANCH  20  21
ENDBRANCH   9  20
TORSDOF 3
ENDMDL
