MODEL 1
REMARK VINA RESULT:      -6.0      0.000      0.000
REMARK  Name = 
REMARK  12 active torsions:
REMARK  status: ('A' for Active; 'I' for Inactive)
REMARK    1  A    between atoms: N_4  and  C_5
REMARK    2  A    between atoms: C_5  and  C_6
REMARK    3  A    between atoms: C_6  and  C_7
REMARK    4  A    between atoms: C_7  and  C_8
REMARK    5  A    between atoms: C_8  and  C_9
REMARK    6  A    between atoms: C_9  and  C_10
REMARK    7  A    between atoms: C_10  and  C_11
REMARK    8  A    between atoms: C_11  and  C_12
REMARK    9  A    between atoms: C_12  and  C_13
REMARK   10  A    between atoms: C_13  and  C_14
REMARK   11  A    between atoms: C_14  and  C_15
REMARK   12  A    between atoms: C_15  and  N_16
REMARK                            x       y       z     vdW  Elec       q    Type
REMARK                         _______ _______ _______ _____ _____    ______ ____
ROOT
ATOM      1  C   UNL     1       1.876   5.204  20.600  0.00  0.00    +0.000 C 
ENDROOT
BRANCH   1   2
ATOM      2  C   UNL     1       1.032   3.920  20.658  0.00  0.00    +0.000 C 
BRANCH   2   3
ATOM      3  C   UNL     1       1.806   2.671  20.235  0.00  0.00    +0.000 C 
BRANCH   3   4
ATOM      4  C   UNL     1       1.330   2.075  18.908  0.00  0.00    +0.000 C 
BRANCH   4   5
ATOM      5  C   UNL     1       2.244   2.402  17.722  0.00  0.00    +0.000 C 
BRANCH   5   6
ATOM      6  C   UNL     1       3.733   2.220  18.029  0.00  0.00    +0.000 C 
BRANCH   6  10
ATOM      7  C   UNL     1       5.754   5.941  17.707  0.00  0.00    +0.000 A 
ATOM      8  C   UNL     1       5.039   5.436  16.633  0.00  0.00    +0.000 A 
ATOM      9  C   UNL     1       4.376   4.221  16.769  0.00  0.00    +0.000 A 
ATOM     10  N   UNL     1       4.442   3.521  17.926  0.00  0.00    +0.000 N 
ATOM     11  C   UNL     1       5.106   4.018  18.990  0.00  0.00    +0.000 A 
ATOM     12  C   UNL     1       5.784   5.231  18.899  0.00  0.00    +0.000 A 
ENDBRANCH   6  10
ENDBRANCH   5   6
ENDBRANCH   4   5
ENDBRANCH   3   4
ENDBRANCH   2   3
ENDBRANCH   1   2
BRANCH   1  13
ATOM     13  C   UNL     1       1.993   5.801  19.192  0.00  0.00    +0.000 C 
BRANCH  13  14
ATOM     14  C   UNL     1       2.588   7.210  19.160  0.00  0.00    +0.000 C 
BRANCH  14  15
ATOM     15  C   UNL     1       2.410   7.884  17.797  0.00  0.00    +0.000 C 
BRANCH  15  16
ATOM     16  C   UNL     1       2.102   9.375  17.894  0.00  0.00    +0.000 C 
BRANCH  16  17
ATOM     17  C   UNL     1       0.961   9.659  18.865  0.00  0.00    +0.000 C 
BRANCH  17  18
ATOM     18  N   UNL     1       0.547  11.068  18.744  0.00  0.00    +0.000 N 
ATOM     19  C   UNL     1       1.487  12.044  18.720  0.00  0.00    +0.000 A 
ATOM     20  C   UNL     1       1.116  13.380  18.655  0.00  0.00    +0.000 A 
ATOM     21  C   UNL     1      -0.234  13.706  18.617  0.00  0.00    +0.000 A 
ATOM     22  C   UNL     1      -1.185  12.697  18.635  0.00  0.00    +0.000 A 
ATOM     23  C   UNL     1      -0.775  11.374  18.700  0.00  0.00    +0.000 A 
ENDBRANCH  17  18
ENDBRANCH  16  17
ENDBRANCH  15  16
ENDBRANCH  14  15
ENDBRANCH  13  14
ENDBRANCH   1  13
TORSDOF 12
ENDMDL
MODEL 2
REMARK VINA RESULT:      -5.8      5.474      7.349
REMARK  Name = 
REMARK  12 active torsions:
REMARK  status: ('A' for Active; 'I' for Inactive)
REMARK    1  A    between atoms: N_4  and  C_5
REMARK    2  A    between atoms: C_5  and  C_6
REMARK    3  A    between atoms: C_6  and  C_7
REMARK    4  A    between atoms: C_7  and  C_8
REMARK    5  A    between atoms: C_8  and  C_9
REMARK    6  A    between atoms: C_9  and  C_10
REMARK    7  A    between atoms: C_10  and  C_11
REMARK    8  A    between atoms: C_11  and  C_12
REMARK    9  A    between atoms: C_12  and  C_13
REMARK   10  A    between atoms: C_13  and  C_14
REMARK   11  A    between atoms: C_14  and  C_15
REMARK   12  A    between atoms: C_15  and  N_16
REMARK                            x       y       z     vdW  Elec       q    Type
REMARK                         _______ _______ _______ _____ _____    ______ ____
ROOT
ATOM      1  C   UNL     1       6.750   6.198  18.246  0.00  0.00    +0.000 C 
ENDROOT
BRANCH   1   2
ATOM      2  C   UNL     1       6.149   6.209  16.831  0.00  0.00    +0.000 C 
BRANCH   2   3
ATOM      3  C   UNL     1       4.675   6.617  16.807  0.00  0.00    +0.000 C 
BRANCH   3   4
ATOM      4  C   UNL     1       3.742   5.585  17.446  0.00  0.00    +0.000 C 
BRANCH   4   5
ATOM      5  C   UNL     1       4.062   4.139  17.055  0.00  0.00    +0.000 C 
BRANCH   5   6
ATOM      6  C   UNL     1       2.901   3.170  17.292  0.00  0.00    +0.000 C 
BRANCH   6  10
ATOM      7  C   UNL     1       1.656   3.341  21.350  0.00  0.00    +0.000 A 
ATOM      8  C   UNL     1       2.851   2.727  21.007  0.00  0.00    +0.000 A 
ATOM      9  C   UNL     1       3.241   2.696  19.673  0.00  0.00    +0.000 A 
ATOM     10  N   UNL     1       2.459   3.236  18.709  0.00  0.00    +0.000 N 
ATOM     11  C   UNL     1       1.310   3.866  19.033  0.00  0.00    +0.000 A 
ATOM     12  C   UNL     1       0.882   3.922  20.356  0.00  0.00    +0.000 A 
ENDBRANCH   6  10
ENDBRANCH   5   6
ENDBRANCH   4   5
ENDBRANCH   3   4
ENDBRANCH   2   3
ENDBRANCH   1   2
BRANCH   1  13
ATOM     13  C   UNL     1       8.063   6.981  18.364  0.00  0.00    +0.000 C 
BRANCH  13  14
ATOM     14  C   UNL     1       7.958   8.444  17.925  0.00  0.00    +0.000 C 
BRANCH  14  15
ATOM     15  C   UNL     1       8.729   9.385  18.854  0.00  0.00    +0.000 C 
BRANCH  15  16
ATOM     16  C   UNL     1       9.101  10.712  18.201  0.00  0.00    +0.000 C 
BRANCH  16  17
ATOM     17  C   UNL     1      10.237  11.411  18.939  0.00  0.00    +0.000 C 
BRANCH  17  18
ATOM     18  N   UNL     1      10.546  12.690  18.274  0.00  0.00    +0.000 N 
ATOM     19  C   UNL     1       9.799  13.787  18.550  0.00  0.00    +0.000 A 
ATOM     20  C   UNL     1      10.042  14.989  17.898  0.00  0.00    +0.000 A 
ATOM     21  C   UNL     1      11.062  15.053  16.956  0.00  0.00    +0.000 A 
ATOM     22  C   UNL     1      11.823  13.925  16.689  0.00  0.00    +0.000 A 
ATOM     23  C   UNL     1      11.549  12.743  17.361  0.00  0.00    +0.000 A 
ENDBRANCH  17  18
ENDBRANCH  16  17
ENDBRANCH  15  16
ENDBRANCH  14  15
ENDBRANCH  13  14
ENDBRANCH   1  13
TORSDOF 12
ENDMDL
MODEL 3
REMARK VINA RESULT:      -5.8      5.174      9.060
REMARK  Name = 
REMARK  12 active torsions:
REMARK  status: ('A' for Active; 'I' for Inactive)
REMARK    1  A    between atoms: N_4  and  C_5
REMARK    2  A    between atoms: C_5  and  C_6
REMARK    3  A    between atoms: C_6  and  C_7
REMARK    4  A    between atoms: C_7  and  C_8
REMARK    5  A    between atoms: C_8  and  C_9
REMARK    6  A    between atoms: C_9  and  C_10
REMARK    7  A    between atoms: C_10  and  C_11
REMARK    8  A    between atoms: C_11  and  C_12
REMARK    9  A    between atoms: C_12  and  C_13
REMARK   10  A    between atoms: C_13  and  C_14
REMARK   11  A    between atoms: C_14  and  C_15
REMARK   12  A    between atoms: C_15  and  N_16
REMARK                            x       y       z     vdW  Elec       q    Type
REMARK                         _______ _______ _______ _____ _____    ______ ____
ROOT
ATOM      1  C   UNL     1       7.601   5.743  18.408  0.00  0.00    +0.000 C 
ENDROOT
BRANCH   1   2
ATOM      2  C   UNL     1       7.588   7.124  17.731  0.00  0.00    +0.000 C 
BRANCH   2   3
ATOM      3  C   UNL     1       8.398   8.174  18.492  0.00  0.00    +0.000 C 
BRANCH   3   4
ATOM      4  C   UNL     1       8.249   9.590  17.929  0.00  0.00    +0.000 C 
BRANCH   4   5
ATOM      5  C   UNL     1       9.371  10.544  18.354  0.00  0.00    +0.000 C 
BRANCH   5   6
ATOM      6  C   UNL     1       9.047  12.019  18.101  0.00  0.00    +0.000 C 
BRANCH   6  10
ATOM      7  C   UNL     1      10.149  14.381  21.455  0.00  0.00    +0.000 A 
ATOM      8  C   UNL     1      10.229  14.901  20.172  0.00  0.00    +0.000 A 
ATOM      9  C   UNL     1       9.850  14.111  19.093  0.00  0.00    +0.000 A 
ATOM     10  N   UNL     1       9.429  12.838  19.280  0.00  0.00    +0.000 N 
ATOM     11  C   UNL     1       9.314  12.331  20.525  0.00  0.00    +0.000 A 
ATOM     12  C   UNL     1       9.682  13.087  21.635  0.00  0.00    +0.000 A 
ENDBRANCH   6  10
ENDBRANCH   5   6
ENDBRANCH   4   5
ENDBRANCH   3   4
ENDBRANCH   2   3
ENDBRANCH   1   2
BRANCH   1  13
ATOM     13  C   UNL     1       7.130   4.605  17.495  0.00  0.00    +0.000 C 
BRANCH  13  14
ATOM     14  C   UNL     1       6.691   5.063  16.103  0.00  0.00    +0.000 C 
BRANCH  14  15
ATOM     15  C   UNL     1       5.269   4.609  15.764  0.00  0.00    +0.000 C 
BRANCH  15  16
ATOM     16  C   UNL     1       4.570   3.894  16.916  0.00  0.00    +0.000 C 
BRANCH  16  17
ATOM     17  C   UNL     1       3.443   4.734  17.507  0.00  0.00    +0.000 C 
BRANCH  17  18
ATOM     18  N   UNL     1       2.786   3.986  18.593  0.00  0.00    +0.000 N 
ATOM     19  C   UNL     1       1.472   3.667  18.489  0.00  0.00    +0.000 A 
ATOM     20  C   UNL     1       0.822   3.005  19.522  0.00  0.00    +0.000 A 
ATOM     21  C   UNL     1       1.535   2.676  20.668  0.00  0.00    +0.000 A 
ATOM     22  C   UNL     1       2.879   3.003  20.759  0.00  0.00    +0.000 A 
ATOM     23  C   UNL     1       3.494   3.663  19.705  0.00  0.00    +0.000 A 
ENDBRANCH  17  18
ENDBRANCH  16  17
ENDBRANCH  15  16
ENDBRANCH  14  15
ENDBRANCH  13  14
ENDBRANCH   1  13
TORSDOF 12
ENDMDL
MODEL 4
REMARK VINA RESULT:      -5.7      2.104      2.964
REMARK  Name = 
REMARK  12 active torsions:
REMARK  status: ('A' for Active; 'I' for Inactive)
REMARK    1  A    between atoms: N_4  and  C_5
REMARK    2  A    between atoms: C_5  and  C_6
REMARK    3  A    between atoms: C_6  and  C_7
REMARK    4  A    between atoms: C_7  and  C_8
REMARK    5  A    between atoms: C_8  and  C_9
REMARK    6  A    between atoms: C_9  and  C_10
REMARK    7  A    between atoms: C_10  and  C_11
REMARK    8  A    between atoms: C_11  and  C_12
REMARK    9  A    between atoms: C_12  and  C_13
REMARK   10  A    between atoms: C_13  and  C_14
REMARK   11  A    between atoms: C_14  and  C_15
REMARK   12  A    between atoms: C_15  and  N_16
REMARK                            x       y       z     vdW  Elec       q    Type
REMARK                         _______ _______ _______ _____ _____    ______ ____
ROOT
ATOM      1  C   UNL     1       3.116   6.421  19.145  0.00  0.00    +0.000 C 
ENDROOT
BRANCH   1   2
ATOM      2  C   UNL     1       2.190   5.198  19.044  0.00  0.00    +0.000 C 
BRANCH   2   3
ATOM      3  C   UNL     1       2.135   4.599  17.637  0.00  0.00    +0.000 C 
BRANCH   3   4
ATOM      4  C   UNL     1       2.773   3.212  17.535  0.00  0.00    +0.000 C 
BRANCH   4   5
ATOM      5  C   UNL     1       4.296   3.244  17.374  0.00  0.00    +0.000 C 
BRANCH   5   6
ATOM      6  C   UNL     1       4.792   4.382  16.478  0.00  0.00    +0.000 C 
BRANCH   6  10
ATOM      7  C   UNL     1       7.775   6.623  18.507  0.00  0.00    +0.000 A 
ATOM      8  C   UNL     1       7.282   5.450  19.057  0.00  0.00    +0.000 A 
ATOM      9  C   UNL     1       6.315   4.729  18.366  0.00  0.00    +0.000 A 
ATOM     10  N   UNL     1       5.836   5.171  17.180  0.00  0.00    +0.000 N 
ATOM     11  C   UNL     1       6.332   6.293  16.617  0.00  0.00    +0.000 A 
ATOM     12  C   UNL     1       7.303   7.046  17.273  0.00  0.00    +0.000 A 
ENDBRANCH   6  10
ENDBRANCH   5   6
ENDBRANCH   4   5
ENDBRANCH   3   4
ENDBRANCH   2   3
ENDBRANCH   1   2
BRANCH   1  13
ATOM     13  C   UNL     1       3.008   7.375  17.949  0.00  0.00    +0.000 C 
BRANCH  13  14
ATOM     14  C   UNL     1       1.692   8.152  17.888  0.00  0.00    +0.000 C 
BRANCH  14  15
ATOM     15  C   UNL     1       1.913   9.667  17.851  0.00  0.00    +0.000 C 
BRANCH  15  16
ATOM     16  C   UNL     1       1.444  10.379  19.115  0.00  0.00    +0.000 C 
BRANCH  16  17
ATOM     17  C   UNL     1       0.675   9.445  20.043  0.00  0.00    +0.000 C 
BRANCH  17  18
ATOM     18  N   UNL     1      -0.081  10.238  21.029  0.00  0.00    +0.000 N 
ATOM     19  C   UNL     1      -0.266   9.752  22.281  0.00  0.00    +0.000 A 
ATOM     20  C   UNL     1      -1.016  10.461  23.210  0.00  0.00    +0.000 A 
ATOM     21  C   UNL     1      -1.577  11.677  22.840  0.00  0.00    +0.000 A 
ATOM     22  C   UNL     1      -1.374  12.166  21.558  0.00  0.00    +0.000 A 
ATOM     23  C   UNL     1      -0.618  11.428  20.658  0.00  0.00    +0.000 A 
ENDBRANCH  17  18
ENDBRANCH  16  17
ENDBRANCH  15  16
ENDBRANCH  14  15
ENDBRANCH  13  14
ENDBRANCH   1  13
TORSDOF 12
ENDMDL
MODEL 5
REMARK VINA RESULT:      -5.7      2.015      8.052
REMARK  Name = 
REMARK  12 active torsions:
REMARK  status: ('A' for Active; 'I' for Inactive)
REMARK    1  A    between atoms: N_4  and  C_5
REMARK    2  A    between atoms: C_5  and  C_6
REMARK    3  A    between atoms: C_6  and  C_7
REMARK    4  A    between atoms: C_7  and  C_8
REMARK    5  A    between atoms: C_8  and  C_9
REMARK    6  A    between atoms: C_9  and  C_10
REMARK    7  A    between atoms: C_10  and  C_11
REMARK    8  A    between atoms: C_11  and  C_12
REMARK    9  A    between atoms: C_12  and  C_13
REMARK   10  A    between atoms: C_13  and  C_14
REMARK   11  A    between atoms: C_14  and  C_15
REMARK   12  A    between atoms: C_15  and  N_16
REMARK                            x       y       z     vdW  Elec       q    Type
REMARK                         _______ _______ _______ _____ _____    ______ ____
ROOT
ATOM      1  C   UNL     1       2.933   6.227  17.863  0.00  0.00    +0.000 C 
ENDROOT
BRANCH   1   2
ATOM      2  C   UNL     1       2.376   7.322  18.788  0.00  0.00    +0.000 C 
BRANCH   2   3
ATOM      3  C   UNL     1       2.493   8.727  18.194  0.00  0.00    +0.000 C 
BRANCH   3   4
ATOM      4  C   UNL     1       1.143   9.360  17.847  0.00  0.00    +0.000 C 
BRANCH   4   5
ATOM      5  C   UNL     1       0.870  10.674  18.586  0.00  0.00    +0.000 C 
BRANCH   5   6
ATOM      6  C   UNL     1      -0.567  10.797  19.103  0.00  0.00    +0.000 C 
BRANCH   6  10
ATOM      7  C   UNL     1      -0.683  10.062  23.285  0.00  0.00    +0.000 A 
ATOM      8  C   UNL     1      -0.251   9.077  22.410  0.00  0.00    +0.000 A 
ATOM      9  C   UNL     1      -0.211   9.348  21.047  0.00  0.00    +0.000 A 
ATOM     10  N   UNL     1      -0.609  10.549  20.567  0.00  0.00    +0.000 N 
ATOM     11  C   UNL     1      -0.999  11.528  21.410  0.00  0.00    +0.000 A 
ATOM     12  C   UNL     1      -1.053  11.301  22.783  0.00  0.00    +0.000 A 
ENDBRANCH   6  10
ENDBRANCH   5   6
ENDBRANCH   4   5
ENDBRANCH   3   4
ENDBRANCH   2   3
ENDBRANCH   1   2
BRANCH   1  13
ATOM     13  C   UNL     1       4.460   6.258  17.722  0.00  0.00    +0.000 C 
BRANCH  13  14
ATOM     14  C   UNL     1       5.013   5.245  16.717  0.00  0.00    +0.000 C 
BRANCH  14  15
ATOM     15  C   UNL     1       4.129   4.001  16.600  0.00  0.00    +0.000 C 
BRANCH  15  16
ATOM     16  C   UNL     1       4.617   2.829  17.447  0.00  0.00    +0.000 C 
BRANCH  16  17
ATOM     17  C   UNL     1       3.462   1.962  17.937  0.00  0.00    +0.000 C 
BRANCH  17  18
ATOM     18  N   UNL     1       2.690   2.697  18.955  0.00  0.00    +0.000 N 
ATOM     19  C   UNL     1       1.345   2.807  18.826  0.00  0.00    +0.000 A 
ATOM     20  C   UNL     1       0.605   3.536  19.747  0.00  0.00    +0.000 A 
ATOM     21  C   UNL     1       1.260   4.155  20.804  0.00  0.00    +0.000 A 
ATOM     22  C   UNL     1       2.636   4.029  20.928  0.00  0.00    +0.000 A 
ATOM     23  C   UNL     1       3.341   3.291  19.987  0.00  0.00    +0.000 A 
ENDBRANCH  17  18
ENDBRANCH  16  17
ENDBRANCH  15  16
ENDBRANCH  14  15
ENDBRANCH  13  14
ENDBRANCH   1  13
TORSDOF 12
ENDMDL
MODEL 6
REMARK VINA RESULT:      -5.7      2.091      8.177
REMARK  Name = 
REMARK  12 active torsions:
REMARK  status: ('A' for Active; 'I' for Inactive)
REMARK    1  A    between atoms: N_4  and  C_5
REMARK    2  A    between atoms: C_5  and  C_6
REMARK    3  A    between atoms: C_6  and  C_7
REMARK    4  A    between atoms: C_7  and  C_8
REMARK    5  A    between atoms: C_8  and  C_9
REMARK    6  A    between atoms: C_9  and  C_10
REMARK    7  A    between atoms: C_10  and  C_11
REMARK    8  A    between atoms: C_11  and  C_12
REMARK    9  A    between atoms: C_12  and  C_13
REMARK   10  A    between atoms: C_13  and  C_14
REMARK   11  A    between atoms: C_14  and  C_15
REMARK   12  A    between atoms: C_15  and  N_16
REMARK                            x       y       z     vdW  Elec       q    Type
REMARK                         _______ _______ _______ _____ _____    ______ ____
ROOT
ATOM      1  C   UNL     1       2.596   6.414  18.210  0.00  0.00    +0.000 C 
ENDROOT
BRANCH   1   2
ATOM      2  C   UNL     1       2.167   7.834  18.615  0.00  0.00    +0.000 C 
BRANCH   2   3
ATOM      3  C   UNL     1       2.510   8.890  17.562  0.00  0.00    +0.000 C 
BRANCH   3   4
ATOM      4  C   UNL     1       1.996  10.289  17.908  0.00  0.00    +0.000 C 
BRANCH   4   5
ATOM      5  C   UNL     1       0.622  10.292  18.586  0.00  0.00    +0.000 C 
BRANCH   5   6
ATOM      6  C   UNL     1       0.446  11.418  19.608  0.00  0.00    +0.000 C 
BRANCH   6  10
ATOM      7  C   UNL     1      -0.442   9.825  23.443  0.00  0.00    +0.000 A 
ATOM      8  C   UNL     1      -1.178  10.884  22.935  0.00  0.00    +0.000 A 
ATOM      9  C   UNL     1      -0.875  11.378  21.672  0.00  0.00    +0.000 A 
ATOM     10  N   UNL     1       0.142  10.854  20.948  0.00  0.00    +0.000 N 
ATOM     11  C   UNL     1       0.843   9.801  21.416  0.00  0.00    +0.000 A 
ATOM     12  C   UNL     1       0.573   9.273  22.676  0.00  0.00    +0.000 A 
ENDBRANCH   6  10
ENDBRANCH   5   6
ENDBRANCH   4   5
ENDBRANCH   3   4
ENDBRANCH   2   3
ENDBRANCH   1   2
BRANCH   1  13
ATOM     13  C   UNL     1       4.113   6.249  18.057  0.00  0.00    +0.000 C 
BRANCH  13  14
ATOM     14  C   UNL     1       4.557   5.847  16.649  0.00  0.00    +0.000 C 
BRANCH  14  15
ATOM     15  C   UNL     1       4.899   4.358  16.552  0.00  0.00    +0.000 C 
BRANCH  15  16
ATOM     16  C   UNL     1       3.743   3.444  16.943  0.00  0.00    +0.000 C 
BRANCH  16  17
ATOM     17  C   UNL     1       4.099   2.549  18.125  0.00  0.00    +0.000 C 
BRANCH  17  18
ATOM     18  N   UNL     1       3.094   2.713  19.190  0.00  0.00    +0.000 N 
ATOM     19  C   UNL     1       3.457   2.553  20.486  0.00  0.00    +0.000 A 
ATOM     20  C   UNL     1       2.515   2.654  21.501  0.00  0.00    +0.000 A 
ATOM     21  C   UNL     1       1.191   2.920  21.171  0.00  0.00    +0.000 A 
ATOM     22  C   UNL     1       0.835   3.087  19.842  0.00  0.00    +0.000 A 
ATOM     23  C   UNL     1       1.805   2.978  18.856  0.00  0.00    +0.000 A 
ENDBRANCH  17  18
ENDBRANCH  16  17
ENDBRANCH  15  16
ENDBRANCH  14  15
ENDBRANCH  13  14
ENDBRANCH   1  13
TORSDOF 12
ENDMDL
MODEL 7
REMARK VINA RESULT:      -5.7      4.664      6.613
REMARK  Name = 
REMARK  12 active torsions:
REMARK  status: ('A' for Active; 'I' for Inactive)
REMARK    1  A    between atoms: N_4  and  C_5
REMARK    2  A    between atoms: C_5  and  C_6
REMARK    3  A    between atoms: C_6  and  C_7
REMARK    4  A    between atoms: C_7  and  C_8
REMARK    5  A    between atoms: C_8  and  C_9
REMARK    6  A    between atoms: C_9  and  C_10
REMARK    7  A    between atoms: C_10  and  C_11
REMARK    8  A    between atoms: C_11  and  C_12
REMARK    9  A    between atoms: C_12  and  C_13
REMARK   10  A    between atoms: C_13  and  C_14
REMARK   11  A    between atoms: C_14  and  C_15
REMARK   12  A    between atoms: C_15  and  N_16
REMARK                            x       y       z     vdW  Elec       q    Type
REMARK                         _______ _______ _______ _____ _____    ______ ____
ROOT
ATOM      1  C   UNL     1       6.183   5.112  18.668  0.00  0.00    +0.000 C 
ENDROOT
BRANCH   1   2
ATOM      2  C   UNL     1       4.837   5.854  18.721  0.00  0.00    +0.000 C 
BRANCH   2   3
ATOM      3  C   UNL     1       3.841   5.367  17.667  0.00  0.00    +0.000 C 
BRANCH   3   4
ATOM      4  C   UNL     1       4.279   4.085  16.954  0.00  0.00    +0.000 C 
BRANCH   4   5
ATOM      5  C   UNL     1       3.163   3.046  16.813  0.00  0.00    +0.000 C 
BRANCH   5   6
ATOM      6  C   UNL     1       3.228   1.932  17.862  0.00  0.00    +0.000 C 
BRANCH   6  10
ATOM      7  C   UNL     1       1.465   3.251  21.493  0.00  0.00    +0.000 A 
ATOM      8  C   UNL     1       0.719   3.207  20.326  0.00  0.00    +0.000 A 
ATOM      9  C   UNL     1       1.316   2.760  19.153  0.00  0.00    +0.000 A 
ATOM     10  N   UNL     1       2.619   2.391  19.136  0.00  0.00    +0.000 N 
ATOM     11  C   UNL     1       3.347   2.396  20.273  0.00  0.00    +0.000 A 
ATOM     12  C   UNL     1       2.788   2.836  21.470  0.00  0.00    +0.000 A 
ENDBRANCH   6  10
ENDBRANCH   5   6
ENDBRANCH   4   5
ENDBRANCH   3   4
ENDBRANCH   2   3
ENDBRANCH   1   2
BRANCH   1  13
ATOM     13  C   UNL     1       7.401   6.041  18.742  0.00  0.00    +0.000 C 
BRANCH  13  14
ATOM     14  C   UNL     1       7.610   6.896  17.490  0.00  0.00    +0.000 C 
BRANCH  14  15
ATOM     15  C   UNL     1       7.061   8.315  17.658  0.00  0.00    +0.000 C 
BRANCH  15  16
ATOM     16  C   UNL     1       8.149   9.384  17.707  0.00  0.00    +0.000 C 
BRANCH  16  17
ATOM     17  C   UNL     1       8.952   9.320  19.001  0.00  0.00    +0.000 C 
BRANCH  17  18
ATOM     18  N   UNL     1       9.542  10.641  19.283  0.00  0.00    +0.000 N 
ATOM     19  C   UNL     1      10.050  11.380  18.266  0.00  0.00    +0.000 A 
ATOM     20  C   UNL     1      10.654  12.605  18.517  0.00  0.00    +0.000 A 
ATOM     21  C   UNL     1      10.734  13.064  19.826  0.00  0.00    +0.000 A 
ATOM     22  C   UNL     1      10.204  12.301  20.855  0.00  0.00    +0.000 A 
ATOM     23  C   UNL     1       9.609  11.082  20.565  0.00  0.00    +0.000 A 
ENDBRANCH  17  18
ENDBRANCH  16  17
ENDBRANCH  15  16
ENDBRANCH  14  15
ENDBRANCH  13  14
ENDBRANCH   1  13
TORSDOF 12
ENDMDL
MODEL 8
REMARK VINA RESULT:      -5.7      4.975      8.297
REMARK  Name = 
REMARK  12 active torsions:
REMARK  status: ('A' for Active; 'I' for Inactive)
REMARK    1  A    between atoms: N_4  and  C_5
REMARK    2  A    between atoms: C_5  and  C_6
REMARK    3  A    between atoms: C_6  and  C_7
REMARK    4  A    between atoms: C_7  and  C_8
REMARK    5  A    between atoms: C_8  and  C_9
REMARK    6  A    between atoms: C_9  and  C_10
REMARK    7  A    between atoms: C_10  and  C_11
REMARK    8  A    between atoms: C_11  and  C_12
REMARK    9  A    between atoms: C_12  and  C_13
REMARK   10  A    between atoms: C_13  and  C_14
REMARK   11  A    between atoms: C_14  and  C_15
REMARK   12  A    between atoms: C_15  and  N_16
REMARK                            x       y       z     vdW  Elec       q    Type
REMARK                         _______ _______ _______ _____ _____    ______ ____
ROOT
ATOM      1  C   UNL     1       6.558   5.936  16.633  0.00  0.00    +0.000 C 
ENDROOT
BRANCH   1   2
ATOM      2  C   UNL     1       6.763   6.153  18.142  0.00  0.00    +0.000 C 
BRANCH   2   3
ATOM      3  C   UNL     1       8.062   6.889  18.473  0.00  0.00    +0.000 C 
BRANCH   3   4
ATOM      4  C   UNL     1       8.172   8.265  17.813  0.00  0.00    +0.000 C 
BRANCH   4   5
ATOM      5  C   UNL     1       8.749   9.346  18.733  0.00  0.00    +0.000 C 
BRANCH   5   6
ATOM      6  C   UNL     1       8.787  10.737  18.093  0.00  0.00    +0.000 C 
BRANCH   6  10
ATOM      7  C   UNL     1      12.333  12.771  19.244  0.00  0.00    +0.000 A 
ATOM      8  C   UNL     1      11.545  12.142  20.195  0.00  0.00    +0.000 A 
ATOM      9  C   UNL     1      10.396  11.472  19.789  0.00  0.00    +0.000 A 
ATOM     10  N   UNL     1      10.030  11.449  18.486  0.00  0.00    +0.000 N 
ATOM     11  C   UNL     1      10.806  12.029  17.547  0.00  0.00    +0.000 A 
ATOM     12  C   UNL     1      11.966  12.709  17.908  0.00  0.00    +0.000 A 
ENDBRANCH   6  10
ENDBRANCH   5   6
ENDBRANCH   4   5
ENDBRANCH   3   4
ENDBRANCH   2   3
ENDBRANCH   1   2
BRANCH   1  13
ATOM     13  C   UNL     1       5.104   6.109  16.178  0.00  0.00    +0.000 C 
BRANCH  13  14
ATOM     14  C   UNL     1       4.488   7.457  16.558  0.00  0.00    +0.000 C 
BRANCH  14  15
ATOM     15  C   UNL     1       3.304   7.304  17.516  0.00  0.00    +0.000 C 
BRANCH  15  16
ATOM     16  C   UNL     1       3.133   5.885  18.048  0.00  0.00    +0.000 C 
BRANCH  16  17
ATOM     17  C   UNL     1       3.239   5.830  19.568  0.00  0.00    +0.000 C 
BRANCH  17  18
ATOM     18  N   UNL     1       2.453   4.692  20.077  0.00  0.00    +0.000 N 
ATOM     19  C   UNL     1       2.655   4.250  21.343  0.00  0.00    +0.000 A 
ATOM     20  C   UNL     1       1.960   3.149  21.826  0.00  0.00    +0.000 A 
ATOM     21  C   UNL     1       1.054   2.503  20.994  0.00  0.00    +0.000 A 
ATOM     22  C   UNL     1       0.852   2.970  19.704  0.00  0.00    +0.000 A 
ATOM     23  C   UNL     1       1.565   4.073  19.258  0.00  0.00    +0.000 A 
ENDBRANCH  17  18
ENDBRANCH  16  17
ENDBRANCH  15  16
ENDBRANCH  14  15
ENDBRANCH  13  14
ENDBRANCH   1  13
TORSDOF 12
ENDMDL
MODEL 9
REMARK VINA RESULT:      -5.7      6.474      9.930
REMARK  Name = 
REMARK  12 active torsions:
REMARK  status: ('A' for Active; 'I' for Inactive)
REMARK    1  A    between atoms: N_4  and  C_5
REMARK    2  A    between atoms: C_5  and  C_6
REMARK    3  A    between atoms: C_6  and  C_7
REMARK    4  A    between atoms: C_7  and  C_8
REMARK    5  A    between atoms: C_8  and  C_9
REMARK    6  A    between atoms: C_9  and  C_10
REMARK    7  A    between atoms: C_10  and  C_11
REMARK    8  A    between atoms: C_11  and  C_12
REMARK    9  A    between atoms: C_12  and  C_13
REMARK   10  A    between atoms: C_13  and  C_14
REMARK   11  A    between atoms: C_14  and  C_15
REMARK   12  A    between atoms: C_15  and  N_16
REMARK                            x       y       z     vdW  Elec       q    Type
REMARK                         _______ _______ _______ _____ _____    ______ ____
ROOT
ATOM      1  C   UNL     1       8.127   7.648  18.294  0.00  0.00    +0.000 C 
ENDROOT
BRANCH   1   2
ATOM      2  C   UNL     1       8.255   9.153  18.005  0.00  0.00    +0.000 C 
BRANCH   2   3
ATOM      3  C   UNL     1       9.013   9.912  19.096  0.00  0.00    +0.000 C 
BRANCH   3   4
ATOM      4  C   UNL     1       9.566  11.262  18.632  0.00  0.00    +0.000 C 
BRANCH   4   5
ATOM      5  C   UNL     1      11.024  11.503  19.037  0.00  0.00    +0.000 C 
BRANCH   5   6
ATOM      6  C   UNL     1      11.863  12.161  17.938  0.00  0.00    +0.000 C 
BRANCH   6  10
ATOM      7  C   UNL     1      11.720  16.391  18.290  0.00  0.00    +0.000 A 
ATOM      8  C   UNL     1      11.315  15.769  17.119  0.00  0.00    +0.000 A 
ATOM      9  C   UNL     1      11.360  14.382  17.034  0.00  0.00    +0.000 A 
ATOM     10  N   UNL     1      11.815  13.639  18.070  0.00  0.00    +0.000 N 
ATOM     11  C   UNL     1      12.180  14.229  19.228  0.00  0.00    +0.000 A 
ATOM     12  C   UNL     1      12.150  15.615  19.357  0.00  0.00    +0.000 A 
ENDBRANCH   6  10
ENDBRANCH   5   6
ENDBRANCH   4   5
ENDBRANCH   3   4
ENDBRANCH   2   3
ENDBRANCH   1   2
BRANCH   1  13
ATOM     13  C   UNL     1       7.549   6.843  17.124  0.00  0.00    +0.000 C 
BRANCH  13  14
ATOM     14  C   UNL     1       6.022   6.877  17.038  0.00  0.00    +0.000 C 
BRANCH  14  15
ATOM     15  C   UNL     1       5.410   5.473  17.028  0.00  0.00    +0.000 C 
BRANCH  15  16
ATOM     16  C   UNL     1       3.932   5.453  17.405  0.00  0.00    +0.000 C 
BRANCH  16  17
ATOM     17  C   UNL     1       3.364   4.038  17.405  0.00  0.00    +0.000 C 
BRANCH  17  18
ATOM     18  N   UNL     1       2.614   3.806  18.652  0.00  0.00    +0.000 N 
ATOM     19  C   UNL     1       1.508   3.023  18.634  0.00  0.00    +0.000 A 
ATOM     20  C   UNL     1       0.760   2.831  19.788  0.00  0.00    +0.000 A 
ATOM     21  C   UNL     1       1.159   3.454  20.964  0.00  0.00    +0.000 A 
ATOM     22  C   UNL     1       2.297   4.246  20.970  0.00  0.00    +0.000 A 
ATOM     23  C   UNL     1       3.017   4.414  19.797  0.00  0.00    +0.000 A 
ENDBRANCH  17  18
ENDBRANCH  16  17
ENDBRANCH  15  16
ENDBRANCH  14  15
ENDBRANCH  13  14
ENDBRANCH   1  13
TORSDOF 12
ENDMDL
