MODEL 1
REMARK VINA RESULT:      -6.2      0.000      0.000
REMARK  Name = 
REMARK  3 active torsions:
REMARK  status: ('A' for Active; 'I' for Inactive)
REMARK    1  A    between atoms: C_1  and  O_2
REMARK    2  A    between atoms: O_2  and  C_3
REMARK    3  A    between atoms: C_5  and  N_6
REMARK                            x       y       z     vdW  Elec       q    Type
REMARK                         _______ _______ _______ _____ _____    ______ ____
ROOT
ATOM      1  C   UNL     1       6.737   4.599  15.919  0.00  0.00    +0.000 A 
ATOM      2  C   UNL     1       5.450   4.286  16.288  0.00  0.00    +0.000 A 
ATOM      3  C   UNL     1       5.192   4.174  17.641  0.00  0.00    +0.000 A 
ATOM      4  N   UNL     1       6.163   4.358  18.552  0.00  0.00    +0.000 NA
ATOM      5  C   UNL     1       7.379   4.681  18.077  0.00  0.00    +0.000 A 
ATOM      6  N   UNL     1       7.728   4.817  16.793  0.00  0.00    +0.000 NA
ENDROOT
BRANCH   3   7
ATOM      7  N   UNL     1       3.911   3.787  18.033  0.00  0.00    +0.000 N 
ATOM      8  C   UNL     1       2.803   4.644  17.577  0.00  0.00    +0.000 C 
ATOM      9  C   UNL     1       1.553   4.242  18.384  0.00  0.00    +0.000 C 
ATOM     10  O   UNL     1       1.229   2.850  18.200  0.00  0.00    +0.000 OA
ATOM     11  C   UNL     1       2.336   2.012  18.582  0.00  0.00    +0.000 C 
ATOM     12  C   UNL     1       3.609   2.364  17.791  0.00  0.00    +0.000 C 
ENDBRANCH   3   7
BRANCH   1  14
ATOM     13  C   UNL     1       6.058   3.876  13.796  0.00  0.00    +0.000 C 
ATOM     14  O   UNL     1       6.980   4.646  14.559  0.00  0.00    +0.000 OA
ENDBRANCH   1  14
TORSDOF 2
ENDMDL
MODEL 2
REMARK VINA RESULT:      -6.1      2.611      4.083
REMARK  Name = 
REMARK  3 active torsions:
REMARK  status: ('A' for Active; 'I' for Inactive)
REMARK    1  A    between atoms: C_1  and  O_2
REMARK    2  A    between atoms: O_2  and  C_3
REMARK    3  A    between atoms: C_5  and  N_6
REMARK                            x       y       z     vdW  Elec       q    Type
REMARK                         _______ _______ _______ _____ _____    ______ ____
ROOT
ATOM      1  C   UNL     1       6.301   3.660  12.612  0.00  0.00    +0.000 A 
ATOM      2  C   UNL     1       5.955   3.780  13.937  0.00  0.00    +0.000 A 
ATOM      3  C   UNL     1       6.664   4.695  14.692  0.00  0.00    +0.000 A 
ATOM      4  N   UNL     1       7.652   5.427  14.151  0.00  0.00    +0.000 NA
ATOM      5  C   UNL     1       7.889   5.241  12.840  0.00  0.00    +0.000 A 
ATOM      6  N   UNL     1       7.260   4.388  12.025  0.00  0.00    +0.000 NA
ENDROOT
BRANCH   3   7
ATOM      7  N   UNL     1       6.377   4.780  16.054  0.00  0.00    +0.000 N 
ATOM      8  C   UNL     1       5.210   4.015  16.524  0.00  0.00    +0.000 C 
ATOM      9  C   UNL     1       4.881   4.511  17.946  0.00  0.00    +0.000 C 
ATOM     10  O   UNL     1       5.998   4.335  18.839  0.00  0.00    +0.000 OA
ATOM     11  C   UNL     1       7.160   5.028  18.348  0.00  0.00    +0.000 C 
ATOM     12  C   UNL     1       7.541   4.557  16.932  0.00  0.00    +0.000 C 
ENDBRANCH   3   7
BRANCH   1  14
ATOM     13  C   UNL     1       4.370   3.154  11.384  0.00  0.00    +0.000 C 
ATOM     14  O   UNL     1       5.616   2.696  11.895  0.00  0.00    +0.000 OA
ENDBRANCH   1  14
TORSDOF 2
ENDMDL
MODEL 3
REMARK VINA RESULT:      -6.1      0.559      1.347
REMARK  Name = 
REMARK  3 active torsions:
REMARK  status: ('A' for Active; 'I' for Inactive)
REMARK    1  A    between atoms: C_1  and  O_2
REMARK    2  A    between atoms: O_2  and  C_3
REMARK    3  A    between atoms: C_5  and  N_6
REMARK                            x       y       z     vdW  Elec       q    Type
REMARK                         _______ _______ _______ _____ _____    ______ ____
ROOT
ATOM      1  C   UNL     1       6.670   4.883  15.732  0.00  0.00    +0.000 A 
ATOM      2  C   UNL     1       5.406   4.487  16.101  0.00  0.00    +0.000 A 
ATOM      3  C   UNL     1       5.200   4.205  17.438  0.00  0.00    +0.000 A 
ATOM      4  N   UNL     1       6.197   4.309  18.333  0.00  0.00    +0.000 NA
ATOM      5  C   UNL     1       7.386   4.725  17.862  0.00  0.00    +0.000 A 
ATOM      6  N   UNL     1       7.685   5.025  16.594  0.00  0.00    +0.000 NA
ENDROOT
BRANCH   3   7
ATOM      7  N   UNL     1       3.945   3.734  17.821  0.00  0.00    +0.000 N 
ATOM      8  C   UNL     1       3.907   2.877  19.019  0.00  0.00    +0.000 C 
ATOM      9  C   UNL     1       2.519   2.209  19.059  0.00  0.00    +0.000 C 
ATOM     10  O   UNL     1       1.461   3.187  19.099  0.00  0.00    +0.000 OA
ATOM     11  C   UNL     1       1.535   4.068  17.963  0.00  0.00    +0.000 C 
ATOM     12  C   UNL     1       2.902   4.774  17.885  0.00  0.00    +0.000 C 
ENDBRANCH   3   7
BRANCH   1  14
ATOM     13  C   UNL     1       6.392   4.034  13.565  0.00  0.00    +0.000 C 
ATOM     14  O   UNL     1       6.863   5.101  14.380  0.00  0.00    +0.000 OA
ENDBRANCH   1  14
TORSDOF 2
ENDMDL
MODEL 4
REMARK VINA RESULT:      -6.1      1.165      1.258
REMARK  Name = 
REMARK  3 active torsions:
REMARK  status: ('A' for Active; 'I' for Inactive)
REMARK    1  A    between atoms: C_1  and  O_2
REMARK    2  A    between atoms: O_2  and  C_3
REMARK    3  A    between atoms: C_5  and  N_6
REMARK                            x       y       z     vdW  Elec       q    Type
REMARK                         _______ _______ _______ _____ _____    ______ ____
ROOT
ATOM      1  C   UNL     1       6.991   4.833  16.702  0.00  0.00    +0.000 A 
ATOM      2  C   UNL     1       5.762   4.291  16.993  0.00  0.00    +0.000 A 
ATOM      3  C   UNL     1       5.336   4.366  18.306  0.00  0.00    +0.000 A 
ATOM      4  N   UNL     1       6.097   4.939  19.254  0.00  0.00    +0.000 NA
ATOM      5  C   UNL     1       7.272   5.455  18.849  0.00  0.00    +0.000 A 
ATOM      6  N   UNL     1       7.771   5.438  17.608  0.00  0.00    +0.000 NA
ENDROOT
BRANCH   3   7
ATOM      7  N   UNL     1       4.125   3.759  18.636  0.00  0.00    +0.000 N 
ATOM      8  C   UNL     1       3.391   3.123  17.529  0.00  0.00    +0.000 C 
ATOM      9  C   UNL     1       1.966   2.827  18.036  0.00  0.00    +0.000 C 
ATOM     10  O   UNL     1       1.984   1.968  19.193  0.00  0.00    +0.000 OA
ATOM     11  C   UNL     1       2.757   2.556  20.255  0.00  0.00    +0.000 C 
ATOM     12  C   UNL     1       4.198   2.859  19.803  0.00  0.00    +0.000 C 
ENDBRANCH   3   7
BRANCH   1  14
ATOM     13  C   UNL     1       6.415   4.172  14.529  0.00  0.00    +0.000 C 
ATOM     14  O   UNL     1       7.417   4.692  15.394  0.00  0.00    +0.000 OA
ENDBRANCH   1  14
TORSDOF 2
ENDMDL
MODEL 5
REMARK VINA RESULT:      -6.0      1.096      1.456
REMARK  Name = 
REMARK  3 active torsions:
REMARK  status: ('A' for Active; 'I' for Inactive)
REMARK    1  A    between atoms: C_1  and  O_2
REMARK    2  A    between atoms: O_2  and  C_3
REMARK    3  A    between atoms: C_5  and  N_6
REMARK                            x       y       z     vdW  Elec       q    Type
REMARK                         _______ _______ _______ _____ _____    ______ ____
ROOT
ATOM      1  C   UNL     1       6.746   4.998  15.734  0.00  0.00    +0.000 A 
ATOM      2  C   UNL     1       5.457   5.079  16.205  0.00  0.00    +0.000 A 
ATOM      3  C   UNL     1       5.270   4.890  17.561  0.00  0.00    +0.000 A 
ATOM      4  N   UNL     1       6.305   4.630  18.378  0.00  0.00    +0.000 NA
ATOM      5  C   UNL     1       7.524   4.595  17.810  0.00  0.00    +0.000 A 
ATOM      6  N   UNL     1       7.810   4.769  16.515  0.00  0.00    +0.000 NA
ENDROOT
BRANCH   3   7
ATOM      7  N   UNL     1       3.963   4.897  18.048  0.00  0.00    +0.000 N 
ATOM      8  C   UNL     1       3.046   3.898  17.471  0.00  0.00    +0.000 C 
ATOM      9  C   UNL     1       1.617   4.297  17.885  0.00  0.00    +0.000 C 
ATOM     10  O   UNL     1       1.476   4.349  19.318  0.00  0.00    +0.000 OA
ATOM     11  C   UNL     1       2.416   5.276  19.892  0.00  0.00    +0.000 C 
ATOM     12  C   UNL     1       3.865   4.912  19.519  0.00  0.00    +0.000 C 
ENDBRANCH   3   7
BRANCH   1  14
ATOM     13  C   UNL     1       6.324   4.061  13.628  0.00  0.00    +0.000 C 
ATOM     14  O   UNL     1       6.898   5.133  14.366  0.00  0.00    +0.000 OA
ENDBRANCH   1  14
TORSDOF 2
ENDMDL
MODEL 6
REMARK VINA RESULT:      -6.0      1.552      2.008
REMARK  Name = 
REMARK  3 active torsions:
REMARK  status: ('A' for Active; 'I' for Inactive)
REMARK    1  A    between atoms: C_1  and  O_2
REMARK    2  A    between atoms: O_2  and  C_3
REMARK    3  A    between atoms: C_5  and  N_6
REMARK                            x       y       z     vdW  Elec       q    Type
REMARK                         _______ _______ _______ _____ _____    ______ ____
ROOT
ATOM      1  C   UNL     1       6.383   4.172  16.052  0.00  0.00    +0.000 A 
ATOM      2  C   UNL     1       5.232   4.046  16.793  0.00  0.00    +0.000 A 
ATOM      3  C   UNL     1       5.325   4.301  18.149  0.00  0.00    +0.000 A 
ATOM      4  N   UNL     1       6.494   4.650  18.713  0.00  0.00    +0.000 NA
ATOM      5  C   UNL     1       7.549   4.763  17.887  0.00  0.00    +0.000 A 
ATOM      6  N   UNL     1       7.562   4.544  16.568  0.00  0.00    +0.000 NA
ENDROOT
BRANCH   3   7
ATOM      7  N   UNL     1       4.186   4.108  18.930  0.00  0.00    +0.000 N 
ATOM      8  C   UNL     1       4.186   2.921  19.802  0.00  0.00    +0.000 C 
ATOM      9  C   UNL     1       2.741   2.720  20.299  0.00  0.00    +0.000 C 
ATOM     10  O   UNL     1       2.262   3.876  21.013  0.00  0.00    +0.000 OA
ATOM     11  C   UNL     1       2.323   5.051  20.185  0.00  0.00    +0.000 C 
ATOM     12  C   UNL     1       3.753   5.307  19.672  0.00  0.00    +0.000 C 
ENDBRANCH   3   7
BRANCH   1  14
ATOM     13  C   UNL     1       6.956   4.767  13.859  0.00  0.00    +0.000 C 
ATOM     14  O   UNL     1       6.274   3.854  14.711  0.00  0.00    +0.000 OA
ENDBRANCH   1  14
TORSDOF 2
ENDMDL
MODEL 7
REMARK VINA RESULT:      -5.9      1.796      2.638
REMARK  Name = 
REMARK  3 active torsions:
REMARK  status: ('A' for Active; 'I' for Inactive)
REMARK    1  A    between atoms: C_1  and  O_2
REMARK    2  A    between atoms: O_2  and  C_3
REMARK    3  A    between atoms: C_5  and  N_6
REMARK                            x       y       z     vdW  Elec       q    Type
REMARK                         _______ _______ _______ _____ _____    ______ ____
ROOT
ATOM      1  C   UNL     1       7.048   5.839  16.398  0.00  0.00    +0.000 A 
ATOM      2  C   UNL     1       6.180   5.217  17.264  0.00  0.00    +0.000 A 
ATOM      3  C   UNL     1       5.516   4.099  16.794  0.00  0.00    +0.000 A 
ATOM      4  N   UNL     1       5.709   3.649  15.543  0.00  0.00    +0.000 NA
ATOM      5  C   UNL     1       6.598   4.325  14.792  0.00  0.00    +0.000 A 
ATOM      6  N   UNL     1       7.291   5.410  15.153  0.00  0.00    +0.000 NA
ENDROOT
BRANCH   3   7
ATOM      7  N   UNL     1       4.578   3.497  17.632  0.00  0.00    +0.000 N 
ATOM      8  C   UNL     1       4.764   3.707  19.078  0.00  0.00    +0.000 C 
ATOM      9  C   UNL     1       3.850   2.703  19.806  0.00  0.00    +0.000 C 
ATOM     10  O   UNL     1       2.468   2.881  19.440  0.00  0.00    +0.000 OA
ATOM     11  C   UNL     1       2.294   2.742  18.018  0.00  0.00    +0.000 C 
ATOM     12  C   UNL     1       3.176   3.737  17.241  0.00  0.00    +0.000 C 
ENDBRANCH   3   7
BRANCH   1  14
ATOM     13  C   UNL     1       7.863   6.972  18.281  0.00  0.00    +0.000 C 
ATOM     14  O   UNL     1       7.654   6.988  16.874  0.00  0.00    +0.000 OA
ENDBRANCH   1  14
TORSDOF 2
ENDMDL
MODEL 8
REMARK VINA RESULT:      -5.9      2.025      2.885
REMARK  Name = 
REMARK  3 active torsions:
REMARK  status: ('A' for Active; 'I' for Inactive)
REMARK    1  A    between atoms: C_1  and  O_2
REMARK    2  A    between atoms: O_2  and  C_3
REMARK    3  A    between atoms: C_5  and  N_6
REMARK                            x       y       z     vdW  Elec       q    Type
REMARK                         _______ _______ _______ _____ _____    ______ ____
ROOT
ATOM      1  C   UNL     1       6.405   4.507  17.960  0.00  0.00    +0.000 A 
ATOM      2  C   UNL     1       5.462   4.268  18.931  0.00  0.00    +0.000 A 
ATOM      3  C   UNL     1       4.171   4.015  18.506  0.00  0.00    +0.000 A 
ATOM      4  N   UNL     1       3.856   4.012  17.200  0.00  0.00    +0.000 NA
ATOM      5  C   UNL     1       4.865   4.237  16.339  0.00  0.00    +0.000 A 
ATOM      6  N   UNL     1       6.141   4.487  16.647  0.00  0.00    +0.000 NA
ENDROOT
BRANCH   3   7
ATOM      7  N   UNL     1       3.185   3.842  19.477  0.00  0.00    +0.000 N 
ATOM      8  C   UNL     1       1.790   3.934  19.014  0.00  0.00    +0.000 C 
ATOM      9  C   UNL     1       0.900   4.052  20.267  0.00  0.00    +0.000 C 
ATOM     10  O   UNL     1       1.070   2.924  21.146  0.00  0.00    +0.000 OA
ATOM     11  C   UNL     1       2.446   2.791  21.548  0.00  0.00    +0.000 C 
ATOM     12  C   UNL     1       3.379   2.654  20.330  0.00  0.00    +0.000 C 
ENDBRANCH   3   7
BRANCH   1  14
ATOM     13  C   UNL     1       7.808   6.167  18.835  0.00  0.00    +0.000 C 
ATOM     14  O   UNL     1       7.674   4.814  18.416  0.00  0.00    +0.000 OA
ENDBRANCH   1  14
TORSDOF 2
ENDMDL
MODEL 9
REMARK VINA RESULT:      -5.9      1.118      1.118
REMARK  Name = 
REMARK  3 active torsions:
REMARK  status: ('A' for Active; 'I' for Inactive)
REMARK    1  A    between atoms: C_1  and  O_2
REMARK    2  A    between atoms: O_2  and  C_3
REMARK    3  A    between atoms: C_5  and  N_6
REMARK                            x       y       z     vdW  Elec       q    Type
REMARK                         _______ _______ _______ _____ _____    ______ ____
ROOT
ATOM      1  C   UNL     1       6.282   4.422  15.782  0.00  0.00    +0.000 A 
ATOM      2  C   UNL     1       5.145   4.205  16.523  0.00  0.00    +0.000 A 
ATOM      3  C   UNL     1       5.277   4.226  17.899  0.00  0.00    +0.000 A 
ATOM      4  N   UNL     1       6.469   4.442  18.481  0.00  0.00    +0.000 NA
ATOM      5  C   UNL     1       7.508   4.664  17.656  0.00  0.00    +0.000 A 
ATOM      6  N   UNL     1       7.484   4.669  16.319  0.00  0.00    +0.000 NA
ENDROOT
BRANCH   3   7
ATOM      7  N   UNL     1       4.151   3.936  18.668  0.00  0.00    +0.000 N 
ATOM      8  C   UNL     1       2.855   3.972  17.967  0.00  0.00    +0.000 C 
ATOM      9  C   UNL     1       1.753   3.963  19.044  0.00  0.00    +0.000 C 
ATOM     10  O   UNL     1       1.845   2.797  19.885  0.00  0.00    +0.000 OA
ATOM     11  C   UNL     1       3.134   2.723  20.521  0.00  0.00    +0.000 C 
ATOM     12  C   UNL     1       4.273   2.714  19.484  0.00  0.00    +0.000 C 
ENDBRANCH   3   7
BRANCH   1  14
ATOM     13  C   UNL     1       7.246   4.852  13.689  0.00  0.00    +0.000 C 
ATOM     14  O   UNL     1       6.132   4.338  14.410  0.00  0.00    +0.000 OA
ENDBRANCH   1  14
TORSDOF 2
ENDMDL
