MODEL 1
REMARK VINA RESULT:      -8.0      0.000      0.000
REMARK  Name = 
REMARK  14 active torsions:
REMARK  status: ('A' for Active; 'I' for Inactive)
REMARK    1  A    between atoms: C_1  and  C_2
REMARK    2  A    between atoms: C_2  and  O_4
REMARK    3  A    between atoms: O_4  and  C_5
REMARK    4  A    between atoms: C_7  and  C_8
REMARK    5  A    between atoms: C_11  and  C_12
REMARK    6  A    between atoms: C_14  and  C_15
REMARK    7  A    between atoms: C_15  and  C_16
REMARK    8  A    between atoms: C_15  and  C_17
REMARK    9  A    between atoms: C_17  and  O_19
REMARK   10  A    between atoms: O_19  and  C_20
REMARK   11  A    between atoms: C_20  and  C_21
REMARK   12  A    between atoms: N_23  and  C_24
REMARK   13  A    between atoms: C_27  and  C_28
REMARK   14  A    between atoms: C_28  and  O_29
REMARK                            x       y       z     vdW  Elec       q    Type
REMARK                         _______ _______ _______ _____ _____    ______ ____
ROOT
ATOM      1  C   UNL     1       0.666  10.182  20.258  0.00  0.00    +0.000 C 
ATOM      2  C   UNL     1       0.775  11.425  21.141  0.00  0.00    +0.000 C 
ENDROOT
BRANCH   1  12
ATOM      3  C   UNL     1      -4.979  12.286  18.277  0.00  0.00    +0.000 A 
ATOM      4  C   UNL     1      -4.969  11.598  17.064  0.00  0.00    +0.000 A 
ATOM      5  C   UNL     1      -3.851  10.867  16.668  0.00  0.00    +0.000 A 
ATOM      6  C   UNL     1      -3.892  10.155  15.343  0.00  0.00    +0.000 C 
ATOM      7  C   UNL     1      -2.734  10.801  17.526  0.00  0.00    +0.000 A 
ATOM      8  C   UNL     1      -2.767  11.437  18.796  0.00  0.00    +0.000 A 
ATOM      9  C   UNL     1      -3.890  12.222  19.163  0.00  0.00    +0.000 A 
ATOM     10  C   UNL     1      -3.973  12.974  20.467  0.00  0.00    +0.000 C 
ATOM     11  C   UNL     1      -1.591  11.288  19.751  0.00  0.00    +0.000 C 
ATOM     12  C   UNL     1      -0.612  10.155  19.393  0.00  0.00    +0.000 C 
ATOM     13  C   UNL     1      -0.284  10.268  17.900  0.00  0.00    +0.000 C 
ATOM     14  C   UNL     1      -1.538   9.983  17.092  0.00  0.00    +0.000 C 
BRANCH   3  15
ATOM     15  O   UNL     1      -6.163  12.930  18.692  0.00  0.00    +0.000 OA
BRANCH  15  17
ATOM     16  C   UNL     1      -7.753  13.054  20.422  0.00  0.00    +0.000 C 
ATOM     17  C   UNL     1      -7.096  12.174  19.402  0.00  0.00    +0.000 C 
ATOM     18  O   UNL     1      -7.328  10.980  19.271  0.00  0.00    +0.000 OA
ENDBRANCH  15  17
ENDBRANCH   3  15
ENDBRANCH   1  12
BRANCH   1  19
ATOM     19  C   UNL     1       0.668   8.970  21.169  0.00  0.00    +0.000 C 
ATOM     20  O   UNL     1      -0.149   8.773  22.057  0.00  0.00    +0.000 OA
BRANCH  19  21
ATOM     21  O   UNL     1       1.687   8.126  20.830  0.00  0.00    +0.000 OA
BRANCH  21  22
ATOM     22  C   UNL     1       1.385   6.730  20.958  0.00  0.00    +0.000 C 
BRANCH  22  23
ATOM     23  C   UNL     1       2.329   5.894  20.180  0.00  0.00    +0.000 A 
ATOM     24  C   UNL     1       2.943   6.193  18.989  0.00  0.00    +0.000 A 
ATOM     25  N   UNL     1       3.712   5.099  18.692  0.00  0.00    +0.000 N 
ATOM     26  N   UNL     1       3.535   4.155  19.654  0.00  0.00    +0.000 NA
ATOM     27  N   UNL     1       2.697   4.637  20.566  0.00  0.00    +0.000 NA
BRANCH  25  28
ATOM     28  C   UNL     1       4.614   4.942  17.614  0.00  0.00    +0.000 A 
ATOM     29  C   UNL     1       4.317   4.048  16.576  0.00  0.00    +0.000 A 
ATOM     30  C   UNL     1       5.148   3.968  15.460  0.00  0.00    +0.000 A 
ATOM     31  C   UNL     1       6.288   4.773  15.358  0.00  0.00    +0.000 A 
ATOM     32  C   UNL     1       6.615   5.618  16.431  0.00  0.00    +0.000 A 
ATOM     33  C   UNL     1       5.780   5.712  17.551  0.00  0.00    +0.000 A 
BRANCH  31  34
ATOM     34  C   UNL     1       7.159   4.664  14.135  0.00  0.00    +0.000 C 
BRANCH  34  35
ATOM     35  O   UNL     1       8.148   5.684  14.103  0.00  0.00    +0.000 OA
ATOM     36  H   UNL     1       8.974   5.279  14.416  0.00  0.00    +0.000 HD
ENDBRANCH  34  35
ENDBRANCH  31  34
ENDBRANCH  25  28
ENDBRANCH  22  23
ENDBRANCH  21  22
ENDBRANCH  19  21
ENDBRANCH   1  19
TORSDOF 10
ENDMDL
MODEL 2
REMARK VINA RESULT:      -7.8      3.941      9.495
REMARK  Name = 
REMARK  14 active torsions:
REMARK  status: ('A' for Active; 'I' for Inactive)
REMARK    1  A    between atoms: C_1  and  C_2
REMARK    2  A    between atoms: C_2  and  O_4
REMARK    3  A    between atoms: O_4  and  C_5
REMARK    4  A    between atoms: C_7  and  C_8
REMARK    5  A    between atoms: C_11  and  C_12
REMARK    6  A    between atoms: C_14  and  C_15
REMARK    7  A    between atoms: C_15  and  C_16
REMARK    8  A    between atoms: C_15  and  C_17
REMARK    9  A    between atoms: C_17  and  O_19
REMARK   10  A    between atoms: O_19  and  C_20
REMARK   11  A    between atoms: C_20  and  C_21
REMARK   12  A    between atoms: N_23  and  C_24
REMARK   13  A    between atoms: C_27  and  C_28
REMARK   14  A    between atoms: C_28  and  O_29
REMARK                            x       y       z     vdW  Elec       q    Type
REMARK                         _______ _______ _______ _____ _____    ______ ____
ROOT
ATOM      1  C   UNL     1       0.239   9.305  20.965  0.00  0.00    +0.000 C 
ATOM      2  C   UNL     1      -0.743   8.361  21.660  0.00  0.00    +0.000 C 
ENDROOT
BRANCH   1  12
ATOM      3  C   UNL     1       3.563   4.219  19.146  0.00  0.00    +0.000 A 
ATOM      4  C   UNL     1       4.238   4.856  18.105  0.00  0.00    +0.000 A 
ATOM      5  C   UNL     1       3.940   6.174  17.762  0.00  0.00    +0.000 A 
ATOM      6  C   UNL     1       4.692   6.806  16.623  0.00  0.00    +0.000 C 
ATOM      7  C   UNL     1       2.966   6.874  18.504  0.00  0.00    +0.000 A 
ATOM      8  C   UNL     1       2.329   6.255  19.613  0.00  0.00    +0.000 A 
ATOM      9  C   UNL     1       2.602   4.897  19.917  0.00  0.00    +0.000 A 
ATOM     10  C   UNL     1       1.923   4.155  21.040  0.00  0.00    +0.000 C 
ATOM     11  C   UNL     1       1.342   7.046  20.460  0.00  0.00    +0.000 C 
ATOM     12  C   UNL     1       1.393   8.571  20.251  0.00  0.00    +0.000 C 
ATOM     13  C   UNL     1       1.385   8.841  18.742  0.00  0.00    +0.000 C 
ATOM     14  C   UNL     1       2.672   8.310  18.134  0.00  0.00    +0.000 C 
BRANCH   3  15
ATOM     15  O   UNL     1       3.961   2.923  19.532  0.00  0.00    +0.000 OA
BRANCH  15  17
ATOM     16  C   UNL     1       4.414   0.841  18.534  0.00  0.00    +0.000 C 
ATOM     17  C   UNL     1       3.357   1.843  18.889  0.00  0.00    +0.000 C 
ATOM     18  O   UNL     1       2.173   1.724  18.604  0.00  0.00    +0.000 OA
ENDBRANCH  15  17
ENDBRANCH   3  15
ENDBRANCH   1  12
BRANCH   1  19
ATOM     19  C   UNL     1       0.819  10.224  22.021  0.00  0.00    +0.000 C 
ATOM     20  O   UNL     1       0.935   9.931  23.202  0.00  0.00    +0.000 OA
BRANCH  19  21
ATOM     21  O   UNL     1       1.220  11.401  21.455  0.00  0.00    +0.000 OA
BRANCH  21  22
ATOM     22  C   UNL     1       0.274  12.474  21.554  0.00  0.00    +0.000 C 
BRANCH  22  23
ATOM     23  C   UNL     1      -0.876  12.275  20.641  0.00  0.00    +0.000 A 
ATOM     24  C   UNL     1      -0.853  11.912  19.317  0.00  0.00    +0.000 A 
ATOM     25  N   UNL     1      -2.167  11.865  18.932  0.00  0.00    +0.000 N 
ATOM     26  N   UNL     1      -2.953  12.226  19.979  0.00  0.00    +0.000 NA
ATOM     27  N   UNL     1      -2.171  12.473  21.026  0.00  0.00    +0.000 NA
BRANCH  25  28
ATOM     28  C   UNL     1      -2.687  11.449  17.684  0.00  0.00    +0.000 A 
ATOM     29  C   UNL     1      -1.901  10.675  16.819  0.00  0.00    +0.000 A 
ATOM     30  C   UNL     1      -2.443  10.174  15.637  0.00  0.00    +0.000 A 
ATOM     31  C   UNL     1      -3.774  10.435  15.294  0.00  0.00    +0.000 A 
ATOM     32  C   UNL     1      -4.535  11.266  16.131  0.00  0.00    +0.000 A 
ATOM     33  C   UNL     1      -4.001  11.765  17.325  0.00  0.00    +0.000 A 
BRANCH  31  34
ATOM     34  C   UNL     1      -4.327   9.872  14.012  0.00  0.00    +0.000 C 
BRANCH  34  35
ATOM     35  O   UNL     1      -3.378   9.938  12.957  0.00  0.00    +0.000 OA
ATOM     36  H   UNL     1      -3.426  10.839  12.597  0.00  0.00    +0.000 HD
ENDBRANCH  34  35
ENDBRANCH  31  34
ENDBRANCH  25  28
ENDBRANCH  22  23
ENDBRANCH  21  22
ENDBRANCH  19  21
ENDBRANCH   1  19
TORSDOF 10
ENDMDL
MODEL 3
REMARK VINA RESULT:      -7.7      3.715      5.497
REMARK  Name = 
REMARK  14 active torsions:
REMARK  status: ('A' for Active; 'I' for Inactive)
REMARK    1  A    between atoms: C_1  and  C_2
REMARK    2  A    between atoms: C_2  and  O_4
REMARK    3  A    between atoms: O_4  and  C_5
REMARK    4  A    between atoms: C_7  and  C_8
REMARK    5  A    between atoms: C_11  and  C_12
REMARK    6  A    between atoms: C_14  and  C_15
REMARK    7  A    between atoms: C_15  and  C_16
REMARK    8  A    between atoms: C_15  and  C_17
REMARK    9  A    between atoms: C_17  and  O_19
REMARK   10  A    between atoms: O_19  and  C_20
REMARK   11  A    between atoms: C_20  and  C_21
REMARK   12  A    between atoms: N_23  and  C_24
REMARK   13  A    between atoms: C_27  and  C_28
REMARK   14  A    between atoms: C_28  and  O_29
REMARK                            x       y       z     vdW  Elec       q    Type
REMARK                         _______ _______ _______ _____ _____    ______ ____
ROOT
ATOM      1  C   UNL     1       1.894   4.518  19.573  0.00  0.00    +0.000 C 
ATOM      2  C   UNL     1       1.087   3.940  20.736  0.00  0.00    +0.000 C 
ENDROOT
BRANCH   1  12
ATOM      3  C   UNL     1       0.639  10.518  21.198  0.00  0.00    +0.000 A 
ATOM      4  C   UNL     1       1.006  11.076  19.974  0.00  0.00    +0.000 A 
ATOM      5  C   UNL     1       1.558  10.287  18.967  0.00  0.00    +0.000 A 
ATOM      6  C   UNL     1       1.947  10.945  17.671  0.00  0.00    +0.000 C 
ATOM      7  C   UNL     1       1.712   8.902  19.186  0.00  0.00    +0.000 A 
ATOM      8  C   UNL     1       1.270   8.315  20.401  0.00  0.00    +0.000 A 
ATOM      9  C   UNL     1       0.760   9.138  21.438  0.00  0.00    +0.000 A 
ATOM     10  C   UNL     1       0.327   8.597  22.777  0.00  0.00    +0.000 C 
ATOM     11  C   UNL     1       1.361   6.808  20.595  0.00  0.00    +0.000 C 
ATOM     12  C   UNL     1       1.597   6.007  19.301  0.00  0.00    +0.000 C 
ATOM     13  C   UNL     1       2.740   6.679  18.532  0.00  0.00    +0.000 C 
ATOM     14  C   UNL     1       2.291   8.056  18.074  0.00  0.00    +0.000 C 
BRANCH   3  15
ATOM     15  O   UNL     1      -0.010  11.325  22.154  0.00  0.00    +0.000 OA
BRANCH  15  17
ATOM     16  C   UNL     1      -1.575  12.644  20.992  0.00  0.00    +0.000 C 
ATOM     17  C   UNL     1      -0.310  12.639  21.795  0.00  0.00    +0.000 C 
ATOM     18  O   UNL     1       0.355  13.638  22.038  0.00  0.00    +0.000 OA
ENDBRANCH  15  17
ENDBRANCH   3  15
ENDBRANCH   1  12
BRANCH   1  19
ATOM     19  C   UNL     1       1.554   3.714  18.333  0.00  0.00    +0.000 C 
ATOM     20  O   UNL     1       0.973   4.165  17.357  0.00  0.00    +0.000 OA
BRANCH  19  21
ATOM     21  O   UNL     1       2.019   2.436  18.457  0.00  0.00    +0.000 OA
BRANCH  21  22
ATOM     22  C   UNL     1       3.261   2.176  17.791  0.00  0.00    +0.000 C 
BRANCH  22  23
ATOM     23  C   UNL     1       4.324   3.109  18.234  0.00  0.00    +0.000 A 
ATOM     24  C   UNL     1       4.847   4.181  17.554  0.00  0.00    +0.000 A 
ATOM     25  N   UNL     1       5.795   4.712  18.388  0.00  0.00    +0.000 N 
ATOM     26  N   UNL     1       5.868   3.959  19.516  0.00  0.00    +0.000 NA
ATOM     27  N   UNL     1       4.970   2.983  19.430  0.00  0.00    +0.000 NA
BRANCH  25  28
ATOM     28  C   UNL     1       6.557   5.888  18.193  0.00  0.00    +0.000 A 
ATOM     29  C   UNL     1       6.187   6.806  17.201  0.00  0.00    +0.000 A 
ATOM     30  C   UNL     1       6.868   8.016  17.075  0.00  0.00    +0.000 A 
ATOM     31  C   UNL     1       7.929   8.330  17.931  0.00  0.00    +0.000 A 
ATOM     32  C   UNL     1       8.337   7.378  18.878  0.00  0.00    +0.000 A 
ATOM     33  C   UNL     1       7.651   6.165  19.018  0.00  0.00    +0.000 A 
BRANCH  31  34
ATOM     34  C   UNL     1       8.638   9.649  17.769  0.00  0.00    +0.000 C 
BRANCH  34  35
ATOM     35  O   UNL     1       9.332  10.019  18.953  0.00  0.00    +0.000 OA
ATOM     36  H   UNL     1       9.763  10.871  18.767  0.00  0.00    +0.000 HD
ENDBRANCH  34  35
ENDBRANCH  31  34
ENDBRANCH  25  28
ENDBRANCH  22  23
ENDBRANCH  21  22
ENDBRANCH  19  21
ENDBRANCH   1  19
TORSDOF 10
ENDMDL
MODEL 4
REMARK VINA RESULT:      -7.7      4.140      5.990
REMARK  Name = 
REMARK  14 active torsions:
REMARK  status: ('A' for Active; 'I' for Inactive)
REMARK    1  A    between atoms: C_1  and  C_2
REMARK    2  A    between atoms: C_2  and  O_4
REMARK    3  A    between atoms: O_4  and  C_5
REMARK    4  A    between atoms: C_7  and  C_8
REMARK    5  A    between atoms: C_11  and  C_12
REMARK    6  A    between atoms: C_14  and  C_15
REMARK    7  A    between atoms: C_15  and  C_16
REMARK    8  A    between atoms: C_15  and  C_17
REMARK    9  A    between atoms: C_17  and  O_19
REMARK   10  A    between atoms: O_19  and  C_20
REMARK   11  A    between atoms: C_20  and  C_21
REMARK   12  A    between atoms: N_23  and  C_24
REMARK   13  A    between atoms: C_27  and  C_28
REMARK   14  A    between atoms: C_28  and  O_29
REMARK                            x       y       z     vdW  Elec       q    Type
REMARK                         _______ _______ _______ _____ _____    ______ ____
ROOT
ATOM      1  C   UNL     1       2.976   6.513  19.302  0.00  0.00    +0.000 C 
ATOM      2  C   UNL     1       2.740   5.418  20.343  0.00  0.00    +0.000 C 
ENDROOT
BRANCH   1  12
ATOM      3  C   UNL     1      -0.914  10.978  21.573  0.00  0.00    +0.000 A 
ATOM      4  C   UNL     1      -1.297  11.478  20.328  0.00  0.00    +0.000 A 
ATOM      5  C   UNL     1      -0.714  10.999  19.157  0.00  0.00    +0.000 A 
ATOM      6  C   UNL     1      -1.158  11.584  17.844  0.00  0.00    +0.000 C 
ATOM      7  C   UNL     1       0.250   9.972  19.238  0.00  0.00    +0.000 A 
ATOM      8  C   UNL     1       0.589   9.407  20.496  0.00  0.00    +0.000 A 
ATOM      9  C   UNL     1       0.028   9.941  21.685  0.00  0.00    +0.000 A 
ATOM     10  C   UNL     1       0.384   9.433  23.059  0.00  0.00    +0.000 C 
ATOM     11  C   UNL     1       1.565   8.241  20.567  0.00  0.00    +0.000 C 
ATOM     12  C   UNL     1       1.827   7.540  19.221  0.00  0.00    +0.000 C 
ATOM     13  C   UNL     1       2.111   8.621  18.172  0.00  0.00    +0.000 C 
ATOM     14  C   UNL     1       0.854   9.447  17.955  0.00  0.00    +0.000 C 
BRANCH   3  15
ATOM     15  O   UNL     1      -1.596  11.412  22.727  0.00  0.00    +0.000 OA
BRANCH  15  17
ATOM     16  C   UNL     1      -2.741  13.332  23.463  0.00  0.00    +0.000 C 
ATOM     17  C   UNL     1      -1.407  12.733  23.133  0.00  0.00    +0.000 C 
ATOM     18  O   UNL     1      -0.348  13.344  23.176  0.00  0.00    +0.000 OA
ENDBRANCH  15  17
ENDBRANCH   3  15
ENDBRANCH   1  12
BRANCH   1  19
ATOM     19  C   UNL     1       3.129   5.839  17.953  0.00  0.00    +0.000 C 
ATOM     20  O   UNL     1       2.399   4.949  17.540  0.00  0.00    +0.000 OA
BRANCH  19  21
ATOM     21  O   UNL     1       4.171   6.391  17.264  0.00  0.00    +0.000 OA
BRANCH  21  22
ATOM     22  C   UNL     1       5.409   5.674  17.360  0.00  0.00    +0.000 C 
BRANCH  22  23
ATOM     23  C   UNL     1       6.520   6.556  17.788  0.00  0.00    +0.000 A 
ATOM     24  C   UNL     1       6.703   7.887  17.505  0.00  0.00    +0.000 A 
ATOM     25  N   UNL     1       7.872   8.233  18.129  0.00  0.00    +0.000 N 
ATOM     26  N   UNL     1       8.396   7.136  18.735  0.00  0.00    +0.000 NA
ATOM     27  N   UNL     1       7.574   6.111  18.534  0.00  0.00    +0.000 NA
BRANCH  25  28
ATOM     28  C   UNL     1       8.454   9.519  18.222  0.00  0.00    +0.000 A 
ATOM     29  C   UNL     1       7.999  10.556  17.396  0.00  0.00    +0.000 A 
ATOM     30  C   UNL     1       8.493  11.849  17.555  0.00  0.00    +0.000 A 
ATOM     31  C   UNL     1       9.450  12.132  18.537  0.00  0.00    +0.000 A 
ATOM     32  C   UNL     1       9.950  11.076  19.315  0.00  0.00    +0.000 A 
ATOM     33  C   UNL     1       9.451   9.776  19.168  0.00  0.00    +0.000 A 
BRANCH  31  34
ATOM     34  C   UNL     1       9.957  13.542  18.685  0.00  0.00    +0.000 C 
BRANCH  34  35
ATOM     35  O   UNL     1       9.639  14.335  17.549  0.00  0.00    +0.000 OA
ATOM     36  H   UNL     1       8.829  13.958  17.166  0.00  0.00    +0.000 HD
ENDBRANCH  34  35
ENDBRANCH  31  34
ENDBRANCH  25  28
ENDBRANCH  22  23
ENDBRANCH  21  22
ENDBRANCH  19  21
ENDBRANCH   1  19
TORSDOF 10
ENDMDL
MODEL 5
REMARK VINA RESULT:      -7.7      2.952      4.738
REMARK  Name = 
REMARK  14 active torsions:
REMARK  status: ('A' for Active; 'I' for Inactive)
REMARK    1  A    between atoms: C_1  and  C_2
REMARK    2  A    between atoms: C_2  and  O_4
REMARK    3  A    between atoms: O_4  and  C_5
REMARK    4  A    between atoms: C_7  and  C_8
REMARK    5  A    between atoms: C_11  and  C_12
REMARK    6  A    between atoms: C_14  and  C_15
REMARK    7  A    between atoms: C_15  and  C_16
REMARK    8  A    between atoms: C_15  and  C_17
REMARK    9  A    between atoms: C_17  and  O_19
REMARK   10  A    between atoms: O_19  and  C_20
REMARK   11  A    between atoms: C_20  and  C_21
REMARK   12  A    between atoms: N_23  and  C_24
REMARK   13  A    between atoms: C_27  and  C_28
REMARK   14  A    between atoms: C_28  and  O_29
REMARK                            x       y       z     vdW  Elec       q    Type
REMARK                         _______ _______ _______ _____ _____    ______ ____
ROOT
ATOM      1  C   UNL     1      -2.235  13.383  22.719  0.00  0.00    +0.000 C 
ATOM      2  C   UNL     1      -2.900  14.166  23.852  0.00  0.00    +0.000 C 
ENDROOT
BRANCH   1  12
ATOM      3  C   UNL     1      -3.584  11.534  16.805  0.00  0.00    +0.000 A 
ATOM      4  C   UNL     1      -4.959  11.756  16.897  0.00  0.00    +0.000 A 
ATOM      5  C   UNL     1      -5.539  12.144  18.103  0.00  0.00    +0.000 A 
ATOM      6  C   UNL     1      -7.027  12.357  18.147  0.00  0.00    +0.000 C 
ATOM      7  C   UNL     1      -4.715  12.344  19.230  0.00  0.00    +0.000 A 
ATOM      8  C   UNL     1      -3.306  12.193  19.123  0.00  0.00    +0.000 A 
ATOM      9  C   UNL     1      -2.735  11.745  17.905  0.00  0.00    +0.000 A 
ATOM     10  C   UNL     1      -1.257  11.504  17.732  0.00  0.00    +0.000 C 
ATOM     11  C   UNL     1      -2.417  12.495  20.321  0.00  0.00    +0.000 C 
ATOM     12  C   UNL     1      -3.103  13.289  21.447  0.00  0.00    +0.000 C 
ATOM     13  C   UNL     1      -4.455  12.627  21.736  0.00  0.00    +0.000 C 
ATOM     14  C   UNL     1      -5.358  12.788  20.525  0.00  0.00    +0.000 C 
BRANCH   3  15
ATOM     15  O   UNL     1      -3.018  11.242  15.548  0.00  0.00    +0.000 OA
BRANCH  15  17
ATOM     16  C   UNL     1      -3.460   9.924  13.648  0.00  0.00    +0.000 C 
ATOM     17  C   UNL     1      -3.082   9.923  15.099  0.00  0.00    +0.000 C 
ATOM     18  O   UNL     1      -2.911   8.911  15.765  0.00  0.00    +0.000 OA
ENDBRANCH  15  17
ENDBRANCH   3  15
ENDBRANCH   1  12
BRANCH   1  19
ATOM     19  C   UNL     1      -1.957  11.983  23.230  0.00  0.00    +0.000 C 
ATOM     20  O   UNL     1      -2.775  11.288  23.815  0.00  0.00    +0.000 OA
BRANCH  19  21
ATOM     21  O   UNL     1      -0.683  11.608  22.912  0.00  0.00    +0.000 OA
BRANCH  21  22
ATOM     22  C   UNL     1      -0.408  10.209  23.062  0.00  0.00    +0.000 C 
BRANCH  22  23
ATOM     23  C   UNL     1       0.309   9.664  21.886  0.00  0.00    +0.000 A 
ATOM     24  C   UNL     1       0.821   8.400  21.717  0.00  0.00    +0.000 A 
ATOM     25  N   UNL     1       1.382   8.401  20.468  0.00  0.00    +0.000 N 
ATOM     26  N   UNL     1       1.249   9.636  19.919  0.00  0.00    +0.000 NA
ATOM     27  N   UNL     1       0.591  10.409  20.778  0.00  0.00    +0.000 NA
BRANCH  25  28
ATOM     28  C   UNL     1       1.961   7.309  19.780  0.00  0.00    +0.000 A 
ATOM     29  C   UNL     1       1.892   6.020  20.327  0.00  0.00    +0.000 A 
ATOM     30  C   UNL     1       2.364   4.925  19.605  0.00  0.00    +0.000 A 
ATOM     31  C   UNL     1       2.915   5.094  18.330  0.00  0.00    +0.000 A 
ATOM     32  C   UNL     1       3.041   6.394  17.816  0.00  0.00    +0.000 A 
ATOM     33  C   UNL     1       2.560   7.498  18.530  0.00  0.00    +0.000 A 
BRANCH  31  34
ATOM     34  C   UNL     1       3.409   3.887  17.577  0.00  0.00    +0.000 C 
BRANCH  34  35
ATOM     35  O   UNL     1       2.338   3.155  16.998  0.00  0.00    +0.000 OA
ATOM     36  H   UNL     1       2.310   3.401  16.058  0.00  0.00    +0.000 HD
ENDBRANCH  34  35
ENDBRANCH  31  34
ENDBRANCH  25  28
ENDBRANCH  22  23
ENDBRANCH  21  22
ENDBRANCH  19  21
ENDBRANCH   1  19
TORSDOF 10
ENDMDL
MODEL 6
REMARK VINA RESULT:      -7.7      1.462      1.709
REMARK  Name = 
REMARK  14 active torsions:
REMARK  status: ('A' for Active; 'I' for Inactive)
REMARK    1  A    between atoms: C_1  and  C_2
REMARK    2  A    between atoms: C_2  and  O_4
REMARK    3  A    between atoms: O_4  and  C_5
REMARK    4  A    between atoms: C_7  and  C_8
REMARK    5  A    between atoms: C_11  and  C_12
REMARK    6  A    between atoms: C_14  and  C_15
REMARK    7  A    between atoms: C_15  and  C_16
REMARK    8  A    between atoms: C_15  and  C_17
REMARK    9  A    between atoms: C_17  and  O_19
REMARK   10  A    between atoms: O_19  and  C_20
REMARK   11  A    between atoms: C_20  and  C_21
REMARK   12  A    between atoms: N_23  and  C_24
REMARK   13  A    between atoms: C_27  and  C_28
REMARK   14  A    between atoms: C_28  and  O_29
REMARK                            x       y       z     vdW  Elec       q    Type
REMARK                         _______ _______ _______ _____ _____    ______ ____
ROOT
ATOM      1  C   UNL     1       0.274  10.998  20.856  0.00  0.00    +0.000 C 
ATOM      2  C   UNL     1       0.220  12.296  21.661  0.00  0.00    +0.000 C 
ENDROOT
BRANCH   1  12
ATOM      3  C   UNL     1      -5.434  12.374  18.460  0.00  0.00    +0.000 A 
ATOM      4  C   UNL     1      -5.225  11.750  17.230  0.00  0.00    +0.000 A 
ATOM      5  C   UNL     1      -3.985  11.202  16.909  0.00  0.00    +0.000 A 
ATOM      6  C   UNL     1      -3.815  10.552  15.563  0.00  0.00    +0.000 C 
ATOM      7  C   UNL     1      -2.944  11.255  17.859  0.00  0.00    +0.000 A 
ATOM      8  C   UNL     1      -3.172  11.822  19.141  0.00  0.00    +0.000 A 
ATOM      9  C   UNL     1      -4.422  12.424  19.435  0.00  0.00    +0.000 A 
ATOM     10  C   UNL     1      -4.720  13.098  20.750  0.00  0.00    +0.000 C 
ATOM     11  C   UNL     1      -2.070  11.798  20.190  0.00  0.00    +0.000 C 
ATOM     12  C   UNL     1      -0.911  10.831  19.882  0.00  0.00    +0.000 C 
ATOM     13  C   UNL     1      -0.482  11.056  18.428  0.00  0.00    +0.000 C 
ATOM     14  C   UNL     1      -1.611  10.634  17.504  0.00  0.00    +0.000 C 
BRANCH   3  15
ATOM     15  O   UNL     1      -6.728  12.826  18.791  0.00  0.00    +0.000 OA
BRANCH  15  17
ATOM     16  C   UNL     1      -7.916  14.745  19.455  0.00  0.00    +0.000 C 
ATOM     17  C   UNL     1      -7.091  14.107  18.378  0.00  0.00    +0.000 C 
ATOM     18  O   UNL     1      -6.837  14.634  17.303  0.00  0.00    +0.000 OA
ENDBRANCH  15  17
ENDBRANCH   3  15
ENDBRANCH   1  12
BRANCH   1  19
ATOM     19  C   UNL     1       0.267   9.846  21.841  0.00  0.00    +0.000 C 
ATOM     20  O   UNL     1      -0.626   9.634  22.648  0.00  0.00    +0.000 OA
BRANCH  19  21
ATOM     21  O   UNL     1       1.379   9.071  21.670  0.00  0.00    +0.000 OA
BRANCH  21  22
ATOM     22  C   UNL     1       1.144   7.806  21.037  0.00  0.00    +0.000 C 
BRANCH  22  23
ATOM     23  C   UNL     1       1.971   7.643  19.819  0.00  0.00    +0.000 A 
ATOM     24  C   UNL     1       2.872   6.647  19.534  0.00  0.00    +0.000 A 
ATOM     25  N   UNL     1       3.367   6.950  18.293  0.00  0.00    +0.000 N 
ATOM     26  N   UNL     1       2.812   8.112  17.863  0.00  0.00    +0.000 NA
ATOM     27  N   UNL     1       1.957   8.537  18.787  0.00  0.00    +0.000 NA
BRANCH  25  28
ATOM     28  C   UNL     1       4.259   6.183  17.507  0.00  0.00    +0.000 A 
ATOM     29  C   UNL     1       3.889   4.902  17.074  0.00  0.00    +0.000 A 
ATOM     30  C   UNL     1       4.718   4.186  16.212  0.00  0.00    +0.000 A 
ATOM     31  C   UNL     1       5.929   4.729  15.770  0.00  0.00    +0.000 A 
ATOM     32  C   UNL     1       6.325   5.983  16.261  0.00  0.00    +0.000 A 
ATOM     33  C   UNL     1       5.493   6.714  17.119  0.00  0.00    +0.000 A 
BRANCH  31  34
ATOM     34  C   UNL     1       6.796   3.928  14.835  0.00  0.00    +0.000 C 
BRANCH  34  35
ATOM     35  O   UNL     1       6.051   3.417  13.738  0.00  0.00    +0.000 OA
ATOM     36  H   UNL     1       5.409   4.105  13.495  0.00  0.00    +0.000 HD
ENDBRANCH  34  35
ENDBRANCH  31  34
ENDBRANCH  25  28
ENDBRANCH  22  23
ENDBRANCH  21  22
ENDBRANCH  19  21
ENDBRANCH   1  19
TORSDOF 10
ENDMDL
MODEL 7
REMARK VINA RESULT:      -7.5      4.310      8.332
REMARK  Name = 
REMARK  14 active torsions:
REMARK  status: ('A' for Active; 'I' for Inactive)
REMARK    1  A    between atoms: C_1  and  C_2
REMARK    2  A    between atoms: C_2  and  O_4
REMARK    3  A    between atoms: O_4  and  C_5
REMARK    4  A    between atoms: C_7  and  C_8
REMARK    5  A    between atoms: C_11  and  C_12
REMARK    6  A    between atoms: C_14  and  C_15
REMARK    7  A    between atoms: C_15  and  C_16
REMARK    8  A    between atoms: C_15  and  C_17
REMARK    9  A    between atoms: C_17  and  O_19
REMARK   10  A    between atoms: O_19  and  C_20
REMARK   11  A    between atoms: C_20  and  C_21
REMARK   12  A    between atoms: N_23  and  C_24
REMARK   13  A    between atoms: C_27  and  C_28
REMARK   14  A    between atoms: C_28  and  O_29
REMARK                            x       y       z     vdW  Elec       q    Type
REMARK                         _______ _______ _______ _____ _____    ______ ____
ROOT
ATOM      1  C   UNL     1       5.375   4.214  16.061  0.00  0.00    +0.000 C 
ATOM      2  C   UNL     1       5.032   5.279  15.018  0.00  0.00    +0.000 C 
ENDROOT
BRANCH   1  12
ATOM      3  C   UNL     1       1.579   7.121  20.227  0.00  0.00    +0.000 A 
ATOM      4  C   UNL     1       1.100   5.953  20.821  0.00  0.00    +0.000 A 
ATOM      5  C   UNL     1       1.456   4.702  20.322  0.00  0.00    +0.000 A 
ATOM      6  C   UNL     1       0.899   3.477  20.996  0.00  0.00    +0.000 C 
ATOM      7  C   UNL     1       2.337   4.624  19.224  0.00  0.00    +0.000 A 
ATOM      8  C   UNL     1       2.887   5.807  18.663  0.00  0.00    +0.000 A 
ATOM      9  C   UNL     1       2.475   7.076  19.145  0.00  0.00    +0.000 A 
ATOM     10  C   UNL     1       2.969   8.375  18.562  0.00  0.00    +0.000 C 
ATOM     11  C   UNL     1       3.904   5.711  17.534  0.00  0.00    +0.000 C 
ATOM     12  C   UNL     1       4.519   4.313  17.341  0.00  0.00    +0.000 C 
ATOM     13  C   UNL     1       3.377   3.291  17.336  0.00  0.00    +0.000 C 
ATOM     14  C   UNL     1       2.732   3.258  18.710  0.00  0.00    +0.000 C 
BRANCH   3  15
ATOM     15  O   UNL     1       1.282   8.365  20.820  0.00  0.00    +0.000 OA
BRANCH  15  17
ATOM     16  C   UNL     1      -0.429   9.781  20.041  0.00  0.00    +0.000 C 
ATOM     17  C   UNL     1      -0.062   8.691  21.002  0.00  0.00    +0.000 C 
ATOM     18  O   UNL     1      -0.827   8.219  21.832  0.00  0.00    +0.000 OA
ENDBRANCH  15  17
ENDBRANCH   3  15
ENDBRANCH   1  12
BRANCH   1  19
ATOM     19  C   UNL     1       6.835   4.386  16.430  0.00  0.00    +0.000 C 
ATOM     20  O   UNL     1       7.750   4.435  15.620  0.00  0.00    +0.000 OA
BRANCH  19  21
ATOM     21  O   UNL     1       6.969   4.510  17.784  0.00  0.00    +0.000 OA
BRANCH  21  22
ATOM     22  C   UNL     1       8.144   5.208  18.215  0.00  0.00    +0.000 C 
BRANCH  22  23
ATOM     23  C   UNL     1       8.006   6.673  18.038  0.00  0.00    +0.000 A 
ATOM     24  C   UNL     1       8.641   7.673  18.731  0.00  0.00    +0.000 A 
ATOM     25  N   UNL     1       8.173   8.842  18.191  0.00  0.00    +0.000 N 
ATOM     26  N   UNL     1       7.256   8.554  17.231  0.00  0.00    +0.000 NA
ATOM     27  N   UNL     1       7.153   7.233  17.130  0.00  0.00    +0.000 NA
BRANCH  25  28
ATOM     28  C   UNL     1       8.587  10.160  18.492  0.00  0.00    +0.000 A 
ATOM     29  C   UNL     1       9.359  10.408  19.636  0.00  0.00    +0.000 A 
ATOM     30  C   UNL     1       9.860  11.685  19.881  0.00  0.00    +0.000 A 
ATOM     31  C   UNL     1       9.600  12.737  18.996  0.00  0.00    +0.000 A 
ATOM     32  C   UNL     1       8.771  12.497  17.888  0.00  0.00    +0.000 A 
ATOM     33  C   UNL     1       8.273  11.215  17.629  0.00  0.00    +0.000 A 
BRANCH  31  34
ATOM     34  C   UNL     1      10.163  14.103  19.290  0.00  0.00    +0.000 C 
BRANCH  34  35
ATOM     35  O   UNL     1      11.483  14.024  19.809  0.00  0.00    +0.000 OA
ATOM     36  H   UNL     1      11.403  14.058  20.777  0.00  0.00    +0.000 HD
ENDBRANCH  34  35
ENDBRANCH  31  34
ENDBRANCH  25  28
ENDBRANCH  22  23
ENDBRANCH  21  22
ENDBRANCH  19  21
ENDBRANCH   1  19
TORSDOF 10
ENDMDL
MODEL 8
REMARK VINA RESULT:      -7.5      4.789      7.502
REMARK  Name = 
REMARK  14 active torsions:
REMARK  status: ('A' for Active; 'I' for Inactive)
REMARK    1  A    between atoms: C_1  and  C_2
REMARK    2  A    between atoms: C_2  and  O_4
REMARK    3  A    between atoms: O_4  and  C_5
REMARK    4  A    between atoms: C_7  and  C_8
REMARK    5  A    between atoms: C_11  and  C_12
REMARK    6  A    between atoms: C_14  and  C_15
REMARK    7  A    between atoms: C_15  and  C_16
REMARK    8  A    between atoms: C_15  and  C_17
REMARK    9  A    between atoms: C_17  and  O_19
REMARK   10  A    between atoms: O_19  and  C_20
REMARK   11  A    between atoms: C_20  and  C_21
REMARK   12  A    between atoms: N_23  and  C_24
REMARK   13  A    between atoms: C_27  and  C_28
REMARK   14  A    between atoms: C_28  and  O_29
REMARK                            x       y       z     vdW  Elec       q    Type
REMARK                         _______ _______ _______ _____ _____    ______ ____
ROOT
ATOM      1  C   UNL     1       3.941   4.847  18.661  0.00  0.00    +0.000 C 
ATOM      2  C   UNL     1       3.756   4.976  17.149  0.00  0.00    +0.000 C 
ENDROOT
BRANCH   1  12
ATOM      3  C   UNL     1       0.930  10.381  19.388  0.00  0.00    +0.000 A 
ATOM      4  C   UNL     1       0.372  10.077  20.631  0.00  0.00    +0.000 A 
ATOM      5  C   UNL     1       0.527   8.811  21.190  0.00  0.00    +0.000 A 
ATOM      6  C   UNL     1      -0.106   8.536  22.528  0.00  0.00    +0.000 C 
ATOM      7  C   UNL     1       1.286   7.842  20.501  0.00  0.00    +0.000 A 
ATOM      8  C   UNL     1       1.918   8.169  19.272  0.00  0.00    +0.000 A 
ATOM      9  C   UNL     1       1.708   9.444  18.687  0.00  0.00    +0.000 A 
ATOM     10  C   UNL     1       2.296   9.843  17.358  0.00  0.00    +0.000 C 
ATOM     11  C   UNL     1       2.805   7.145  18.578  0.00  0.00    +0.000 C 
ATOM     12  C   UNL     1       3.228   5.957  19.462  0.00  0.00    +0.000 C 
ATOM     13  C   UNL     1       1.976   5.426  20.169  0.00  0.00    +0.000 C 
ATOM     14  C   UNL     1       1.463   6.480  21.135  0.00  0.00    +0.000 C 
BRANCH   3  15
ATOM     15  O   UNL     1       0.841  11.701  18.900  0.00  0.00    +0.000 OA
BRANCH  15  17
ATOM     16  C   UNL     1      -0.390  13.482  19.822  0.00  0.00    +0.000 C 
ATOM     17  C   UNL     1       0.912  12.740  19.827  0.00  0.00    +0.000 C 
ATOM     18  O   UNL     1       1.879  13.052  20.509  0.00  0.00    +0.000 OA
ENDBRANCH  15  17
ENDBRANCH   3  15
ENDBRANCH   1  12
BRANCH   1  19
ATOM     19  C   UNL     1       5.428   4.910  18.950  0.00  0.00    +0.000 C 
ATOM     20  O   UNL     1       5.949   4.491  19.972  0.00  0.00    +0.000 OA
BRANCH  19  21
ATOM     21  O   UNL     1       6.091   5.467  17.894  0.00  0.00    +0.000 OA
BRANCH  21  22
ATOM     22  C   UNL     1       7.477   5.747  18.128  0.00  0.00    +0.000 C 
BRANCH  22  23
ATOM     23  C   UNL     1       7.767   7.196  18.028  0.00  0.00    +0.000 A 
ATOM     24  C   UNL     1       8.508   7.973  18.885  0.00  0.00    +0.000 A 
ATOM     25  N   UNL     1       8.473   9.234  18.352  0.00  0.00    +0.000 N 
ATOM     26  N   UNL     1       7.704   9.225  17.233  0.00  0.00    +0.000 NA
ATOM     27  N   UNL     1       7.274   7.984  17.028  0.00  0.00    +0.000 NA
BRANCH  25  28
ATOM     28  C   UNL     1       9.161  10.384  18.807  0.00  0.00    +0.000 A 
ATOM     29  C   UNL     1       9.365  11.467  17.940  0.00  0.00    +0.000 A 
ATOM     30  C   UNL     1       9.946  12.643  18.412  0.00  0.00    +0.000 A 
ATOM     31  C   UNL     1      10.335  12.761  19.751  0.00  0.00    +0.000 A 
ATOM     32  C   UNL     1      10.188  11.650  20.596  0.00  0.00    +0.000 A 
ATOM     33  C   UNL     1       9.597  10.468  20.133  0.00  0.00    +0.000 A 
BRANCH  31  34
ATOM     34  C   UNL     1      10.954  14.049  20.226  0.00  0.00    +0.000 C 
BRANCH  34  35
ATOM     35  O   UNL     1      11.955  14.511  19.330  0.00  0.00    +0.000 OA
ATOM     36  H   UNL     1      11.495  15.004  18.630  0.00  0.00    +0.000 HD
ENDBRANCH  34  35
ENDBRANCH  31  34
ENDBRANCH  25  28
ENDBRANCH  22  23
ENDBRANCH  21  22
ENDBRANCH  19  21
ENDBRANCH   1  19
TORSDOF 10
ENDMDL
MODEL 9
REMARK VINA RESULT:      -7.5      5.674      9.520
REMARK  Name = 
REMARK  14 active torsions:
REMARK  status: ('A' for Active; 'I' for Inactive)
REMARK    1  A    between atoms: C_1  and  C_2
REMARK    2  A    between atoms: C_2  and  O_4
REMARK    3  A    between atoms: O_4  and  C_5
REMARK    4  A    between atoms: C_7  and  C_8
REMARK    5  A    between atoms: C_11  and  C_12
REMARK    6  A    between atoms: C_14  and  C_15
REMARK    7  A    between atoms: C_15  and  C_16
REMARK    8  A    between atoms: C_15  and  C_17
REMARK    9  A    between atoms: C_17  and  O_19
REMARK   10  A    between atoms: O_19  and  C_20
REMARK   11  A    between atoms: C_20  and  C_21
REMARK   12  A    between atoms: N_23  and  C_24
REMARK   13  A    between atoms: C_27  and  C_28
REMARK   14  A    between atoms: C_28  and  O_29
REMARK                            x       y       z     vdW  Elec       q    Type
REMARK                         _______ _______ _______ _____ _____    ______ ____
ROOT
ATOM      1  C   UNL     1       0.506  10.444  19.816  0.00  0.00    +0.000 C 
ATOM      2  C   UNL     1      -0.863   9.796  20.023  0.00  0.00    +0.000 C 
ENDROOT
BRANCH   1  12
ATOM      3  C   UNL     1       3.146   4.708  19.231  0.00  0.00    +0.000 A 
ATOM      4  C   UNL     1       4.023   5.059  18.204  0.00  0.00    +0.000 A 
ATOM      5  C   UNL     1       3.978   6.329  17.632  0.00  0.00    +0.000 A 
ATOM      6  C   UNL     1       4.939   6.648  16.519  0.00  0.00    +0.000 C 
ATOM      7  C   UNL     1       3.055   7.274  18.126  0.00  0.00    +0.000 A 
ATOM      8  C   UNL     1       2.212   6.946  19.222  0.00  0.00    +0.000 A 
ATOM      9  C   UNL     1       2.230   5.634  19.759  0.00  0.00    +0.000 A 
ATOM     10  C   UNL     1       1.325   5.195  20.882  0.00  0.00    +0.000 C 
ATOM     11  C   UNL     1       1.281   7.999  19.805  0.00  0.00    +0.000 C 
ATOM     12  C   UNL     1       1.597   9.445  19.378  0.00  0.00    +0.000 C 
ATOM     13  C   UNL     1       1.793   9.456  17.857  0.00  0.00    +0.000 C 
ATOM     14  C   UNL     1       3.036   8.654  17.509  0.00  0.00    +0.000 C 
BRANCH   3  15
ATOM     15  O   UNL     1       3.288   3.452  19.855  0.00  0.00    +0.000 OA
BRANCH  15  17
ATOM     16  C   UNL     1       1.549   2.218  18.859  0.00  0.00    +0.000 C 
ATOM     17  C   UNL     1       3.027   2.315  19.090  0.00  0.00    +0.000 C 
ATOM     18  O   UNL     1       3.841   1.490  18.699  0.00  0.00    +0.000 OA
ENDBRANCH  15  17
ENDBRANCH   3  15
ENDBRANCH   1  12
BRANCH   1  19
ATOM     19  C   UNL     1       0.918  11.077  21.130  0.00  0.00    +0.000 C 
ATOM     20  O   UNL     1       0.568  10.673  22.230  0.00  0.00    +0.000 OA
BRANCH  19  21
ATOM     21  O   UNL     1       1.756  12.132  20.904  0.00  0.00    +0.000 OA
BRANCH  21  22
ATOM     22  C   UNL     1       1.131  13.291  20.338  0.00  0.00    +0.000 C 
BRANCH  22  23
ATOM     23  C   UNL     1       2.126  14.210  19.737  0.00  0.00    +0.000 A 
ATOM     24  C   UNL     1       3.491  14.198  19.888  0.00  0.00    +0.000 A 
ATOM     25  N   UNL     1       3.949  15.244  19.132  0.00  0.00    +0.000 N 
ATOM     26  N   UNL     1       2.892  15.890  18.576  0.00  0.00    +0.000 NA
ATOM     27  N   UNL     1       1.777  15.260  18.937  0.00  0.00    +0.000 NA
BRANCH  25  28
ATOM     28  C   UNL     1       5.293  15.603  18.878  0.00  0.00    +0.000 A 
ATOM     29  C   UNL     1       6.126  14.737  18.155  0.00  0.00    +0.000 A 
ATOM     30  C   UNL     1       7.417  15.130  17.809  0.00  0.00    +0.000 A 
ATOM     31  C   UNL     1       7.903  16.389  18.179  0.00  0.00    +0.000 A 
ATOM     32  C   UNL     1       7.089  17.224  18.959  0.00  0.00    +0.000 A 
ATOM     33  C   UNL     1       5.787  16.841  19.302  0.00  0.00    +0.000 A 
BRANCH  31  34
ATOM     34  C   UNL     1       9.302  16.782  17.782  0.00  0.00    +0.000 C 
BRANCH  34  35
ATOM     35  O   UNL     1       9.808  15.948  16.749  0.00  0.00    +0.000 OA
ATOM     36  H   UNL     1       9.113  15.893  16.072  0.00  0.00    +0.000 HD
ENDBRANCH  34  35
ENDBRANCH  31  34
ENDBRANCH  25  28
ENDBRANCH  22  23
ENDBRANCH  21  22
ENDBRANCH  19  21
ENDBRANCH   1  19
TORSDOF 10
ENDMDL
