MODEL 1
REMARK VINA RESULT:      -7.5      0.000      0.000
REMARK  Name = 
REMARK  5 active torsions:
REMARK  status: ('A' for Active; 'I' for Inactive)
REMARK    1  A    between atoms: C_2  and  C_12
REMARK    2  A    between atoms: N_3  and  N_4
REMARK    3  A    between atoms: C_5  and  S_6
REMARK    4  A    between atoms: C_5  and  C_7
REMARK    5  A    between atoms: C_17  and  O_18
REMARK                            x       y       z     vdW  Elec       q    Type
REMARK                         _______ _______ _______ _____ _____    ______ ____
ROOT
ATOM      1  O   UNL     1       2.632   3.246  16.655  0.00  0.00    +0.000 OA
ATOM      2  C   UNL     1       3.412   3.330  17.604  0.00  0.00    +0.000 C 
ATOM      3  N   UNL     1       4.778   3.497  17.476  0.00  0.00    +0.000 N 
ATOM      4  H   UNL     1       5.355   3.455  18.312  0.00  0.00    +0.000 HD
ENDROOT
BRANCH   2   5
ATOM      5  C   UNL     1       2.882   3.247  19.002  0.00  0.00    +0.000 A 
ATOM      6  C   UNL     1       1.625   3.825  19.249  0.00  0.00    +0.000 A 
ATOM      7  C   UNL     1       1.054   3.779  20.522  0.00  0.00    +0.000 A 
ATOM      8  C   UNL     1       1.733   3.155  21.565  0.00  0.00    +0.000 A 
ATOM      9  C   UNL     1       2.984   2.582  21.342  0.00  0.00    +0.000 A 
ATOM     10  C   UNL     1       3.558   2.628  20.067  0.00  0.00    +0.000 A 
BRANCH  10  11
ATOM     11  O   UNL     1       4.791   2.053  19.880  0.00  0.00    +0.000 OA
ATOM     12  H   UNL     1       5.421   2.755  19.633  0.00  0.00    +0.000 HD
ENDBRANCH  10  11
ENDBRANCH   2   5
BRANCH   3  13
ATOM     13  N   UNL     1       5.344   3.529  16.239  0.00  0.00    +0.000 NA
ATOM     14  C   UNL     1       5.723   4.653  15.711  0.00  0.00    +0.000 C 
BRANCH  14  15
ATOM     15  C   UNL     1       6.388   4.619  14.426  0.00  0.00    +0.000 A 
ATOM     16  C   UNL     1       6.104   3.865  13.299  0.00  0.00    +0.000 A 
ATOM     17  C   UNL     1       7.077   4.185  12.324  0.00  0.00    +0.000 A 
ATOM     18  C   UNL     1       7.896   5.123  12.904  0.00  0.00    +0.000 A 
ATOM     19  O   UNL     1       7.489   5.397  14.171  0.00  0.00    +0.000 OA
ENDBRANCH  14  15
BRANCH  14  20
ATOM     20  S   UNL     1       5.505   6.235  16.432  0.00  0.00    +0.000 S 
ATOM     21  H   UNL     1       5.590   6.946  15.303  0.00  0.00    +0.000 HD
ENDBRANCH  14  20
ENDBRANCH   3  13
TORSDOF 5
ENDMDL
MODEL 2
REMARK VINA RESULT:      -7.3      1.247      1.301
REMARK  Name = 
REMARK  5 active torsions:
REMARK  status: ('A' for Active; 'I' for Inactive)
REMARK    1  A    between atoms: C_2  and  C_12
REMARK    2  A    between atoms: N_3  and  N_4
REMARK    3  A    between atoms: C_5  and  S_6
REMARK    4  A    between atoms: C_5  and  C_7
REMARK    5  A    between atoms: C_17  and  O_18
REMARK                            x       y       z     vdW  Elec       q    Type
REMARK                         _______ _______ _______ _____ _____    ______ ____
ROOT
ATOM      1  O   UNL     1       2.426   3.176  16.585  0.00  0.00    +0.000 OA
ATOM      2  C   UNL     1       3.078   3.712  17.481  0.00  0.00    +0.000 C 
ATOM      3  N   UNL     1       4.254   4.409  17.277  0.00  0.00    +0.000 N 
ATOM      4  H   UNL     1       4.777   4.732  18.088  0.00  0.00    +0.000 HD
ENDROOT
BRANCH   2   5
ATOM      5  C   UNL     1       2.596   3.622  18.896  0.00  0.00    +0.000 A 
ATOM      6  C   UNL     1       2.747   4.765  19.701  0.00  0.00    +0.000 A 
ATOM      7  C   UNL     1       2.312   4.768  21.027  0.00  0.00    +0.000 A 
ATOM      8  C   UNL     1       1.721   3.628  21.566  0.00  0.00    +0.000 A 
ATOM      9  C   UNL     1       1.570   2.482  20.786  0.00  0.00    +0.000 A 
ATOM     10  C   UNL     1       2.006   2.478  19.457  0.00  0.00    +0.000 A 
BRANCH  10  11
ATOM     11  O   UNL     1       1.841   1.335  18.715  0.00  0.00    +0.000 OA
ATOM     12  H   UNL     1       2.686   0.848  18.710  0.00  0.00    +0.000 HD
ENDBRANCH  10  11
ENDBRANCH   2   5
BRANCH   3  13
ATOM     13  N   UNL     1       4.786   4.491  16.027  0.00  0.00    +0.000 NA
ATOM     14  C   UNL     1       6.071   4.557  15.856  0.00  0.00    +0.000 C 
BRANCH  14  15
ATOM     15  C   UNL     1       6.584   4.567  14.503  0.00  0.00    +0.000 A 
ATOM     16  C   UNL     1       6.197   3.821  13.400  0.00  0.00    +0.000 A 
ATOM     17  C   UNL     1       7.041   4.191  12.328  0.00  0.00    +0.000 A 
ATOM     18  C   UNL     1       7.891   5.147  12.829  0.00  0.00    +0.000 A 
ATOM     19  O   UNL     1       7.623   5.386  14.140  0.00  0.00    +0.000 OA
ENDBRANCH  14  15
BRANCH  14  20
ATOM     20  S   UNL     1       7.261   4.630  17.139  0.00  0.00    +0.000 S 
ATOM     21  H   UNL     1       7.112   5.926  17.431  0.00  0.00    +0.000 HD
ENDBRANCH  14  20
ENDBRANCH   3  13
TORSDOF 5
ENDMDL
MODEL 3
REMARK VINA RESULT:      -7.3      0.949      1.115
REMARK  Name = 
REMARK  5 active torsions:
REMARK  status: ('A' for Active; 'I' for Inactive)
REMARK    1  A    between atoms: C_2  and  C_12
REMARK    2  A    between atoms: N_3  and  N_4
REMARK    3  A    between atoms: C_5  and  S_6
REMARK    4  A    between atoms: C_5  and  C_7
REMARK    5  A    between atoms: C_17  and  O_18
REMARK                            x       y       z     vdW  Elec       q    Type
REMARK                         _______ _______ _______ _____ _____    ______ ____
ROOT
ATOM      1  O   UNL     1       2.325   3.069  16.690  0.00  0.00    +0.000 OA
ATOM      2  C   UNL     1       3.128   3.371  17.573  0.00  0.00    +0.000 C 
ATOM      3  N   UNL     1       4.400   3.855  17.336  0.00  0.00    +0.000 N 
ATOM      4  H   UNL     1       5.029   3.982  18.125  0.00  0.00    +0.000 HD
ENDROOT
BRANCH   2   5
ATOM      5  C   UNL     1       2.735   3.214  19.010  0.00  0.00    +0.000 A 
ATOM      6  C   UNL     1       1.443   3.631  19.373  0.00  0.00    +0.000 A 
ATOM      7  C   UNL     1       0.994   3.507  20.689  0.00  0.00    +0.000 A 
ATOM      8  C   UNL     1       1.832   2.965  21.659  0.00  0.00    +0.000 A 
ATOM      9  C   UNL     1       3.120   2.553  21.321  0.00  0.00    +0.000 A 
ATOM     10  C   UNL     1       3.571   2.678  20.003  0.00  0.00    +0.000 A 
BRANCH  10  11
ATOM     11  O   UNL     1       4.844   2.260  19.702  0.00  0.00    +0.000 OA
ATOM     12  H   UNL     1       5.072   2.592  18.813  0.00  0.00    +0.000 HD
ENDBRANCH  10  11
ENDBRANCH   2   5
BRANCH   3  13
ATOM     13  N   UNL     1       4.852   3.976  16.058  0.00  0.00    +0.000 NA
ATOM     14  C   UNL     1       6.090   4.283  15.818  0.00  0.00    +0.000 C 
BRANCH  14  15
ATOM     15  C   UNL     1       6.534   4.324  14.441  0.00  0.00    +0.000 A 
ATOM     16  C   UNL     1       7.469   5.147  13.833  0.00  0.00    +0.000 A 
ATOM     17  C   UNL     1       7.505   4.798  12.463  0.00  0.00    +0.000 A 
ATOM     18  C   UNL     1       6.598   3.777  12.310  0.00  0.00    +0.000 A 
ATOM     19  O   UNL     1       6.007   3.479  13.497  0.00  0.00    +0.000 OA
ENDBRANCH  14  15
BRANCH  14  20
ATOM     20  S   UNL     1       7.296   4.652  17.034  0.00  0.00    +0.000 S 
ATOM     21  H   UNL     1       6.569   4.307  18.101  0.00  0.00    +0.000 HD
ENDBRANCH  14  20
ENDBRANCH   3  13
TORSDOF 5
ENDMDL
MODEL 4
REMARK VINA RESULT:      -6.9      1.638      1.748
REMARK  Name = 
REMARK  5 active torsions:
REMARK  status: ('A' for Active; 'I' for Inactive)
REMARK    1  A    between atoms: C_2  and  C_12
REMARK    2  A    between atoms: N_3  and  N_4
REMARK    3  A    between atoms: C_5  and  S_6
REMARK    4  A    between atoms: C_5  and  C_7
REMARK    5  A    between atoms: C_17  and  O_18
REMARK                            x       y       z     vdW  Elec       q    Type
REMARK                         _______ _______ _______ _____ _____    ______ ____
ROOT
ATOM      1  O   UNL     1       3.545   5.816  17.313  0.00  0.00    +0.000 OA
ATOM      2  C   UNL     1       3.617   4.637  17.660  0.00  0.00    +0.000 C 
ATOM      3  N   UNL     1       4.291   3.659  16.955  0.00  0.00    +0.000 N 
ATOM      4  H   UNL     1       4.212   2.692  17.263  0.00  0.00    +0.000 HD
ENDROOT
BRANCH   2   5
ATOM      5  C   UNL     1       2.940   4.198  18.922  0.00  0.00    +0.000 A 
ATOM      6  C   UNL     1       2.463   2.877  18.970  0.00  0.00    +0.000 A 
ATOM      7  C   UNL     1       1.832   2.386  20.115  0.00  0.00    +0.000 A 
ATOM      8  C   UNL     1       1.669   3.210  21.225  0.00  0.00    +0.000 A 
ATOM      9  C   UNL     1       2.128   4.526  21.193  0.00  0.00    +0.000 A 
ATOM     10  C   UNL     1       2.760   5.020  20.047  0.00  0.00    +0.000 A 
BRANCH  10  11
ATOM     11  O   UNL     1       3.203   6.320  20.048  0.00  0.00    +0.000 OA
ATOM     12  H   UNL     1       4.097   6.338  19.660  0.00  0.00    +0.000 HD
ENDBRANCH  10  11
ENDBRANCH   2   5
BRANCH   3  13
ATOM     13  N   UNL     1       4.887   3.965  15.770  0.00  0.00    +0.000 NA
ATOM     14  C   UNL     1       6.135   4.322  15.728  0.00  0.00    +0.000 C 
BRANCH  14  15
ATOM     15  C   UNL     1       6.737   4.564  14.435  0.00  0.00    +0.000 A 
ATOM     16  C   UNL     1       6.464   3.985  13.206  0.00  0.00    +0.000 A 
ATOM     17  C   UNL     1       7.358   4.551  12.269  0.00  0.00    +0.000 A 
ATOM     18  C   UNL     1       8.123   5.450  12.972  0.00  0.00    +0.000 A 
ATOM     19  O   UNL     1       7.756   5.470  14.280  0.00  0.00    +0.000 OA
ENDBRANCH  14  15
BRANCH  14  20
ATOM     20  S   UNL     1       7.175   4.535  17.122  0.00  0.00    +0.000 S 
ATOM     21  H   UNL     1       8.215   3.833  16.663  0.00  0.00    +0.000 HD
ENDBRANCH  14  20
ENDBRANCH   3  13
TORSDOF 5
ENDMDL
MODEL 5
REMARK VINA RESULT:      -6.8      1.128      1.240
REMARK  Name = 
REMARK  5 active torsions:
REMARK  status: ('A' for Active; 'I' for Inactive)
REMARK    1  A    between atoms: C_2  and  C_12
REMARK    2  A    between atoms: N_3  and  N_4
REMARK    3  A    between atoms: C_5  and  S_6
REMARK    4  A    between atoms: C_5  and  C_7
REMARK    5  A    between atoms: C_17  and  O_18
REMARK                            x       y       z     vdW  Elec       q    Type
REMARK                         _______ _______ _______ _____ _____    ______ ____
ROOT
ATOM      1  O   UNL     1       2.547   3.277  16.656  0.00  0.00    +0.000 OA
ATOM      2  C   UNL     1       3.302   3.467  17.609  0.00  0.00    +0.000 C 
ATOM      3  N   UNL     1       4.663   3.675  17.494  0.00  0.00    +0.000 N 
ATOM      4  H   UNL     1       5.223   3.723  18.342  0.00  0.00    +0.000 HD
ENDROOT
BRANCH   2   5
ATOM      5  C   UNL     1       2.745   3.476  18.999  0.00  0.00    +0.000 A 
ATOM      6  C   UNL     1       2.013   2.347  19.406  0.00  0.00    +0.000 A 
ATOM      7  C   UNL     1       1.471   2.271  20.691  0.00  0.00    +0.000 A 
ATOM      8  C   UNL     1       1.653   3.323  21.584  0.00  0.00    +0.000 A 
ATOM      9  C   UNL     1       2.368   4.455  21.196  0.00  0.00    +0.000 A 
ATOM     10  C   UNL     1       2.911   4.533  19.909  0.00  0.00    +0.000 A 
BRANCH  10  11
ATOM     11  O   UNL     1       3.612   5.660  19.559  0.00  0.00    +0.000 OA
ATOM     12  H   UNL     1       3.413   6.358  20.210  0.00  0.00    +0.000 HD
ENDBRANCH  10  11
ENDBRANCH   2   5
BRANCH   3  13
ATOM     13  N   UNL     1       5.255   3.629  16.270  0.00  0.00    +0.000 NA
ATOM     14  C   UNL     1       5.623   4.720  15.669  0.00  0.00    +0.000 C 
BRANCH  14  15
ATOM     15  C   UNL     1       6.315   4.606  14.403  0.00  0.00    +0.000 A 
ATOM     16  C   UNL     1       6.074   3.763  13.330  0.00  0.00    +0.000 A 
ATOM     17  C   UNL     1       7.060   4.034  12.354  0.00  0.00    +0.000 A 
ATOM     18  C   UNL     1       7.844   5.033  12.878  0.00  0.00    +0.000 A 
ATOM     19  O   UNL     1       7.404   5.390  14.113  0.00  0.00    +0.000 OA
ENDBRANCH  14  15
BRANCH  14  20
ATOM     20  S   UNL     1       5.356   6.345  16.266  0.00  0.00    +0.000 S 
ATOM     21  H   UNL     1       5.872   6.995  15.219  0.00  0.00    +0.000 HD
ENDBRANCH  14  20
ENDBRANCH   3  13
TORSDOF 5
ENDMDL
MODEL 6
REMARK VINA RESULT:      -6.7      1.027      1.610
REMARK  Name = 
REMARK  5 active torsions:
REMARK  status: ('A' for Active; 'I' for Inactive)
REMARK    1  A    between atoms: C_2  and  C_12
REMARK    2  A    between atoms: N_3  and  N_4
REMARK    3  A    between atoms: C_5  and  S_6
REMARK    4  A    between atoms: C_5  and  C_7
REMARK    5  A    between atoms: C_17  and  O_18
REMARK                            x       y       z     vdW  Elec       q    Type
REMARK                         _______ _______ _______ _____ _____    ______ ____
ROOT
ATOM      1  O   UNL     1       2.552   2.949  16.549  0.00  0.00    +0.000 OA
ATOM      2  C   UNL     1       3.297   3.124  17.513  0.00  0.00    +0.000 C 
ATOM      3  N   UNL     1       4.641   3.431  17.412  0.00  0.00    +0.000 N 
ATOM      4  H   UNL     1       5.201   3.459  18.261  0.00  0.00    +0.000 HD
ENDROOT
BRANCH   2   5
ATOM      5  C   UNL     1       2.747   3.002  18.900  0.00  0.00    +0.000 A 
ATOM      6  C   UNL     1       3.668   2.795  19.942  0.00  0.00    +0.000 A 
ATOM      7  C   UNL     1       3.238   2.684  21.266  0.00  0.00    +0.000 A 
ATOM      8  C   UNL     1       1.881   2.778  21.564  0.00  0.00    +0.000 A 
ATOM      9  C   UNL     1       0.952   2.974  20.544  0.00  0.00    +0.000 A 
ATOM     10  C   UNL     1       1.381   3.085  19.217  0.00  0.00    +0.000 A 
BRANCH  10  11
ATOM     11  O   UNL     1       0.441   3.281  18.236  0.00  0.00    +0.000 OA
ATOM     12  H   UNL     1       0.889   3.650  17.453  0.00  0.00    +0.000 HD
ENDBRANCH  10  11
ENDBRANCH   2   5
BRANCH   3  13
ATOM     13  N   UNL     1       5.229   3.507  16.187  0.00  0.00    +0.000 NA
ATOM     14  C   UNL     1       5.773   4.613  15.780  0.00  0.00    +0.000 C 
BRANCH  14  15
ATOM     15  C   UNL     1       6.450   4.616  14.501  0.00  0.00    +0.000 A 
ATOM     16  C   UNL     1       6.200   3.867  13.362  0.00  0.00    +0.000 A 
ATOM     17  C   UNL     1       7.171   4.230  12.401  0.00  0.00    +0.000 A 
ATOM     18  C   UNL     1       7.955   5.186  12.999  0.00  0.00    +0.000 A 
ATOM     19  O   UNL     1       7.528   5.431  14.266  0.00  0.00    +0.000 OA
ENDBRANCH  14  15
BRANCH  14  20
ATOM     20  S   UNL     1       5.769   6.129  16.660  0.00  0.00    +0.000 S 
ATOM     21  H   UNL     1       6.923   5.949  17.308  0.00  0.00    +0.000 HD
ENDBRANCH  14  20
ENDBRANCH   3  13
TORSDOF 5
ENDMDL
MODEL 7
REMARK VINA RESULT:      -6.6      1.304      1.784
REMARK  Name = 
REMARK  5 active torsions:
REMARK  status: ('A' for Active; 'I' for Inactive)
REMARK    1  A    between atoms: C_2  and  C_12
REMARK    2  A    between atoms: N_3  and  N_4
REMARK    3  A    between atoms: C_5  and  S_6
REMARK    4  A    between atoms: C_5  and  C_7
REMARK    5  A    between atoms: C_17  and  O_18
REMARK                            x       y       z     vdW  Elec       q    Type
REMARK                         _______ _______ _______ _____ _____    ______ ____
ROOT
ATOM      1  O   UNL     1       3.350   2.723  16.995  0.00  0.00    +0.000 OA
ATOM      2  C   UNL     1       3.565   3.719  17.687  0.00  0.00    +0.000 C 
ATOM      3  N   UNL     1       4.272   4.826  17.258  0.00  0.00    +0.000 N 
ATOM      4  H   UNL     1       4.486   5.558  17.930  0.00  0.00    +0.000 HD
ENDROOT
BRANCH   2   5
ATOM      5  C   UNL     1       3.043   3.767  19.089  0.00  0.00    +0.000 A 
ATOM      6  C   UNL     1       3.154   2.595  19.858  0.00  0.00    +0.000 A 
ATOM      7  C   UNL     1       2.704   2.560  21.179  0.00  0.00    +0.000 A 
ATOM      8  C   UNL     1       2.136   3.697  21.748  0.00  0.00    +0.000 A 
ATOM      9  C   UNL     1       2.008   4.866  20.999  0.00  0.00    +0.000 A 
ATOM     10  C   UNL     1       2.459   4.901  19.675  0.00  0.00    +0.000 A 
BRANCH  10  11
ATOM     11  O   UNL     1       2.321   6.069  18.966  0.00  0.00    +0.000 OA
ATOM     12  H   UNL     1       1.456   6.053  18.516  0.00  0.00    +0.000 HD
ENDBRANCH  10  11
ENDBRANCH   2   5
BRANCH   3  13
ATOM     13  N   UNL     1       4.824   4.838  16.014  0.00  0.00    +0.000 NA
ATOM     14  C   UNL     1       6.109   4.734  15.858  0.00  0.00    +0.000 C 
BRANCH  14  15
ATOM     15  C   UNL     1       6.634   4.677  14.511  0.00  0.00    +0.000 A 
ATOM     16  C   UNL     1       6.253   3.883  13.441  0.00  0.00    +0.000 A 
ATOM     17  C   UNL     1       7.109   4.197  12.361  0.00  0.00    +0.000 A 
ATOM     18  C   UNL     1       7.960   5.171  12.824  0.00  0.00    +0.000 A 
ATOM     19  O   UNL     1       7.682   5.472  14.120  0.00  0.00    +0.000 OA
ENDBRANCH  14  15
BRANCH  14  20
ATOM     20  S   UNL     1       7.284   4.648  17.155  0.00  0.00    +0.000 S 
ATOM     21  H   UNL     1       8.031   3.668  16.639  0.00  0.00    +0.000 HD
ENDBRANCH  14  20
ENDBRANCH   3  13
TORSDOF 5
ENDMDL
MODEL 8
REMARK VINA RESULT:      -6.6      1.548      1.749
REMARK  Name = 
REMARK  5 active torsions:
REMARK  status: ('A' for Active; 'I' for Inactive)
REMARK    1  A    between atoms: C_2  and  C_12
REMARK    2  A    between atoms: N_3  and  N_4
REMARK    3  A    between atoms: C_5  and  S_6
REMARK    4  A    between atoms: C_5  and  C_7
REMARK    5  A    between atoms: C_17  and  O_18
REMARK                            x       y       z     vdW  Elec       q    Type
REMARK                         _______ _______ _______ _____ _____    ______ ____
ROOT
ATOM      1  O   UNL     1       2.270   3.170  16.661  0.00  0.00    +0.000 OA
ATOM      2  C   UNL     1       3.008   3.663  17.515  0.00  0.00    +0.000 C 
ATOM      3  N   UNL     1       4.231   4.245  17.243  0.00  0.00    +0.000 N 
ATOM      4  H   UNL     1       4.818   4.535  18.021  0.00  0.00    +0.000 HD
ENDROOT
BRANCH   2   5
ATOM      5  C   UNL     1       2.586   3.645  18.951  0.00  0.00    +0.000 A 
ATOM      6  C   UNL     1       1.997   2.464  19.434  0.00  0.00    +0.000 A 
ATOM      7  C   UNL     1       1.588   2.360  20.765  0.00  0.00    +0.000 A 
ATOM      8  C   UNL     1       1.763   3.437  21.630  0.00  0.00    +0.000 A 
ATOM      9  C   UNL     1       2.337   4.620  21.168  0.00  0.00    +0.000 A 
ATOM     10  C   UNL     1       2.747   4.725  19.834  0.00  0.00    +0.000 A 
BRANCH  10  11
ATOM     11  O   UNL     1       3.312   5.903  19.411  0.00  0.00    +0.000 OA
ATOM     12  H   UNL     1       3.081   6.033  18.473  0.00  0.00    +0.000 HD
ENDBRANCH  10  11
ENDBRANCH   2   5
BRANCH   3  13
ATOM     13  N   UNL     1       4.710   4.254  15.968  0.00  0.00    +0.000 NA
ATOM     14  C   UNL     1       5.981   4.385  15.738  0.00  0.00    +0.000 C 
BRANCH  14  15
ATOM     15  C   UNL     1       6.442   4.312  14.369  0.00  0.00    +0.000 A 
ATOM     16  C   UNL     1       7.425   5.043  13.721  0.00  0.00    +0.000 A 
ATOM     17  C   UNL     1       7.459   4.603  12.379  0.00  0.00    +0.000 A 
ATOM     18  C   UNL     1       6.503   3.621  12.279  0.00  0.00    +0.000 A 
ATOM     19  O   UNL     1       5.884   3.433  13.474  0.00  0.00    +0.000 OA
ENDBRANCH  14  15
BRANCH  14  20
ATOM     20  S   UNL     1       7.211   4.641  16.959  0.00  0.00    +0.000 S 
ATOM     21  H   UNL     1       8.266   4.619  16.141  0.00  0.00    +0.000 HD
ENDBRANCH  14  20
ENDBRANCH   3  13
TORSDOF 5
ENDMDL
MODEL 9
REMARK VINA RESULT:      -6.3      1.930      7.203
REMARK  Name = 
REMARK  5 active torsions:
REMARK  status: ('A' for Active; 'I' for Inactive)
REMARK    1  A    between atoms: C_2  and  C_12
REMARK    2  A    between atoms: N_3  and  N_4
REMARK    3  A    between atoms: C_5  and  S_6
REMARK    4  A    between atoms: C_5  and  C_7
REMARK    5  A    between atoms: C_17  and  O_18
REMARK                            x       y       z     vdW  Elec       q    Type
REMARK                         _______ _______ _______ _____ _____    ______ ____
ROOT
ATOM      1  O   UNL     1       5.171   5.977  16.354  0.00  0.00    +0.000 OA
ATOM      2  C   UNL     1       5.039   4.867  15.838  0.00  0.00    +0.000 C 
ATOM      3  N   UNL     1       4.251   3.857  16.354  0.00  0.00    +0.000 N 
ATOM      4  H   UNL     1       4.281   2.940  15.915  0.00  0.00    +0.000 HD
ENDROOT
BRANCH   2   5
ATOM      5  C   UNL     1       5.769   4.555  14.568  0.00  0.00    +0.000 A 
ATOM      6  C   UNL     1       5.104   3.752  13.625  0.00  0.00    +0.000 A 
ATOM      7  C   UNL     1       5.710   3.427  12.409  0.00  0.00    +0.000 A 
ATOM      8  C   UNL     1       6.987   3.899  12.122  0.00  0.00    +0.000 A 
ATOM      9  C   UNL     1       7.666   4.690  13.048  0.00  0.00    +0.000 A 
ATOM     10  C   UNL     1       7.061   5.017  14.266  0.00  0.00    +0.000 A 
BRANCH  10  11
ATOM     11  O   UNL     1       7.755   5.799  15.156  0.00  0.00    +0.000 OA
ATOM     12  H   UNL     1       8.327   5.219  15.691  0.00  0.00    +0.000 HD
ENDBRANCH  10  11
ENDBRANCH   2   5
BRANCH   3  13
ATOM     13  N   UNL     1       3.597   4.043  17.534  0.00  0.00    +0.000 NA
ATOM     14  C   UNL     1       3.397   3.050  18.345  0.00  0.00    +0.000 C 
BRANCH  14  15
ATOM     15  C   UNL     1       2.764   3.319  19.618  0.00  0.00    +0.000 A 
ATOM     16  C   UNL     1       1.978   2.499  20.412  0.00  0.00    +0.000 A 
ATOM     17  C   UNL     1       1.583   3.257  21.537  0.00  0.00    +0.000 A 
ATOM     18  C   UNL     1       2.155   4.496  21.376  0.00  0.00    +0.000 A 
ATOM     19  O   UNL     1       2.873   4.546  20.224  0.00  0.00    +0.000 OA
ENDBRANCH  14  15
BRANCH  14  20
ATOM     20  S   UNL     1       3.838   1.383  18.035  0.00  0.00    +0.000 S 
ATOM     21  H   UNL     1       2.598   0.887  17.990  0.00  0.00    +0.000 HD
ENDBRANCH  14  20
ENDBRANCH   3  13
TORSDOF 5
ENDMDL
