MODEL 1
REMARK VINA RESULT:      -6.7      0.000      0.000
REMARK  Name = 
REMARK  9 active torsions:
REMARK  status: ('A' for Active; 'I' for Inactive)
REMARK    1  A    between atoms: C_1  and  O_2
REMARK    2  A    between atoms: O_2  and  C_3
REMARK    3  A    between atoms: C_3  and  C_4
REMARK    4  A    between atoms: C_4  and  O_5
REMARK    5  A    between atoms: C_4  and  C_6
REMARK    6  A    between atoms: C_6  and  C_7
REMARK    7  A    between atoms: C_7  and  N_8
REMARK    8  A    between atoms: N_11  and  C_12
REMARK    9  A    between atoms: C_19  and  C_20
REMARK                            x       y       z     vdW  Elec       q    Type
REMARK                         _______ _______ _______ _____ _____    ______ ____
ROOT
ATOM      1  N   UNL     1       3.013   2.283  18.697  0.00  0.00    +0.000 N 
ATOM      2  C   UNL     1       3.467   3.050  17.639  0.00  0.00    +0.000 C 
ATOM      3  O   UNL     1       2.688   3.547  16.844  0.00  0.00    +0.000 OA
ATOM      4  N   UNL     1       4.846   3.114  17.580  0.00  0.00    +0.000 N 
ATOM      5  H   UNL     1       3.548   2.360  19.549  0.00  0.00    +0.000 HD
ATOM      6  H   UNL     1       5.324   2.365  18.054  0.00  0.00    +0.000 HD
ENDROOT
BRANCH   4   7
ATOM      7  C   UNL     1       5.548   3.800  16.552  0.00  0.00    +0.000 A 
ATOM      8  C   UNL     1       5.366   3.451  15.202  0.00  0.00    +0.000 A 
ATOM      9  C   UNL     1       6.165   3.992  14.200  0.00  0.00    +0.000 A 
ATOM     10 BR   UNL     1       5.971   3.378  12.425  0.00  0.00    +0.000 Br
ATOM     11  C   UNL     1       7.116   4.941  14.531  0.00  0.00    +0.000 A 
ATOM     12  F   UNL     1       7.921   5.462  13.592  0.00  0.00    +0.000 F 
ATOM     13  C   UNL     1       7.263   5.366  15.850  0.00  0.00    +0.000 A 
ATOM     14  C   UNL     1       6.486   4.801  16.879  0.00  0.00    +0.000 A 
ATOM     15  C   UNL     1       6.743   5.245  18.292  0.00  0.00    +0.000 C 
ENDBRANCH   4   7
BRANCH   1  16
ATOM     16  C   UNL     1       1.568   2.151  18.793  0.00  0.00    +0.000 C 
BRANCH  16  17
ATOM     17  C   UNL     1       0.979   2.875  19.995  0.00  0.00    +0.000 C 
BRANCH  17  18
ATOM     18  C   UNL     1       2.079   3.294  20.979  0.00  0.00    +0.000 C 
BRANCH  18  19
ATOM     19  O   UNL     1       1.769   2.745  22.265  0.00  0.00    +0.000 OA
ATOM     20  H   UNL     1       1.093   3.300  22.686  0.00  0.00    +0.000 HD
ENDBRANCH  18  19
BRANCH  18  21
ATOM     21  C   UNL     1       2.200   4.826  21.046  0.00  0.00    +0.000 C 
BRANCH  21  23
ATOM     22  C   UNL     1       3.087   6.234  19.373  0.00  0.00    +0.000 C 
ATOM     23  O   UNL     1       2.008   5.387  19.747  0.00  0.00    +0.000 OA
ENDBRANCH  21  23
ENDBRANCH  18  21
ENDBRANCH  17  18
ENDBRANCH  16  17
ENDBRANCH   1  16
TORSDOF 7
ENDMDL
MODEL 2
REMARK VINA RESULT:      -6.6      4.502      5.652
REMARK  Name = 
REMARK  9 active torsions:
REMARK  status: ('A' for Active; 'I' for Inactive)
REMARK    1  A    between atoms: C_1  and  O_2
REMARK    2  A    between atoms: O_2  and  C_3
REMARK    3  A    between atoms: C_3  and  C_4
REMARK    4  A    between atoms: C_4  and  O_5
REMARK    5  A    between atoms: C_4  and  C_6
REMARK    6  A    between atoms: C_6  and  C_7
REMARK    7  A    between atoms: C_7  and  N_8
REMARK    8  A    between atoms: N_11  and  C_12
REMARK    9  A    between atoms: C_19  and  C_20
REMARK                            x       y       z     vdW  Elec       q    Type
REMARK                         _______ _______ _______ _____ _____    ______ ____
ROOT
ATOM      1  N   UNL     1       1.597   7.328  21.059  0.00  0.00    +0.000 N 
ATOM      2  C   UNL     1       2.332   6.918  19.961  0.00  0.00    +0.000 C 
ATOM      3  O   UNL     1       2.443   7.631  18.978  0.00  0.00    +0.000 OA
ATOM      4  N   UNL     1       2.835   5.640  20.104  0.00  0.00    +0.000 N 
ATOM      5  H   UNL     1       1.951   7.027  21.955  0.00  0.00    +0.000 HD
ATOM      6  H   UNL     1       2.349   5.067  20.775  0.00  0.00    +0.000 HD
ENDROOT
BRANCH   4   7
ATOM      7  C   UNL     1       3.579   4.980  19.088  0.00  0.00    +0.000 A 
ATOM      8  C   UNL     1       4.979   5.094  19.035  0.00  0.00    +0.000 A 
ATOM      9  C   UNL     1       5.706   4.598  17.957  0.00  0.00    +0.000 A 
ATOM     10 BR   UNL     1       7.567   4.908  17.870  0.00  0.00    +0.000 Br
ATOM     11  C   UNL     1       5.044   3.922  16.948  0.00  0.00    +0.000 A 
ATOM     12  F   UNL     1       5.711   3.454  15.881  0.00  0.00    +0.000 F 
ATOM     13  C   UNL     1       3.666   3.722  17.015  0.00  0.00    +0.000 A 
ATOM     14  C   UNL     1       2.913   4.250  18.082  0.00  0.00    +0.000 A 
ATOM     15  C   UNL     1       1.421   4.068  18.060  0.00  0.00    +0.000 C 
ENDBRANCH   4   7
BRANCH   1  16
ATOM     16  C   UNL     1       1.013   8.656  20.955  0.00  0.00    +0.000 C 
BRANCH  16  17
ATOM     17  C   UNL     1       1.197   9.492  22.212  0.00  0.00    +0.000 C 
BRANCH  17  18
ATOM     18  C   UNL     1      -0.131   9.661  22.961  0.00  0.00    +0.000 C 
BRANCH  18  19
ATOM     19  O   UNL     1      -0.917   8.481  22.760  0.00  0.00    +0.000 OA
ATOM     20  H   UNL     1      -0.447   7.725  23.147  0.00  0.00    +0.000 HD
ENDBRANCH  18  19
BRANCH  18  21
ATOM     21  C   UNL     1      -0.880  10.914  22.476  0.00  0.00    +0.000 C 
BRANCH  21  23
ATOM     22  C   UNL     1      -2.759  12.273  22.916  0.00  0.00    +0.000 C 
ATOM     23  O   UNL     1      -1.876  11.285  23.431  0.00  0.00    +0.000 OA
ENDBRANCH  21  23
ENDBRANCH  18  21
ENDBRANCH  17  18
ENDBRANCH  16  17
ENDBRANCH   1  16
TORSDOF 7
ENDMDL
MODEL 3
REMARK VINA RESULT:      -6.4      4.801      6.801
REMARK  Name = 
REMARK  9 active torsions:
REMARK  status: ('A' for Active; 'I' for Inactive)
REMARK    1  A    between atoms: C_1  and  O_2
REMARK    2  A    between atoms: O_2  and  C_3
REMARK    3  A    between atoms: C_3  and  C_4
REMARK    4  A    between atoms: C_4  and  O_5
REMARK    5  A    between atoms: C_4  and  C_6
REMARK    6  A    between atoms: C_6  and  C_7
REMARK    7  A    between atoms: C_7  and  N_8
REMARK    8  A    between atoms: N_11  and  C_12
REMARK    9  A    between atoms: C_19  and  C_20
REMARK                            x       y       z     vdW  Elec       q    Type
REMARK                         _______ _______ _______ _____ _____    ______ ____
ROOT
ATOM      1  N   UNL     1       2.971   4.082  20.408  0.00  0.00    +0.000 N 
ATOM      2  C   UNL     1       2.083   5.142  20.432  0.00  0.00    +0.000 C 
ATOM      3  O   UNL     1       0.881   4.953  20.517  0.00  0.00    +0.000 OA
ATOM      4  N   UNL     1       2.709   6.365  20.290  0.00  0.00    +0.000 N 
ATOM      5  H   UNL     1       3.856   4.247  20.864  0.00  0.00    +0.000 HD
ATOM      6  H   UNL     1       3.618   6.326  19.858  0.00  0.00    +0.000 HD
ENDROOT
BRANCH   4   7
ATOM      7  C   UNL     1       2.003   7.597  20.232  0.00  0.00    +0.000 A 
ATOM      8  C   UNL     1       1.333   8.094  21.364  0.00  0.00    +0.000 A 
ATOM      9  C   UNL     1       0.501   9.206  21.283  0.00  0.00    +0.000 A 
ATOM     10 BR   UNL     1      -0.485   9.741  22.803  0.00  0.00    +0.000 Br
ATOM     11  C   UNL     1       0.380   9.875  20.078  0.00  0.00    +0.000 A 
ATOM     12  F   UNL     1      -0.435  10.935  19.960  0.00  0.00    +0.000 F 
ATOM     13  C   UNL     1       1.097   9.454  18.960  0.00  0.00    +0.000 A 
ATOM     14  C   UNL     1       1.914   8.309  19.018  0.00  0.00    +0.000 A 
ATOM     15  C   UNL     1       2.602   7.858  17.759  0.00  0.00    +0.000 C 
ENDBRANCH   4   7
BRANCH   1  16
ATOM     16  C   UNL     1       2.368   2.764  20.522  0.00  0.00    +0.000 C 
BRANCH  16  17
ATOM     17  C   UNL     1       2.160   2.081  19.178  0.00  0.00    +0.000 C 
BRANCH  17  18
ATOM     18  C   UNL     1       3.498   1.852  18.464  0.00  0.00    +0.000 C 
BRANCH  18  19
ATOM     19  O   UNL     1       4.537   1.813  19.449  0.00  0.00    +0.000 OA
ATOM     20  H   UNL     1       5.380   1.632  19.006  0.00  0.00    +0.000 HD
ENDBRANCH  18  19
BRANCH  18  21
ATOM     21  C   UNL     1       3.763   2.956  17.426  0.00  0.00    +0.000 C 
BRANCH  21  23
ATOM     22  C   UNL     1       5.609   4.357  16.980  0.00  0.00    +0.000 C 
ATOM     23  O   UNL     1       4.676   3.916  17.958  0.00  0.00    +0.000 OA
ENDBRANCH  21  23
ENDBRANCH  18  21
ENDBRANCH  17  18
ENDBRANCH  16  17
ENDBRANCH   1  16
TORSDOF 7
ENDMDL
MODEL 4
REMARK VINA RESULT:      -6.3      1.350      2.134
REMARK  Name = 
REMARK  9 active torsions:
REMARK  status: ('A' for Active; 'I' for Inactive)
REMARK    1  A    between atoms: C_1  and  O_2
REMARK    2  A    between atoms: O_2  and  C_3
REMARK    3  A    between atoms: C_3  and  C_4
REMARK    4  A    between atoms: C_4  and  O_5
REMARK    5  A    between atoms: C_4  and  C_6
REMARK    6  A    between atoms: C_6  and  C_7
REMARK    7  A    between atoms: C_7  and  N_8
REMARK    8  A    between atoms: N_11  and  C_12
REMARK    9  A    between atoms: C_19  and  C_20
REMARK                            x       y       z     vdW  Elec       q    Type
REMARK                         _______ _______ _______ _____ _____    ______ ____
ROOT
ATOM      1  N   UNL     1       3.479   4.795  20.147  0.00  0.00    +0.000 N 
ATOM      2  C   UNL     1       3.923   5.249  18.918  0.00  0.00    +0.000 C 
ATOM      3  O   UNL     1       3.293   6.084  18.292  0.00  0.00    +0.000 OA
ATOM      4  N   UNL     1       5.075   4.612  18.499  0.00  0.00    +0.000 N 
ATOM      5  H   UNL     1       4.202   4.578  20.816  0.00  0.00    +0.000 HD
ATOM      6  H   UNL     1       5.241   3.715  18.927  0.00  0.00    +0.000 HD
ENDROOT
BRANCH   4   7
ATOM      7  C   UNL     1       5.693   4.869  17.246  0.00  0.00    +0.000 A 
ATOM      8  C   UNL     1       5.173   4.318  16.062  0.00  0.00    +0.000 A 
ATOM      9  C   UNL     1       5.856   4.419  14.854  0.00  0.00    +0.000 A 
ATOM     10 BR   UNL     1       5.181   3.535  13.328  0.00  0.00    +0.000 Br
ATOM     11  C   UNL     1       7.041   5.131  14.804  0.00  0.00    +0.000 A 
ATOM     12  F   UNL     1       7.739   5.225  13.661  0.00  0.00    +0.000 F 
ATOM     13  C   UNL     1       7.539   5.758  15.945  0.00  0.00    +0.000 A 
ATOM     14  C   UNL     1       6.877   5.634  17.181  0.00  0.00    +0.000 A 
ATOM     15  C   UNL     1       7.503   6.268  18.393  0.00  0.00    +0.000 C 
ENDBRANCH   4   7
BRANCH   1  16
ATOM     16  C   UNL     1       2.250   5.406  20.627  0.00  0.00    +0.000 C 
BRANCH  16  17
ATOM     17  C   UNL     1       1.025   4.527  20.429  0.00  0.00    +0.000 C 
BRANCH  17  18
ATOM     18  C   UNL     1       1.241   3.135  21.036  0.00  0.00    +0.000 C 
BRANCH  18  19
ATOM     19  O   UNL     1       2.176   3.252  22.115  0.00  0.00    +0.000 OA
ATOM     20  H   UNL     1       1.704   3.120  22.952  0.00  0.00    +0.000 HD
ENDBRANCH  18  19
BRANCH  18  21
ATOM     21  C   UNL     1       1.744   2.144  19.973  0.00  0.00    +0.000 C 
BRANCH  21  23
ATOM     22  C   UNL     1       2.459   2.192  17.724  0.00  0.00    +0.000 C 
ATOM     23  O   UNL     1       1.507   2.669  18.667  0.00  0.00    +0.000 OA
ENDBRANCH  21  23
ENDBRANCH  18  21
ENDBRANCH  17  18
ENDBRANCH  16  17
ENDBRANCH   1  16
TORSDOF 7
ENDMDL
MODEL 5
REMARK VINA RESULT:      -6.3      4.294      5.486
REMARK  Name = 
REMARK  9 active torsions:
REMARK  status: ('A' for Active; 'I' for Inactive)
REMARK    1  A    between atoms: C_1  and  O_2
REMARK    2  A    between atoms: O_2  and  C_3
REMARK    3  A    between atoms: C_3  and  C_4
REMARK    4  A    between atoms: C_4  and  O_5
REMARK    5  A    between atoms: C_4  and  C_6
REMARK    6  A    between atoms: C_6  and  C_7
REMARK    7  A    between atoms: C_7  and  N_8
REMARK    8  A    between atoms: N_11  and  C_12
REMARK    9  A    between atoms: C_19  and  C_20
REMARK                            x       y       z     vdW  Elec       q    Type
REMARK                         _______ _______ _______ _____ _____    ______ ____
ROOT
ATOM      1  N   UNL     1       1.628   7.299  20.985  0.00  0.00    +0.000 N 
ATOM      2  C   UNL     1       2.364   6.881  19.891  0.00  0.00    +0.000 C 
ATOM      3  O   UNL     1       2.477   7.588  18.903  0.00  0.00    +0.000 OA
ATOM      4  N   UNL     1       2.866   5.604  20.043  0.00  0.00    +0.000 N 
ATOM      5  H   UNL     1       1.981   7.004  21.883  0.00  0.00    +0.000 HD
ATOM      6  H   UNL     1       2.379   5.036  20.717  0.00  0.00    +0.000 HD
ENDROOT
BRANCH   4   7
ATOM      7  C   UNL     1       3.610   4.937  19.033  0.00  0.00    +0.000 A 
ATOM      8  C   UNL     1       5.011   5.051  18.978  0.00  0.00    +0.000 A 
ATOM      9  C   UNL     1       5.738   4.547  17.905  0.00  0.00    +0.000 A 
ATOM     10 BR   UNL     1       7.599   4.857  17.816  0.00  0.00    +0.000 Br
ATOM     11  C   UNL     1       5.076   3.862  16.901  0.00  0.00    +0.000 A 
ATOM     12  F   UNL     1       5.745   3.387  15.838  0.00  0.00    +0.000 F 
ATOM     13  C   UNL     1       3.699   3.662  16.969  0.00  0.00    +0.000 A 
ATOM     14  C   UNL     1       2.946   4.198  18.031  0.00  0.00    +0.000 A 
ATOM     15  C   UNL     1       1.453   4.015  18.011  0.00  0.00    +0.000 C 
ENDBRANCH   4   7
BRANCH   1  16
ATOM     16  C   UNL     1       1.046   8.627  20.872  0.00  0.00    +0.000 C 
BRANCH  16  17
ATOM     17  C   UNL     1      -0.202   8.809  21.722  0.00  0.00    +0.000 C 
BRANCH  17  18
ATOM     18  C   UNL     1      -0.123  10.099  22.547  0.00  0.00    +0.000 C 
BRANCH  18  19
ATOM     19  O   UNL     1      -1.254  10.146  23.424  0.00  0.00    +0.000 OA
ATOM     20  H   UNL     1      -1.990  10.577  22.960  0.00  0.00    +0.000 HD
ENDBRANCH  18  19
BRANCH  18  21
ATOM     21  C   UNL     1      -0.080  11.335  21.633  0.00  0.00    +0.000 C 
BRANCH  21  23
ATOM     22  C   UNL     1      -1.073  11.764  19.535  0.00  0.00    +0.000 C 
ATOM     23  O   UNL     1      -1.302  11.441  20.901  0.00  0.00    +0.000 OA
ENDBRANCH  21  23
ENDBRANCH  18  21
ENDBRANCH  17  18
ENDBRANCH  16  17
ENDBRANCH   1  16
TORSDOF 7
ENDMDL
MODEL 6
REMARK VINA RESULT:      -6.3      4.029      7.048
REMARK  Name = 
REMARK  9 active torsions:
REMARK  status: ('A' for Active; 'I' for Inactive)
REMARK    1  A    between atoms: C_1  and  O_2
REMARK    2  A    between atoms: O_2  and  C_3
REMARK    3  A    between atoms: C_3  and  C_4
REMARK    4  A    between atoms: C_4  and  O_5
REMARK    5  A    between atoms: C_4  and  C_6
REMARK    6  A    between atoms: C_6  and  C_7
REMARK    7  A    between atoms: C_7  and  N_8
REMARK    8  A    between atoms: N_11  and  C_12
REMARK    9  A    between atoms: C_19  and  C_20
REMARK                            x       y       z     vdW  Elec       q    Type
REMARK                         _______ _______ _______ _____ _____    ______ ____
ROOT
ATOM      1  N   UNL     1       6.825   3.796  14.420  0.00  0.00    +0.000 N 
ATOM      2  C   UNL     1       5.898   4.291  15.321  0.00  0.00    +0.000 C 
ATOM      3  O   UNL     1       5.221   5.269  15.052  0.00  0.00    +0.000 OA
ATOM      4  N   UNL     1       5.896   3.600  16.517  0.00  0.00    +0.000 N 
ATOM      5  H   UNL     1       6.936   2.793  14.419  0.00  0.00    +0.000 HD
ATOM      6  H   UNL     1       6.744   3.094  16.714  0.00  0.00    +0.000 HD
ENDROOT
BRANCH   4   7
ATOM      7  C   UNL     1       5.068   3.953  17.616  0.00  0.00    +0.000 A 
ATOM      8  C   UNL     1       3.797   3.373  17.774  0.00  0.00    +0.000 A 
ATOM      9  C   UNL     1       2.908   3.828  18.743  0.00  0.00    +0.000 A 
ATOM     10 BR   UNL     1       1.163   3.109  18.812  0.00  0.00    +0.000 Br
ATOM     11  C   UNL     1       3.307   4.827  19.612  0.00  0.00    +0.000 A 
ATOM     12  F   UNL     1       2.464   5.307  20.540  0.00  0.00    +0.000 F 
ATOM     13  C   UNL     1       4.591   5.364  19.532  0.00  0.00    +0.000 A 
ATOM     14  C   UNL     1       5.488   4.939  18.534  0.00  0.00    +0.000 A 
ATOM     15  C   UNL     1       6.831   5.610  18.449  0.00  0.00    +0.000 C 
ENDBRANCH   4   7
BRANCH   1  16
ATOM     16  C   UNL     1       6.896   4.504  13.152  0.00  0.00    +0.000 C 
BRANCH  16  17
ATOM     17  C   UNL     1       6.743   3.589  11.946  0.00  0.00    +0.000 C 
BRANCH  17  18
ATOM     18  C   UNL     1       5.465   2.748  12.051  0.00  0.00    +0.000 C 
BRANCH  18  19
ATOM     19  O   UNL     1       5.615   1.591  11.220  0.00  0.00    +0.000 OA
ATOM     20  H   UNL     1       5.334   0.809  11.721  0.00  0.00    +0.000 HD
ENDBRANCH  18  19
BRANCH  18  21
ATOM     21  C   UNL     1       4.231   3.568  11.641  0.00  0.00    +0.000 C 
BRANCH  21  23
ATOM     22  C   UNL     1       2.994   4.048   9.688  0.00  0.00    +0.000 C 
ATOM     23  O   UNL     1       3.683   3.049  10.428  0.00  0.00    +0.000 OA
ENDBRANCH  21  23
ENDBRANCH  18  21
ENDBRANCH  17  18
ENDBRANCH  16  17
ENDBRANCH   1  16
TORSDOF 7
ENDMDL
MODEL 7
REMARK VINA RESULT:      -6.2      4.622      5.819
REMARK  Name = 
REMARK  9 active torsions:
REMARK  status: ('A' for Active; 'I' for Inactive)
REMARK    1  A    between atoms: C_1  and  O_2
REMARK    2  A    between atoms: O_2  and  C_3
REMARK    3  A    between atoms: C_3  and  C_4
REMARK    4  A    between atoms: C_4  and  O_5
REMARK    5  A    between atoms: C_4  and  C_6
REMARK    6  A    between atoms: C_6  and  C_7
REMARK    7  A    between atoms: C_7  and  N_8
REMARK    8  A    between atoms: N_11  and  C_12
REMARK    9  A    between atoms: C_19  and  C_20
REMARK                            x       y       z     vdW  Elec       q    Type
REMARK                         _______ _______ _______ _____ _____    ______ ____
ROOT
ATOM      1  N   UNL     1       1.648   7.361  20.939  0.00  0.00    +0.000 N 
ATOM      2  C   UNL     1       2.393   6.926  19.858  0.00  0.00    +0.000 C 
ATOM      3  O   UNL     1       2.535   7.628  18.871  0.00  0.00    +0.000 OA
ATOM      4  N   UNL     1       2.867   5.639  20.020  0.00  0.00    +0.000 N 
ATOM      5  H   UNL     1       1.981   7.060  21.843  0.00  0.00    +0.000 HD
ATOM      6  H   UNL     1       2.358   5.082  20.687  0.00  0.00    +0.000 HD
ENDROOT
BRANCH   4   7
ATOM      7  C   UNL     1       3.614   4.955  19.022  0.00  0.00    +0.000 A 
ATOM      8  C   UNL     1       5.013   5.075  18.965  0.00  0.00    +0.000 A 
ATOM      9  C   UNL     1       5.742   4.553  17.901  0.00  0.00    +0.000 A 
ATOM     10 BR   UNL     1       7.602   4.870  17.804  0.00  0.00    +0.000 Br
ATOM     11  C   UNL     1       5.083   3.846  16.911  0.00  0.00    +0.000 A 
ATOM     12  F   UNL     1       5.753   3.352  15.858  0.00  0.00    +0.000 F 
ATOM     13  C   UNL     1       3.707   3.640  16.985  0.00  0.00    +0.000 A 
ATOM     14  C   UNL     1       2.952   4.193  18.036  0.00  0.00    +0.000 A 
ATOM     15  C   UNL     1       1.460   4.004  18.021  0.00  0.00    +0.000 C 
ENDBRANCH   4   7
BRANCH   1  16
ATOM     16  C   UNL     1       1.094   8.699  20.814  0.00  0.00    +0.000 C 
BRANCH  16  17
ATOM     17  C   UNL     1      -0.059   8.963  21.771  0.00  0.00    +0.000 C 
BRANCH  17  18
ATOM     18  C   UNL     1      -0.560  10.407  21.645  0.00  0.00    +0.000 C 
BRANCH  18  19
ATOM     19  O   UNL     1       0.512  11.217  21.149  0.00  0.00    +0.000 OA
ATOM     20  H   UNL     1       1.129  11.396  21.877  0.00  0.00    +0.000 HD
ENDBRANCH  18  19
BRANCH  18  21
ATOM     21  C   UNL     1      -1.071  10.932  22.997  0.00  0.00    +0.000 C 
BRANCH  21  23
ATOM     22  C   UNL     1      -1.642  13.217  23.152  0.00  0.00    +0.000 C 
ATOM     23  O   UNL     1      -0.593  12.260  23.215  0.00  0.00    +0.000 OA
ENDBRANCH  21  23
ENDBRANCH  18  21
ENDBRANCH  17  18
ENDBRANCH  16  17
ENDBRANCH   1  16
TORSDOF 7
ENDMDL
MODEL 8
REMARK VINA RESULT:      -6.1      6.970      8.646
REMARK  Name = 
REMARK  9 active torsions:
REMARK  status: ('A' for Active; 'I' for Inactive)
REMARK    1  A    between atoms: C_1  and  O_2
REMARK    2  A    between atoms: O_2  and  C_3
REMARK    3  A    between atoms: C_3  and  C_4
REMARK    4  A    between atoms: C_4  and  O_5
REMARK    5  A    between atoms: C_4  and  C_6
REMARK    6  A    between atoms: C_6  and  C_7
REMARK    7  A    between atoms: C_7  and  N_8
REMARK    8  A    between atoms: N_11  and  C_12
REMARK    9  A    between atoms: C_19  and  C_20
REMARK                            x       y       z     vdW  Elec       q    Type
REMARK                         _______ _______ _______ _____ _____    ______ ____
ROOT
ATOM      1  N   UNL     1       8.510   7.715  18.883  0.00  0.00    +0.000 N 
ATOM      2  C   UNL     1       8.586   9.072  18.624  0.00  0.00    +0.000 C 
ATOM      3  O   UNL     1       7.968   9.570  17.698  0.00  0.00    +0.000 OA
ATOM      4  N   UNL     1       9.457   9.728  19.471  0.00  0.00    +0.000 N 
ATOM      5  H   UNL     1       8.550   7.457  19.857  0.00  0.00    +0.000 HD
ATOM      6  H   UNL     1      10.150   9.139  19.903  0.00  0.00    +0.000 HD
ENDROOT
BRANCH   4   7
ATOM      7  C   UNL     1       9.743  11.116  19.367  0.00  0.00    +0.000 A 
ATOM      8  C   UNL     1      10.364  11.638  18.219  0.00  0.00    +0.000 A 
ATOM      9  C   UNL     1      10.802  12.958  18.168  0.00  0.00    +0.000 A 
ATOM     10 BR   UNL     1      11.758  13.561  16.654  0.00  0.00    +0.000 Br
ATOM     11  C   UNL     1      10.566  13.791  19.246  0.00  0.00    +0.000 A 
ATOM     12  F   UNL     1      11.000  15.062  19.240  0.00  0.00    +0.000 F 
ATOM     13  C   UNL     1       9.880  13.324  20.365  0.00  0.00    +0.000 A 
ATOM     14  C   UNL     1       9.462  11.982  20.445  0.00  0.00    +0.000 A 
ATOM     15  C   UNL     1       8.796  11.516  21.710  0.00  0.00    +0.000 C 
ENDBRANCH   4   7
BRANCH   1  16
ATOM     16  C   UNL     1       7.631   6.963  18.002  0.00  0.00    +0.000 C 
BRANCH  16  17
ATOM     17  C   UNL     1       6.990   5.761  18.678  0.00  0.00    +0.000 C 
BRANCH  17  18
ATOM     18  C   UNL     1       6.857   4.585  17.702  0.00  0.00    +0.000 C 
BRANCH  18  19
ATOM     19  O   UNL     1       8.171   4.117  17.376  0.00  0.00    +0.000 OA
ATOM     20  H   UNL     1       8.815   4.797  17.630  0.00  0.00    +0.000 HD
ENDBRANCH  18  19
BRANCH  18  21
ATOM     21  C   UNL     1       6.089   5.004  16.438  0.00  0.00    +0.000 C 
BRANCH  21  23
ATOM     22  C   UNL     1       6.349   4.063  14.289  0.00  0.00    +0.000 C 
ATOM     23  O   UNL     1       5.859   3.864  15.608  0.00  0.00    +0.000 OA
ENDBRANCH  21  23
ENDBRANCH  18  21
ENDBRANCH  17  18
ENDBRANCH  16  17
ENDBRANCH   1  16
TORSDOF 7
ENDMDL
MODEL 9
REMARK VINA RESULT:      -6.1      4.414      5.844
REMARK  Name = 
REMARK  9 active torsions:
REMARK  status: ('A' for Active; 'I' for Inactive)
REMARK    1  A    between atoms: C_1  and  O_2
REMARK    2  A    between atoms: O_2  and  C_3
REMARK    3  A    between atoms: C_3  and  C_4
REMARK    4  A    between atoms: C_4  and  O_5
REMARK    5  A    between atoms: C_4  and  C_6
REMARK    6  A    between atoms: C_6  and  C_7
REMARK    7  A    between atoms: C_7  and  N_8
REMARK    8  A    between atoms: N_11  and  C_12
REMARK    9  A    between atoms: C_19  and  C_20
REMARK                            x       y       z     vdW  Elec       q    Type
REMARK                         _______ _______ _______ _____ _____    ______ ____
ROOT
ATOM      1  N   UNL     1       1.652   7.917  20.623  0.00  0.00    +0.000 N 
ATOM      2  C   UNL     1       2.412   7.366  19.607  0.00  0.00    +0.000 C 
ATOM      3  O   UNL     1       2.652   7.995  18.590  0.00  0.00    +0.000 OA
ATOM      4  N   UNL     1       2.782   6.061  19.865  0.00  0.00    +0.000 N 
ATOM      5  H   UNL     1       1.919   7.649  21.558  0.00  0.00    +0.000 HD
ATOM      6  H   UNL     1       2.203   5.583  20.536  0.00  0.00    +0.000 HD
ENDROOT
BRANCH   4   7
ATOM      7  C   UNL     1       3.521   5.266  18.948  0.00  0.00    +0.000 A 
ATOM      8  C   UNL     1       4.926   5.316  18.925  0.00  0.00    +0.000 A 
ATOM      9  C   UNL     1       5.658   4.678  17.927  0.00  0.00    +0.000 A 
ATOM     10 BR   UNL     1       7.532   4.901  17.865  0.00  0.00    +0.000 Br
ATOM     11  C   UNL     1       4.992   3.927  16.976  0.00  0.00    +0.000 A 
ATOM     12  F   UNL     1       5.666   3.321  15.985  0.00  0.00    +0.000 F 
ATOM     13  C   UNL     1       3.606   3.792  17.022  0.00  0.00    +0.000 A 
ATOM     14  C   UNL     1       2.850   4.461  18.004  0.00  0.00    +0.000 A 
ATOM     15  C   UNL     1       1.352   4.340  17.956  0.00  0.00    +0.000 C 
ENDBRANCH   4   7
BRANCH   1  16
ATOM     16  C   UNL     1       1.205   9.282  20.394  0.00  0.00    +0.000 C 
BRANCH  16  17
ATOM     17  C   UNL     1      -0.275   9.379  20.058  0.00  0.00    +0.000 C 
BRANCH  17  18
ATOM     18  C   UNL     1      -0.495  10.163  18.758  0.00  0.00    +0.000 C 
BRANCH  18  19
ATOM     19  O   UNL     1       0.702  10.085  17.975  0.00  0.00    +0.000 OA
ATOM     20  H   UNL     1       1.451  10.372  18.521  0.00  0.00    +0.000 HD
ENDBRANCH  18  19
BRANCH  18  21
ATOM     21  C   UNL     1      -0.867  11.625  19.054  0.00  0.00    +0.000 C 
BRANCH  21  23
ATOM     22  C   UNL     1      -2.563  11.404  17.426  0.00  0.00    +0.000 C 
ATOM     23  O   UNL     1      -1.495  12.208  17.911  0.00  0.00    +0.000 OA
ENDBRANCH  21  23
ENDBRANCH  18  21
ENDBRANCH  17  18
ENDBRANCH  16  17
ENDBRANCH   1  16
TORSDOF 7
ENDMDL
