MODEL 1
REMARK VINA RESULT:      -7.4      0.000      0.000
REMARK  Name = 
REMARK  5 active torsions:
REMARK  status: ('A' for Active; 'I' for Inactive)
REMARK    1  A    between atoms: C_1  and  N_2
REMARK    2  A    between atoms: C_5  and  C_6
REMARK    3  A    between atoms: C_8  and  N_9
REMARK    4  A    between atoms: N_18  and  C_19
REMARK    5  A    between atoms: C_19  and  C_20
REMARK                            x       y       z     vdW  Elec       q    Type
REMARK                         _______ _______ _______ _____ _____    ______ ____
ROOT
ATOM      1  N   UNL     1       1.837   7.413  19.196  0.00  0.00    +0.000 N 
ATOM      2  C   UNL     1       2.626   8.025  18.108  0.00  0.00    +0.000 C 
ATOM      3  C   UNL     1       2.008   9.353  17.677  0.00  0.00    +0.000 C 
ATOM      4  C   UNL     1       1.816  10.270  18.879  0.00  0.00    +0.000 C 
ATOM      5  C   UNL     1       0.966   9.597  19.986  0.00  0.00    +0.000 C 
ATOM      6  C   UNL     1      -0.486   9.283  19.556  0.00  0.00    +0.000 C 
ATOM      7  C   UNL     1      -1.264  10.534  19.199  0.00  0.00    +0.000 C 
ATOM      8  C   UNL     1      -1.164  11.644  20.222  0.00  0.00    +0.000 C 
ATOM      9  O   UNL     1      -2.040  12.506  20.296  0.00  0.00    +0.000 OA
ATOM     10  N   UNL     1       0.057  11.743  20.872  0.00  0.00    +0.000 N 
ATOM     11  C   UNL     1       0.863  10.560  21.188  0.00  0.00    +0.000 C 
ATOM     12  C   UNL     1       1.671   8.275  20.388  0.00  0.00    +0.000 C 
ENDROOT
BRANCH   1  20
ATOM     13  C   UNL     1       6.355   5.443  19.038  0.00  0.00    +0.000 C 
ATOM     14  N   UNL     1       5.449   4.327  19.186  0.00  0.00    +0.000 N 
ATOM     15  C   UNL     1       4.159   4.676  19.562  0.00  0.00    +0.000 A 
ATOM     16  N   UNL     1       3.506   3.790  20.314  0.00  0.00    +0.000 NA
ATOM     17  C   UNL     1       2.250   4.099  20.688  0.00  0.00    +0.000 A 
ATOM     18  C   UNL     1       1.501   3.088  21.498  0.00  0.00    +0.000 C 
ATOM     19  C   UNL     1       1.653   5.293  20.339  0.00  0.00    +0.000 A 
ATOM     20  C   UNL     1       2.403   6.164  19.575  0.00  0.00    +0.000 A 
ATOM     21  N   UNL     1       3.648   5.854  19.183  0.00  0.00    +0.000 NA
ATOM     22  H   UNL     1       5.740   3.599  19.829  0.00  0.00    +0.000 HD
ENDBRANCH   1  20
BRANCH  10  23
ATOM     23  C   UNL     1       0.525  13.065  21.258  0.00  0.00    +0.000 C 
BRANCH  23  24
ATOM     24  C   UNL     1       1.600  13.674  20.410  0.00  0.00    +0.000 A 
ATOM     25  C   UNL     1       1.446  13.804  19.026  0.00  0.00    +0.000 A 
ATOM     26  C   UNL     1       2.524  14.211  18.246  0.00  0.00    +0.000 A 
ATOM     27  C   UNL     1       3.719  14.500  18.882  0.00  0.00    +0.000 A 
ATOM     28  N   UNL     1       3.896  14.429  20.219  0.00  0.00    +0.000 NA
ATOM     29  C   UNL     1       2.833  14.020  20.950  0.00  0.00    +0.000 A 
ENDBRANCH  23  24
ENDBRANCH  10  23
TORSDOF 3
ENDMDL
MODEL 2
REMARK VINA RESULT:      -7.0      2.209      4.382
REMARK  Name = 
REMARK  5 active torsions:
REMARK  status: ('A' for Active; 'I' for Inactive)
REMARK    1  A    between atoms: C_1  and  N_2
REMARK    2  A    between atoms: C_5  and  C_6
REMARK    3  A    between atoms: C_8  and  N_9
REMARK    4  A    between atoms: N_18  and  C_19
REMARK    5  A    between atoms: C_19  and  C_20
REMARK                            x       y       z     vdW  Elec       q    Type
REMARK                         _______ _______ _______ _____ _____    ______ ____
ROOT
ATOM      1  N   UNL     1       2.162   8.090  19.153  0.00  0.00    +0.000 N 
ATOM      2  C   UNL     1       1.742   7.868  20.551  0.00  0.00    +0.000 C 
ATOM      3  C   UNL     1       1.156   9.146  21.146  0.00  0.00    +0.000 C 
ATOM      4  C   UNL     1       0.044   9.691  20.257  0.00  0.00    +0.000 C 
ATOM      5  C   UNL     1       0.533   9.929  18.806  0.00  0.00    +0.000 C 
ATOM      6  C   UNL     1       1.633  11.009  18.685  0.00  0.00    +0.000 C 
ATOM      7  C   UNL     1       1.153  12.372  19.144  0.00  0.00    +0.000 C 
ATOM      8  C   UNL     1      -0.176  12.796  18.558  0.00  0.00    +0.000 C 
ATOM      9  O   UNL     1      -0.474  13.988  18.484  0.00  0.00    +0.000 OA
ATOM     10  N   UNL     1      -1.085  11.769  18.350  0.00  0.00    +0.000 N 
ATOM     11  C   UNL     1      -0.656  10.424  17.956  0.00  0.00    +0.000 C 
ATOM     12  C   UNL     1       1.085   8.584  18.265  0.00  0.00    +0.000 C 
ENDROOT
BRANCH   1  20
ATOM     13  C   UNL     1       1.107   3.281  19.434  0.00  0.00    +0.000 C 
ATOM     14  N   UNL     1       2.478   3.352  18.984  0.00  0.00    +0.000 N 
ATOM     15  C   UNL     1       2.876   4.607  18.540  0.00  0.00    +0.000 A 
ATOM     16  N   UNL     1       3.791   4.624  17.571  0.00  0.00    +0.000 NA
ATOM     17  C   UNL     1       4.201   5.828  17.127  0.00  0.00    +0.000 A 
ATOM     18  C   UNL     1       5.257   5.850  16.067  0.00  0.00    +0.000 C 
ATOM     19  C   UNL     1       3.686   7.008  17.624  0.00  0.00    +0.000 A 
ATOM     20  C   UNL     1       2.730   6.903  18.613  0.00  0.00    +0.000 A 
ATOM     21  N   UNL     1       2.331   5.707  19.073  0.00  0.00    +0.000 NA
ATOM     22  H   UNL     1       2.742   2.702  18.253  0.00  0.00    +0.000 HD
ENDBRANCH   1  20
BRANCH  10  23
ATOM     23  C   UNL     1      -2.501  12.061  18.514  0.00  0.00    +0.000 C 
BRANCH  23  24
ATOM     24  C   UNL     1      -2.965  12.388  19.900  0.00  0.00    +0.000 A 
ATOM     25  C   UNL     1      -2.109  12.272  20.999  0.00  0.00    +0.000 A 
ATOM     26  C   UNL     1      -2.614  12.414  22.288  0.00  0.00    +0.000 A 
ATOM     27  C   UNL     1      -3.962  12.694  22.434  0.00  0.00    +0.000 A 
ATOM     28  N   UNL     1      -4.813  12.858  21.398  0.00  0.00    +0.000 NA
ATOM     29  C   UNL     1      -4.294  12.703  20.158  0.00  0.00    +0.000 A 
ENDBRANCH  23  24
ENDBRANCH  10  23
TORSDOF 3
ENDMDL
MODEL 3
REMARK VINA RESULT:      -7.0      2.386      4.025
REMARK  Name = 
REMARK  5 active torsions:
REMARK  status: ('A' for Active; 'I' for Inactive)
REMARK    1  A    between atoms: C_1  and  N_2
REMARK    2  A    between atoms: C_5  and  C_6
REMARK    3  A    between atoms: C_8  and  N_9
REMARK    4  A    between atoms: N_18  and  C_19
REMARK    5  A    between atoms: C_19  and  C_20
REMARK                            x       y       z     vdW  Elec       q    Type
REMARK                         _______ _______ _______ _____ _____    ______ ____
ROOT
ATOM      1  N   UNL     1       2.253   8.093  18.928  0.00  0.00    +0.000 N 
ATOM      2  C   UNL     1       1.870   7.813  20.327  0.00  0.00    +0.000 C 
ATOM      3  C   UNL     1       1.292   9.062  20.987  0.00  0.00    +0.000 C 
ATOM      4  C   UNL     1       0.155   9.634  20.148  0.00  0.00    +0.000 C 
ATOM      5  C   UNL     1       0.605   9.933  18.696  0.00  0.00    +0.000 C 
ATOM      6  C   UNL     1       1.695  11.024  18.590  0.00  0.00    +0.000 C 
ATOM      7  C   UNL     1       1.219  12.365  19.114  0.00  0.00    +0.000 C 
ATOM      8  C   UNL     1      -0.127  12.802  18.579  0.00  0.00    +0.000 C 
ATOM      9  O   UNL     1      -0.434  13.994  18.560  0.00  0.00    +0.000 OA
ATOM     10  N   UNL     1      -1.035  11.779  18.354  0.00  0.00    +0.000 N 
ATOM     11  C   UNL     1      -0.608  10.453  17.896  0.00  0.00    +0.000 C 
ATOM     12  C   UNL     1       1.151   8.614  18.089  0.00  0.00    +0.000 C 
ENDROOT
BRANCH   1  20
ATOM     13  C   UNL     1       6.693   6.887  17.153  0.00  0.00    +0.000 C 
ATOM     14  N   UNL     1       5.772   5.931  16.581  0.00  0.00    +0.000 N 
ATOM     15  C   UNL     1       4.524   5.895  17.189  0.00  0.00    +0.000 A 
ATOM     16  N   UNL     1       3.909   4.713  17.197  0.00  0.00    +0.000 NA
ATOM     17  C   UNL     1       2.694   4.650  17.774  0.00  0.00    +0.000 A 
ATOM     18  C   UNL     1       1.983   3.333  17.749  0.00  0.00    +0.000 C 
ATOM     19  C   UNL     1       2.103   5.750  18.363  0.00  0.00    +0.000 A 
ATOM     20  C   UNL     1       2.814   6.932  18.328  0.00  0.00    +0.000 A 
ATOM     21  N   UNL     1       4.017   7.005  17.738  0.00  0.00    +0.000 NA
ATOM     22  H   UNL     1       6.093   4.970  16.545  0.00  0.00    +0.000 HD
ENDBRANCH   1  20
BRANCH  10  23
ATOM     23  C   UNL     1      -2.447  12.054  18.565  0.00  0.00    +0.000 C 
BRANCH  23  24
ATOM     24  C   UNL     1      -2.871  12.367  19.967  0.00  0.00    +0.000 A 
ATOM     25  C   UNL     1      -2.002  12.181  21.046  0.00  0.00    +0.000 A 
ATOM     26  C   UNL     1      -2.477  12.313  22.348  0.00  0.00    +0.000 A 
ATOM     27  C   UNL     1      -3.807  12.653  22.527  0.00  0.00    +0.000 A 
ATOM     28  N   UNL     1      -4.667  12.884  21.511  0.00  0.00    +0.000 NA
ATOM     29  C   UNL     1      -4.179  12.737  20.258  0.00  0.00    +0.000 A 
ENDBRANCH  23  24
ENDBRANCH  10  23
TORSDOF 3
ENDMDL
MODEL 4
REMARK VINA RESULT:      -7.0      2.294      4.562
REMARK  Name = 
REMARK  5 active torsions:
REMARK  status: ('A' for Active; 'I' for Inactive)
REMARK    1  A    between atoms: C_1  and  N_2
REMARK    2  A    between atoms: C_5  and  C_6
REMARK    3  A    between atoms: C_8  and  N_9
REMARK    4  A    between atoms: N_18  and  C_19
REMARK    5  A    between atoms: C_19  and  C_20
REMARK                            x       y       z     vdW  Elec       q    Type
REMARK                         _______ _______ _______ _____ _____    ______ ____
ROOT
ATOM      1  N   UNL     1       1.872   8.502  19.831  0.00  0.00    +0.000 N 
ATOM      2  C   UNL     1       1.513   8.189  21.229  0.00  0.00    +0.000 C 
ATOM      3  C   UNL     1       0.939   9.419  21.926  0.00  0.00    +0.000 C 
ATOM      4  C   UNL     1      -0.214  10.003  21.119  0.00  0.00    +0.000 C 
ATOM      5  C   UNL     1       0.211  10.337  19.667  0.00  0.00    +0.000 C 
ATOM      6  C   UNL     1       1.293  11.437  19.568  0.00  0.00    +0.000 C 
ATOM      7  C   UNL     1       0.818  12.763  20.130  0.00  0.00    +0.000 C 
ATOM      8  C   UNL     1      -0.539  13.204  19.627  0.00  0.00    +0.000 C 
ATOM      9  O   UNL     1      -0.853  14.394  19.639  0.00  0.00    +0.000 OA
ATOM     10  N   UNL     1      -1.445  12.180  19.393  0.00  0.00    +0.000 N 
ATOM     11  C   UNL     1      -1.018  10.868  18.899  0.00  0.00    +0.000 C 
ATOM     12  C   UNL     1       0.754   9.035  19.021  0.00  0.00    +0.000 C 
ENDROOT
BRANCH   1  20
ATOM     13  C   UNL     1       0.997   3.652  19.992  0.00  0.00    +0.000 C 
ATOM     14  N   UNL     1       2.323   3.789  19.433  0.00  0.00    +0.000 N 
ATOM     15  C   UNL     1       2.642   5.074  19.013  0.00  0.00    +0.000 A 
ATOM     16  N   UNL     1       3.471   5.162  17.973  0.00  0.00    +0.000 NA
ATOM     17  C   UNL     1       3.803   6.396  17.548  0.00  0.00    +0.000 A 
ATOM     18  C   UNL     1       4.765   6.498  16.406  0.00  0.00    +0.000 C 
ATOM     19  C   UNL     1       3.296   7.536  18.136  0.00  0.00    +0.000 A 
ATOM     20  C   UNL     1       2.430   7.358  19.195  0.00  0.00    +0.000 A 
ATOM     21  N   UNL     1       2.110   6.132  19.636  0.00  0.00    +0.000 NA
ATOM     22  H   UNL     1       2.544   3.178  18.656  0.00  0.00    +0.000 HD
ENDBRANCH   1  20
BRANCH  10  23
ATOM     23  C   UNL     1      -2.856  12.442  19.632  0.00  0.00    +0.000 C 
BRANCH  23  24
ATOM     24  C   UNL     1      -3.284  12.570  21.062  0.00  0.00    +0.000 A 
ATOM     25  C   UNL     1      -2.373  12.406  22.110  0.00  0.00    +0.000 A 
ATOM     26  C   UNL     1      -2.831  12.358  23.424  0.00  0.00    +0.000 A 
ATOM     27  C   UNL     1      -4.190  12.503  23.648  0.00  0.00    +0.000 A 
ATOM     28  N   UNL     1      -5.096  12.707  22.667  0.00  0.00    +0.000 NA
ATOM     29  C   UNL     1      -4.622  12.738  21.400  0.00  0.00    +0.000 A 
ENDBRANCH  23  24
ENDBRANCH  10  23
TORSDOF 3
ENDMDL
MODEL 5
REMARK VINA RESULT:      -6.9      2.983      7.980
REMARK  Name = 
REMARK  5 active torsions:
REMARK  status: ('A' for Active; 'I' for Inactive)
REMARK    1  A    between atoms: C_1  and  N_2
REMARK    2  A    between atoms: C_5  and  C_6
REMARK    3  A    between atoms: C_8  and  N_9
REMARK    4  A    between atoms: N_18  and  C_19
REMARK    5  A    between atoms: C_19  and  C_20
REMARK                            x       y       z     vdW  Elec       q    Type
REMARK                         _______ _______ _______ _____ _____    ______ ____
ROOT
ATOM      1  N   UNL     1       1.118   8.739  19.000  0.00  0.00    +0.000 N 
ATOM      2  C   UNL     1       1.375   8.526  20.439  0.00  0.00    +0.000 C 
ATOM      3  C   UNL     1       1.696   7.060  20.717  0.00  0.00    +0.000 C 
ATOM      4  C   UNL     1       2.830   6.580  19.820  0.00  0.00    +0.000 C 
ATOM      5  C   UNL     1       2.510   6.802  18.320  0.00  0.00    +0.000 C 
ATOM      6  C   UNL     1       1.299   5.987  17.811  0.00  0.00    +0.000 C 
ATOM      7  C   UNL     1       1.522   4.492  17.926  0.00  0.00    +0.000 C 
ATOM      8  C   UNL     1       2.846   4.014  17.372  0.00  0.00    +0.000 C 
ATOM      9  O   UNL     1       2.985   2.847  17.006  0.00  0.00    +0.000 OA
ATOM     10  N   UNL     1       3.907   4.893  17.534  0.00  0.00    +0.000 N 
ATOM     11  C   UNL     1       3.722   6.346  17.481  0.00  0.00    +0.000 C 
ATOM     12  C   UNL     1       2.225   8.313  18.115  0.00  0.00    +0.000 C 
ENDROOT
BRANCH   1  20
ATOM     13  C   UNL     1      -3.063  11.257  18.296  0.00  0.00    +0.000 C 
ATOM     14  N   UNL     1      -2.010  12.100  17.779  0.00  0.00    +0.000 N 
ATOM     15  C   UNL     1      -0.728  11.722  18.157  0.00  0.00    +0.000 A 
ATOM     16  N   UNL     1       0.158  12.708  18.297  0.00  0.00    +0.000 NA
ATOM     17  C   UNL     1       1.411  12.369  18.657  0.00  0.00    +0.000 A 
ATOM     18  C   UNL     1       2.417  13.470  18.776  0.00  0.00    +0.000 C 
ATOM     19  C   UNL     1       1.776  11.061  18.901  0.00  0.00    +0.000 A 
ATOM     20  C   UNL     1       0.795  10.102  18.752  0.00  0.00    +0.000 A 
ATOM     21  N   UNL     1      -0.450  10.431  18.375  0.00  0.00    +0.000 NA
ATOM     22  H   UNL     1      -2.084  13.088  17.993  0.00  0.00    +0.000 HD
ENDBRANCH   1  20
BRANCH  10  23
ATOM     23  C   UNL     1       5.235   4.336  17.741  0.00  0.00    +0.000 C 
BRANCH  23  24
ATOM     24  C   UNL     1       6.366   5.313  17.842  0.00  0.00    +0.000 A 
ATOM     25  C   UNL     1       7.028   5.535  19.053  0.00  0.00    +0.000 A 
ATOM     26  C   UNL     1       7.954   6.569  19.156  0.00  0.00    +0.000 A 
ATOM     27  C   UNL     1       8.208   7.333  18.030  0.00  0.00    +0.000 A 
ATOM     28  N   UNL     1       7.624   7.122  16.831  0.00  0.00    +0.000 NA
ATOM     29  C   UNL     1       6.720   6.118  16.765  0.00  0.00    +0.000 A 
ENDBRANCH  23  24
ENDBRANCH  10  23
TORSDOF 3
ENDMDL
MODEL 6
REMARK VINA RESULT:      -6.9      3.479      8.370
REMARK  Name = 
REMARK  5 active torsions:
REMARK  status: ('A' for Active; 'I' for Inactive)
REMARK    1  A    between atoms: C_1  and  N_2
REMARK    2  A    between atoms: C_5  and  C_6
REMARK    3  A    between atoms: C_8  and  N_9
REMARK    4  A    between atoms: N_18  and  C_19
REMARK    5  A    between atoms: C_19  and  C_20
REMARK                            x       y       z     vdW  Elec       q    Type
REMARK                         _______ _______ _______ _____ _____    ______ ____
ROOT
ATOM      1  N   UNL     1       1.026   8.583  19.412  0.00  0.00    +0.000 N 
ATOM      2  C   UNL     1       1.543   8.341  20.774  0.00  0.00    +0.000 C 
ATOM      3  C   UNL     1       2.008   6.895  20.925  0.00  0.00    +0.000 C 
ATOM      4  C   UNL     1       3.000   6.533  19.825  0.00  0.00    +0.000 C 
ATOM      5  C   UNL     1       2.410   6.781  18.414  0.00  0.00    +0.000 C 
ATOM      6  C   UNL     1       1.188   5.895  18.082  0.00  0.00    +0.000 C 
ATOM      7  C   UNL     1       1.531   4.418  18.087  0.00  0.00    +0.000 C 
ATOM      8  C   UNL     1       2.769   4.061  17.293  0.00  0.00    +0.000 C 
ATOM      9  O   UNL     1       2.922   2.922  16.854  0.00  0.00    +0.000 OA
ATOM     10  N   UNL     1       3.778   5.012  17.312  0.00  0.00    +0.000 N 
ATOM     11  C   UNL     1       3.487   6.448  17.360  0.00  0.00    +0.000 C 
ATOM     12  C   UNL     1       1.990   8.273  18.332  0.00  0.00    +0.000 C 
ENDROOT
BRANCH   1  20
ATOM     13  C   UNL     1      -2.483  10.841  16.786  0.00  0.00    +0.000 C 
ATOM     14  N   UNL     1      -1.576  11.886  17.202  0.00  0.00    +0.000 N 
ATOM     15  C   UNL     1      -0.692  11.517  18.207  0.00  0.00    +0.000 A 
ATOM     16  N   UNL     1      -0.325  12.482  19.050  0.00  0.00    +0.000 NA
ATOM     17  C   UNL     1       0.538  12.154  20.031  0.00  0.00    +0.000 A 
ATOM     18  C   UNL     1       0.982  13.245  20.954  0.00  0.00    +0.000 C 
ATOM     19  C   UNL     1       1.014  10.869  20.189  0.00  0.00    +0.000 A 
ATOM     20  C   UNL     1       0.571   9.925  19.286  0.00  0.00    +0.000 A 
ATOM     21  N   UNL     1      -0.273  10.249  18.295  0.00  0.00    +0.000 NA
ATOM     22  H   UNL     1      -2.004  12.752  17.511  0.00  0.00    +0.000 HD
ENDBRANCH   1  20
BRANCH  10  23
ATOM     23  C   UNL     1       5.157   4.552  17.264  0.00  0.00    +0.000 C 
BRANCH  23  24
ATOM     24  C   UNL     1       5.870   4.695  15.955  0.00  0.00    +0.000 A 
ATOM     25  C   UNL     1       5.498   3.938  14.840  0.00  0.00    +0.000 A 
ATOM     26  C   UNL     1       6.284   3.964  13.692  0.00  0.00    +0.000 A 
ATOM     27  C   UNL     1       7.410   4.770  13.689  0.00  0.00    +0.000 A 
ATOM     28  N   UNL     1       7.779   5.550  14.729  0.00  0.00    +0.000 NA
ATOM     29  C   UNL     1       7.000   5.494  15.834  0.00  0.00    +0.000 A 
ENDBRANCH  23  24
ENDBRANCH  10  23
TORSDOF 3
ENDMDL
MODEL 7
REMARK VINA RESULT:      -6.8      2.356      4.233
REMARK  Name = 
REMARK  5 active torsions:
REMARK  status: ('A' for Active; 'I' for Inactive)
REMARK    1  A    between atoms: C_1  and  N_2
REMARK    2  A    between atoms: C_5  and  C_6
REMARK    3  A    between atoms: C_8  and  N_9
REMARK    4  A    between atoms: N_18  and  C_19
REMARK    5  A    between atoms: C_19  and  C_20
REMARK                            x       y       z     vdW  Elec       q    Type
REMARK                         _______ _______ _______ _____ _____    ______ ____
ROOT
ATOM      1  N   UNL     1       1.465   8.585  20.533  0.00  0.00    +0.000 N 
ATOM      2  C   UNL     1       1.146   8.535  21.974  0.00  0.00    +0.000 C 
ATOM      3  C   UNL     1       0.716   9.910  22.478  0.00  0.00    +0.000 C 
ATOM      4  C   UNL     1      -0.418  10.464  21.623  0.00  0.00    +0.000 C 
ATOM      5  C   UNL     1      -0.033  10.519  20.123  0.00  0.00    +0.000 C 
ATOM      6  C   UNL     1       1.136  11.482  19.811  0.00  0.00    +0.000 C 
ATOM      7  C   UNL     1       0.807  12.920  20.163  0.00  0.00    +0.000 C 
ATOM      8  C   UNL     1      -0.528  13.401  19.638  0.00  0.00    +0.000 C 
ATOM      9  O   UNL     1      -0.734  14.602  19.465  0.00  0.00    +0.000 OA
ATOM     10  N   UNL     1      -1.531  12.444  19.604  0.00  0.00    +0.000 N 
ATOM     11  C   UNL     1      -1.245  11.034  19.318  0.00  0.00    +0.000 C 
ATOM     12  C   UNL     1       0.361   9.085  19.682  0.00  0.00    +0.000 C 
ENDROOT
BRANCH   1  20
ATOM     13  C   UNL     1       4.680   6.982  17.155  0.00  0.00    +0.000 C 
ATOM     14  N   UNL     1       3.804   5.863  17.419  0.00  0.00    +0.000 N 
ATOM     15  C   UNL     1       3.024   5.997  18.560  0.00  0.00    +0.000 A 
ATOM     16  N   UNL     1       2.727   4.869  19.204  0.00  0.00    +0.000 NA
ATOM     17  C   UNL     1       1.966   4.969  20.311  0.00  0.00    +0.000 A 
ATOM     18  C   UNL     1       1.598   3.700  21.013  0.00  0.00    +0.000 C 
ATOM     19  C   UNL     1       1.522   6.185  20.790  0.00  0.00    +0.000 A 
ATOM     20  C   UNL     1       1.889   7.306  20.075  0.00  0.00    +0.000 A 
ATOM     21  N   UNL     1       2.631   7.213  18.962  0.00  0.00    +0.000 NA
ATOM     22  H   UNL     1       4.248   4.955  17.490  0.00  0.00    +0.000 HD
ENDBRANCH   1  20
BRANCH  10  23
ATOM     23  C   UNL     1      -2.900  12.873  19.842  0.00  0.00    +0.000 C 
BRANCH  23  24
ATOM     24  C   UNL     1      -3.348  12.935  21.270  0.00  0.00    +0.000 A 
ATOM     25  C   UNL     1      -2.440  13.171  22.306  0.00  0.00    +0.000 A 
ATOM     26  C   UNL     1      -2.853  13.050  23.630  0.00  0.00    +0.000 A 
ATOM     27  C   UNL     1      -4.176  12.720  23.873  0.00  0.00    +0.000 A 
ATOM     28  N   UNL     1      -5.094  12.527  22.902  0.00  0.00    +0.000 NA
ATOM     29  C   UNL     1      -4.659  12.640  21.626  0.00  0.00    +0.000 A 
ENDBRANCH  23  24
ENDBRANCH  10  23
TORSDOF 3
ENDMDL
MODEL 8
REMARK VINA RESULT:      -6.7      3.473      8.389
REMARK  Name = 
REMARK  5 active torsions:
REMARK  status: ('A' for Active; 'I' for Inactive)
REMARK    1  A    between atoms: C_1  and  N_2
REMARK    2  A    between atoms: C_5  and  C_6
REMARK    3  A    between atoms: C_8  and  N_9
REMARK    4  A    between atoms: N_18  and  C_19
REMARK    5  A    between atoms: C_19  and  C_20
REMARK                            x       y       z     vdW  Elec       q    Type
REMARK                         _______ _______ _______ _____ _____    ______ ____
ROOT
ATOM      1  N   UNL     1       1.312   7.971  19.839  0.00  0.00    +0.000 N 
ATOM      2  C   UNL     1       1.832   7.509  21.142  0.00  0.00    +0.000 C 
ATOM      3  C   UNL     1       2.201   6.030  21.080  0.00  0.00    +0.000 C 
ATOM      4  C   UNL     1       3.150   5.762  19.917  0.00  0.00    +0.000 C 
ATOM      5  C   UNL     1       2.557   6.241  18.568  0.00  0.00    +0.000 C 
ATOM      6  C   UNL     1       1.273   5.490  18.147  0.00  0.00    +0.000 C 
ATOM      7  C   UNL     1       1.516   4.007  17.940  0.00  0.00    +0.000 C 
ATOM      8  C   UNL     1       2.715   3.686  17.075  0.00  0.00    +0.000 C 
ATOM      9  O   UNL     1       2.785   2.611  16.479  0.00  0.00    +0.000 OA
ATOM     10  N   UNL     1       3.786   4.558  17.200  0.00  0.00    +0.000 N 
ATOM     11  C   UNL     1       3.592   5.990  17.452  0.00  0.00    +0.000 C 
ATOM     12  C   UNL     1       2.236   7.753  18.703  0.00  0.00    +0.000 C 
ENDROOT
BRANCH   1  20
ATOM     13  C   UNL     1      -1.160  10.754  23.073  0.00  0.00    +0.000 C 
ATOM     14  N   UNL     1      -1.162  11.501  21.836  0.00  0.00    +0.000 N 
ATOM     15  C   UNL     1      -0.258  11.046  20.884  0.00  0.00    +0.000 A 
ATOM     16  N   UNL     1       0.256  11.970  20.074  0.00  0.00    +0.000 NA
ATOM     17  C   UNL     1       1.131  11.556  19.137  0.00  0.00    +0.000 A 
ATOM     18  C   UNL     1       1.679  12.586  18.200  0.00  0.00    +0.000 C 
ATOM     19  C   UNL     1       1.511  10.234  19.021  0.00  0.00    +0.000 A 
ATOM     20  C   UNL     1       0.946   9.344  19.910  0.00  0.00    +0.000 A 
ATOM     21  N   UNL     1       0.060   9.747  20.834  0.00  0.00    +0.000 NA
ATOM     22  H   UNL     1      -1.002  12.499  21.917  0.00  0.00    +0.000 HD
ENDBRANCH   1  20
BRANCH  10  23
ATOM     23  C   UNL     1       5.130   4.022  17.056  0.00  0.00    +0.000 C 
BRANCH  23  24
ATOM     24  C   UNL     1       5.868   4.382  15.803  0.00  0.00    +0.000 A 
ATOM     25  C   UNL     1       5.556   3.782  14.579  0.00  0.00    +0.000 A 
ATOM     26  C   UNL     1       6.369   4.006  13.472  0.00  0.00    +0.000 A 
ATOM     27  C   UNL     1       7.459   4.847  13.620  0.00  0.00    +0.000 A 
ATOM     28  N   UNL     1       7.768   5.480  14.773  0.00  0.00    +0.000 NA
ATOM     29  C   UNL     1       6.966   5.234  15.834  0.00  0.00    +0.000 A 
ENDBRANCH  23  24
ENDBRANCH  10  23
TORSDOF 3
ENDMDL
MODEL 9
REMARK VINA RESULT:      -6.7      4.137      7.511
REMARK  Name = 
REMARK  5 active torsions:
REMARK  status: ('A' for Active; 'I' for Inactive)
REMARK    1  A    between atoms: C_1  and  N_2
REMARK    2  A    between atoms: C_5  and  C_6
REMARK    3  A    between atoms: C_8  and  N_9
REMARK    4  A    between atoms: N_18  and  C_19
REMARK    5  A    between atoms: C_19  and  C_20
REMARK                            x       y       z     vdW  Elec       q    Type
REMARK                         _______ _______ _______ _____ _____    ______ ____
ROOT
ATOM      1  N   UNL     1      -0.075  12.106  21.273  0.00  0.00    +0.000 N 
ATOM      2  C   UNL     1      -0.672  10.874  21.828  0.00  0.00    +0.000 C 
ATOM      3  C   UNL     1      -1.500  11.189  23.071  0.00  0.00    +0.000 C 
ATOM      4  C   UNL     1      -2.522  12.279  22.772  0.00  0.00    +0.000 C 
ATOM      5  C   UNL     1      -1.851  13.560  22.214  0.00  0.00    +0.000 C 
ATOM      6  C   UNL     1      -0.892  14.250  23.211  0.00  0.00    +0.000 C 
ATOM      7  C   UNL     1      -1.606  14.720  24.464  0.00  0.00    +0.000 C 
ATOM      8  C   UNL     1      -2.873  15.505  24.202  0.00  0.00    +0.000 C 
ATOM      9  O   UNL     1      -3.305  16.291  25.045  0.00  0.00    +0.000 OA
ATOM     10  N   UNL     1      -3.601  15.102  23.094  0.00  0.00    +0.000 N 
ATOM     11  C   UNL     1      -2.949  14.593  21.883  0.00  0.00    +0.000 C 
ATOM     12  C   UNL     1      -1.057  13.162  20.942  0.00  0.00    +0.000 C 
ENDROOT
BRANCH   1  20
ATOM     13  C   UNL     1       3.442  14.459  18.741  0.00  0.00    +0.000 C 
ATOM     14  N   UNL     1       2.952  13.425  17.857  0.00  0.00    +0.000 N 
ATOM     15  C   UNL     1       2.181  12.452  18.479  0.00  0.00    +0.000 A 
ATOM     16  N   UNL     1       2.250  11.227  17.959  0.00  0.00    +0.000 NA
ATOM     17  C   UNL     1       1.506  10.264  18.537  0.00  0.00    +0.000 A 
ATOM     18  C   UNL     1       1.552   8.897  17.930  0.00  0.00    +0.000 C 
ATOM     19  C   UNL     1       0.717  10.511  19.642  0.00  0.00    +0.000 A 
ATOM     20  C   UNL     1       0.716  11.801  20.130  0.00  0.00    +0.000 A 
ATOM     21  N   UNL     1       1.439  12.769  19.547  0.00  0.00    +0.000 NA
ATOM     22  H   UNL     1       3.654  12.925  17.324  0.00  0.00    +0.000 HD
ENDBRANCH   1  20
BRANCH  10  23
ATOM     23  C   UNL     1      -5.050  15.213  23.146  0.00  0.00    +0.000 C 
BRANCH  23  24
ATOM     24  C   UNL     1      -5.834  13.992  22.772  0.00  0.00    +0.000 A 
ATOM     25  C   UNL     1      -6.386  13.846  21.496  0.00  0.00    +0.000 A 
ATOM     26  C   UNL     1      -7.251  12.788  21.232  0.00  0.00    +0.000 A 
ATOM     27  C   UNL     1      -7.516  11.891  22.253  0.00  0.00    +0.000 A 
ATOM     28  N   UNL     1      -6.968  11.971  23.486  0.00  0.00    +0.000 NA
ATOM     29  C   UNL     1      -6.141  13.017  23.714  0.00  0.00    +0.000 A 
ENDBRANCH  23  24
ENDBRANCH  10  23
TORSDOF 3
ENDMDL
