MODEL 1
REMARK VINA RESULT:      -6.7      0.000      0.000
REMARK  Name = 
REMARK  4 active torsions:
REMARK  status: ('A' for Active; 'I' for Inactive)
REMARK    1  A    between atoms: C_1  and  C_2
REMARK    2  A    between atoms: C_7  and  C_8
REMARK    3  A    between atoms: C_10  and  C_11
REMARK    4  A    between atoms: N_12  and  C_13
REMARK                            x       y       z     vdW  Elec       q    Type
REMARK                         _______ _______ _______ _____ _____    ______ ____
ROOT
ATOM      1  C   UNL     1       8.473   6.726  19.292  0.00  0.00    +0.000 C 
ATOM      2  C   UNL     1       7.377   5.974  18.626  0.00  0.00    +0.000 A 
ATOM      3  C   UNL     1       6.235   5.397  19.219  0.00  0.00    +0.000 A 
ATOM      4  C   UNL     1       5.523   4.837  18.175  0.00  0.00    +0.000 A 
ATOM      5  N   UNL     1       6.313   5.016  17.037  0.00  0.00    +0.000 N 
ATOM      6  N   UNL     1       7.401   5.766  17.307  0.00  0.00    +0.000 NA
ATOM      7  C   UNL     1       5.946   4.422  15.827  0.00  0.00    +0.000 A 
ATOM      8  C   UNL     1       6.809   4.611  14.612  0.00  0.00    +0.000 C 
ATOM      9  C   UNL     1       4.836   3.667  15.782  0.00  0.00    +0.000 A 
ATOM     10  C   UNL     1       3.973   3.552  17.014  0.00  0.00    +0.000 A 
ATOM     11  C   UNL     1       2.635   2.878  16.777  0.00  0.00    +0.000 C 
ATOM     12  N   UNL     1       4.272   4.111  18.163  0.00  0.00    +0.000 N 
ENDROOT
BRANCH  12  13
ATOM     13  C   UNL     1       3.531   3.887  19.376  0.00  0.00    +0.000 A 
ATOM     14  C   UNL     1       3.684   2.725  20.151  0.00  0.00    +0.000 A 
ATOM     15  C   UNL     1       2.929   2.525  21.311  0.00  0.00    +0.000 A 
ATOM     16  C   UNL     1       2.037   3.500  21.744  0.00  0.00    +0.000 A 
ATOM     17  C   UNL     1       1.892   4.674  21.014  0.00  0.00    +0.000 A 
ATOM     18  C   UNL     1       2.623   4.861  19.835  0.00  0.00    +0.000 A 
ENDBRANCH  12  13
TORSDOF 1
ENDMDL
MODEL 2
REMARK VINA RESULT:      -6.6      0.496      1.237
REMARK  Name = 
REMARK  4 active torsions:
REMARK  status: ('A' for Active; 'I' for Inactive)
REMARK    1  A    between atoms: C_1  and  C_2
REMARK    2  A    between atoms: C_7  and  C_8
REMARK    3  A    between atoms: C_10  and  C_11
REMARK    4  A    between atoms: N_12  and  C_13
REMARK                            x       y       z     vdW  Elec       q    Type
REMARK                         _______ _______ _______ _____ _____    ______ ____
ROOT
ATOM      1  C   UNL     1       8.339   7.390  18.678  0.00  0.00    +0.000 C 
ATOM      2  C   UNL     1       7.298   6.496  18.106  0.00  0.00    +0.000 A 
ATOM      3  C   UNL     1       6.214   5.888  18.772  0.00  0.00    +0.000 A 
ATOM      4  C   UNL     1       5.536   5.180  17.798  0.00  0.00    +0.000 A 
ATOM      5  N   UNL     1       6.295   5.315  16.632  0.00  0.00    +0.000 N 
ATOM      6  N   UNL     1       7.322   6.170  16.811  0.00  0.00    +0.000 NA
ATOM      7  C   UNL     1       5.961   4.584  15.489  0.00  0.00    +0.000 A 
ATOM      8  C   UNL     1       6.790   4.729  14.245  0.00  0.00    +0.000 C 
ATOM      9  C   UNL     1       4.915   3.743  15.536  0.00  0.00    +0.000 A 
ATOM     10  C   UNL     1       4.080   3.675  16.790  0.00  0.00    +0.000 A 
ATOM     11  C   UNL     1       2.797   2.878  16.642  0.00  0.00    +0.000 C 
ATOM     12  N   UNL     1       4.348   4.359  17.877  0.00  0.00    +0.000 N 
ENDROOT
BRANCH  12  13
ATOM     13  C   UNL     1       3.643   4.190  19.121  0.00  0.00    +0.000 A 
ATOM     14  C   UNL     1       2.759   5.158  19.625  0.00  0.00    +0.000 A 
ATOM     15  C   UNL     1       2.109   4.976  20.850  0.00  0.00    +0.000 A 
ATOM     16  C   UNL     1       2.296   3.805  21.575  0.00  0.00    +0.000 A 
ATOM     17  C   UNL     1       3.139   2.816  21.082  0.00  0.00    +0.000 A 
ATOM     18  C   UNL     1       3.816   3.011  19.872  0.00  0.00    +0.000 A 
ENDBRANCH  12  13
TORSDOF 1
ENDMDL
MODEL 3
REMARK VINA RESULT:      -6.5      1.895      5.370
REMARK  Name = 
REMARK  4 active torsions:
REMARK  status: ('A' for Active; 'I' for Inactive)
REMARK    1  A    between atoms: C_1  and  C_2
REMARK    2  A    between atoms: C_7  and  C_8
REMARK    3  A    between atoms: C_10  and  C_11
REMARK    4  A    between atoms: N_12  and  C_13
REMARK                            x       y       z     vdW  Elec       q    Type
REMARK                         _______ _______ _______ _____ _____    ______ ____
ROOT
ATOM      1  C   UNL     1       1.920   8.024  20.215  0.00  0.00    +0.000 C 
ATOM      2  C   UNL     1       2.318   6.622  19.925  0.00  0.00    +0.000 A 
ATOM      3  C   UNL     1       3.233   6.162  18.955  0.00  0.00    +0.000 A 
ATOM      4  C   UNL     1       3.266   4.789  19.103  0.00  0.00    +0.000 A 
ATOM      5  N   UNL     1       2.306   4.488  20.074  0.00  0.00    +0.000 N 
ATOM      6  N   UNL     1       1.787   5.609  20.614  0.00  0.00    +0.000 NA
ATOM      7  C   UNL     1       1.979   3.158  20.349  0.00  0.00    +0.000 A 
ATOM      8  C   UNL     1       0.938   2.847  21.386  0.00  0.00    +0.000 C 
ATOM      9  C   UNL     1       2.587   2.181  19.657  0.00  0.00    +0.000 A 
ATOM     10  C   UNL     1       3.665   2.541  18.665  0.00  0.00    +0.000 A 
ATOM     11  C   UNL     1       4.439   1.352  18.127  0.00  0.00    +0.000 C 
ATOM     12  N   UNL     1       4.016   3.776  18.393  0.00  0.00    +0.000 N 
ENDROOT
BRANCH  12  13
ATOM     13  C   UNL     1       4.939   4.131  17.347  0.00  0.00    +0.000 A 
ATOM     14  C   UNL     1       4.564   4.180  15.994  0.00  0.00    +0.000 A 
ATOM     15  C   UNL     1       5.492   4.502  14.999  0.00  0.00    +0.000 A 
ATOM     16  C   UNL     1       6.801   4.825  15.338  0.00  0.00    +0.000 A 
ATOM     17  C   UNL     1       7.188   4.817  16.673  0.00  0.00    +0.000 A 
ATOM     18  C   UNL     1       6.269   4.463  17.668  0.00  0.00    +0.000 A 
ENDBRANCH  12  13
TORSDOF 1
ENDMDL
MODEL 4
REMARK VINA RESULT:      -6.4      1.919      5.321
REMARK  Name = 
REMARK  4 active torsions:
REMARK  status: ('A' for Active; 'I' for Inactive)
REMARK    1  A    between atoms: C_1  and  C_2
REMARK    2  A    between atoms: C_7  and  C_8
REMARK    3  A    between atoms: C_10  and  C_11
REMARK    4  A    between atoms: N_12  and  C_13
REMARK                            x       y       z     vdW  Elec       q    Type
REMARK                         _______ _______ _______ _____ _____    ______ ____
ROOT
ATOM      1  C   UNL     1       1.987   8.090  19.997  0.00  0.00    +0.000 C 
ATOM      2  C   UNL     1       2.371   6.679  19.730  0.00  0.00    +0.000 A 
ATOM      3  C   UNL     1       3.299   6.196  18.785  0.00  0.00    +0.000 A 
ATOM      4  C   UNL     1       3.309   4.824  18.949  0.00  0.00    +0.000 A 
ATOM      5  N   UNL     1       2.326   4.547  19.902  0.00  0.00    +0.000 N 
ATOM      6  N   UNL     1       1.811   5.682  20.419  0.00  0.00    +0.000 NA
ATOM      7  C   UNL     1       1.973   3.225  20.184  0.00  0.00    +0.000 A 
ATOM      8  C   UNL     1       0.906   2.940  21.202  0.00  0.00    +0.000 C 
ATOM      9  C   UNL     1       2.582   2.232  19.515  0.00  0.00    +0.000 A 
ATOM     10  C   UNL     1       3.686   2.566  18.543  0.00  0.00    +0.000 A 
ATOM     11  C   UNL     1       4.454   1.361  18.034  0.00  0.00    +0.000 C 
ATOM     12  N   UNL     1       4.060   3.793  18.265  0.00  0.00    +0.000 N 
ENDROOT
BRANCH  12  13
ATOM     13  C   UNL     1       5.010   4.124  17.236  0.00  0.00    +0.000 A 
ATOM     14  C   UNL     1       6.356   4.409  17.514  0.00  0.00    +0.000 A 
ATOM     15  C   UNL     1       7.248   4.753  16.494  0.00  0.00    +0.000 A 
ATOM     16  C   UNL     1       6.824   4.778  15.170  0.00  0.00    +0.000 A 
ATOM     17  C   UNL     1       5.504   4.466  14.864  0.00  0.00    +0.000 A 
ATOM     18  C   UNL     1       4.602   4.154  15.888  0.00  0.00    +0.000 A 
ENDBRANCH  12  13
TORSDOF 1
ENDMDL
MODEL 5
REMARK VINA RESULT:      -6.4      1.204      1.416
REMARK  Name = 
REMARK  4 active torsions:
REMARK  status: ('A' for Active; 'I' for Inactive)
REMARK    1  A    between atoms: C_1  and  C_2
REMARK    2  A    between atoms: C_7  and  C_8
REMARK    3  A    between atoms: C_10  and  C_11
REMARK    4  A    between atoms: N_12  and  C_13
REMARK                            x       y       z     vdW  Elec       q    Type
REMARK                         _______ _______ _______ _____ _____    ______ ____
ROOT
ATOM      1  C   UNL     1       8.173   8.284  17.882  0.00  0.00    +0.000 C 
ATOM      2  C   UNL     1       7.208   7.226  17.484  0.00  0.00    +0.000 A 
ATOM      3  C   UNL     1       6.071   6.778  18.189  0.00  0.00    +0.000 A 
ATOM      4  C   UNL     1       5.505   5.804  17.390  0.00  0.00    +0.000 A 
ATOM      5  N   UNL     1       6.375   5.646  16.307  0.00  0.00    +0.000 N 
ATOM      6  N   UNL     1       7.367   6.559  16.338  0.00  0.00    +0.000 NA
ATOM      7  C   UNL     1       6.168   4.618  15.385  0.00  0.00    +0.000 A 
ATOM      8  C   UNL     1       7.116   4.451  14.232  0.00  0.00    +0.000 C 
ATOM      9  C   UNL     1       5.134   3.779  15.564  0.00  0.00    +0.000 A 
ATOM     10  C   UNL     1       4.178   4.021  16.706  0.00  0.00    +0.000 A 
ATOM     11  C   UNL     1       2.929   3.162  16.665  0.00  0.00    +0.000 C 
ATOM     12  N   UNL     1       4.326   4.987  17.582  0.00  0.00    +0.000 N 
ENDROOT
BRANCH  12  13
ATOM     13  C   UNL     1       3.502   5.135  18.752  0.00  0.00    +0.000 A 
ATOM     14  C   UNL     1       3.455   4.168  19.770  0.00  0.00    +0.000 A 
ATOM     15  C   UNL     1       2.623   4.329  20.882  0.00  0.00    +0.000 A 
ATOM     16  C   UNL     1       1.854   5.479  21.022  0.00  0.00    +0.000 A 
ATOM     17  C   UNL     1       1.908   6.467  20.046  0.00  0.00    +0.000 A 
ATOM     18  C   UNL     1       2.715   6.292  18.916  0.00  0.00    +0.000 A 
ENDBRANCH  12  13
TORSDOF 1
ENDMDL
MODEL 6
REMARK VINA RESULT:      -6.3      1.263      1.881
REMARK  Name = 
REMARK  4 active torsions:
REMARK  status: ('A' for Active; 'I' for Inactive)
REMARK    1  A    between atoms: C_1  and  C_2
REMARK    2  A    between atoms: C_7  and  C_8
REMARK    3  A    between atoms: C_10  and  C_11
REMARK    4  A    between atoms: N_12  and  C_13
REMARK                            x       y       z     vdW  Elec       q    Type
REMARK                         _______ _______ _______ _____ _____    ______ ____
ROOT
ATOM      1  C   UNL     1       8.174   8.357  17.852  0.00  0.00    +0.000 C 
ATOM      2  C   UNL     1       7.200   7.298  17.476  0.00  0.00    +0.000 A 
ATOM      3  C   UNL     1       6.041   6.898  18.173  0.00  0.00    +0.000 A 
ATOM      4  C   UNL     1       5.476   5.900  17.403  0.00  0.00    +0.000 A 
ATOM      5  N   UNL     1       6.367   5.684  16.348  0.00  0.00    +0.000 N 
ATOM      6  N   UNL     1       7.373   6.582  16.363  0.00  0.00    +0.000 NA
ATOM      7  C   UNL     1       6.163   4.621  15.464  0.00  0.00    +0.000 A 
ATOM      8  C   UNL     1       7.133   4.391  14.341  0.00  0.00    +0.000 C 
ATOM      9  C   UNL     1       5.112   3.807  15.655  0.00  0.00    +0.000 A 
ATOM     10  C   UNL     1       4.135   4.112  16.764  0.00  0.00    +0.000 A 
ATOM     11  C   UNL     1       2.873   3.272  16.730  0.00  0.00    +0.000 C 
ATOM     12  N   UNL     1       4.280   5.111  17.602  0.00  0.00    +0.000 N 
ENDROOT
BRANCH  12  13
ATOM     13  C   UNL     1       3.433   5.321  18.747  0.00  0.00    +0.000 A 
ATOM     14  C   UNL     1       2.659   6.481  18.910  0.00  0.00    +0.000 A 
ATOM     15  C   UNL     1       1.866   6.667  20.047  0.00  0.00    +0.000 A 
ATOM     16  C   UNL     1       1.798   5.680  21.023  0.00  0.00    +0.000 A 
ATOM     17  C   UNL     1       2.528   4.508  20.869  0.00  0.00    +0.000 A 
ATOM     18  C   UNL     1       3.347   4.334  19.747  0.00  0.00    +0.000 A 
ENDBRANCH  12  13
TORSDOF 1
ENDMDL
MODEL 7
REMARK VINA RESULT:      -6.3      2.467      4.204
REMARK  Name = 
REMARK  4 active torsions:
REMARK  status: ('A' for Active; 'I' for Inactive)
REMARK    1  A    between atoms: C_1  and  C_2
REMARK    2  A    between atoms: C_7  and  C_8
REMARK    3  A    between atoms: C_10  and  C_11
REMARK    4  A    between atoms: N_12  and  C_13
REMARK                            x       y       z     vdW  Elec       q    Type
REMARK                         _______ _______ _______ _____ _____    ______ ____
ROOT
ATOM      1  C   UNL     1       7.733   5.782  18.323  0.00  0.00    +0.000 C 
ATOM      2  C   UNL     1       6.361   5.376  18.729  0.00  0.00    +0.000 A 
ATOM      3  C   UNL     1       5.219   6.192  18.862  0.00  0.00    +0.000 A 
ATOM      4  C   UNL     1       4.200   5.337  19.238  0.00  0.00    +0.000 A 
ATOM      5  N   UNL     1       4.797   4.085  19.408  0.00  0.00    +0.000 N 
ATOM      6  N   UNL     1       6.092   4.104  19.031  0.00  0.00    +0.000 NA
ATOM      7  C   UNL     1       4.063   3.024  19.941  0.00  0.00    +0.000 A 
ATOM      8  C   UNL     1       4.718   1.686  20.130  0.00  0.00    +0.000 C 
ATOM      9  C   UNL     1       2.784   3.231  20.299  0.00  0.00    +0.000 A 
ATOM     10  C   UNL     1       2.155   4.576  20.038  0.00  0.00    +0.000 A 
ATOM     11  C   UNL     1       0.655   4.616  20.261  0.00  0.00    +0.000 C 
ATOM     12  N   UNL     1       2.805   5.593  19.522  0.00  0.00    +0.000 N 
ENDROOT
BRANCH  12  13
ATOM     13  C   UNL     1       2.252   6.916  19.405  0.00  0.00    +0.000 A 
ATOM     14  C   UNL     1       1.754   7.627  20.509  0.00  0.00    +0.000 A 
ATOM     15  C   UNL     1       1.199   8.902  20.358  0.00  0.00    +0.000 A 
ATOM     16  C   UNL     1       1.169   9.509  19.108  0.00  0.00    +0.000 A 
ATOM     17  C   UNL     1       1.687   8.842  18.005  0.00  0.00    +0.000 A 
ATOM     18  C   UNL     1       2.213   7.552  18.149  0.00  0.00    +0.000 A 
ENDBRANCH  12  13
TORSDOF 1
ENDMDL
MODEL 8
REMARK VINA RESULT:      -6.3      2.465      4.211
REMARK  Name = 
REMARK  4 active torsions:
REMARK  status: ('A' for Active; 'I' for Inactive)
REMARK    1  A    between atoms: C_1  and  C_2
REMARK    2  A    between atoms: C_7  and  C_8
REMARK    3  A    between atoms: C_10  and  C_11
REMARK    4  A    between atoms: N_12  and  C_13
REMARK                            x       y       z     vdW  Elec       q    Type
REMARK                         _______ _______ _______ _____ _____    ______ ____
ROOT
ATOM      1  C   UNL     1       7.736   5.777  18.294  0.00  0.00    +0.000 C 
ATOM      2  C   UNL     1       6.368   5.373  18.711  0.00  0.00    +0.000 A 
ATOM      3  C   UNL     1       5.221   6.186  18.826  0.00  0.00    +0.000 A 
ATOM      4  C   UNL     1       4.207   5.335  19.224  0.00  0.00    +0.000 A 
ATOM      5  N   UNL     1       4.811   4.091  19.422  0.00  0.00    +0.000 N 
ATOM      6  N   UNL     1       6.105   4.107  19.043  0.00  0.00    +0.000 NA
ATOM      7  C   UNL     1       4.082   3.038  19.980  0.00  0.00    +0.000 A 
ATOM      8  C   UNL     1       4.745   1.708  20.200  0.00  0.00    +0.000 C 
ATOM      9  C   UNL     1       2.804   3.247  20.335  0.00  0.00    +0.000 A 
ATOM     10  C   UNL     1       2.167   4.583  20.044  0.00  0.00    +0.000 A 
ATOM     11  C   UNL     1       0.667   4.620  20.268  0.00  0.00    +0.000 C 
ATOM     12  N   UNL     1       2.811   5.590  19.503  0.00  0.00    +0.000 N 
ENDROOT
BRANCH  12  13
ATOM     13  C   UNL     1       2.252   6.908  19.356  0.00  0.00    +0.000 A 
ATOM     14  C   UNL     1       2.152   7.551  18.111  0.00  0.00    +0.000 A 
ATOM     15  C   UNL     1       1.628   8.843  18.005  0.00  0.00    +0.000 A 
ATOM     16  C   UNL     1       1.154   9.502  19.133  0.00  0.00    +0.000 A 
ATOM     17  C   UNL     1       1.209   8.874  20.372  0.00  0.00    +0.000 A 
ATOM     18  C   UNL     1       1.763   7.594  20.485  0.00  0.00    +0.000 A 
ENDBRANCH  12  13
TORSDOF 1
ENDMDL
MODEL 9
REMARK VINA RESULT:      -6.2      2.430      3.031
REMARK  Name = 
REMARK  4 active torsions:
REMARK  status: ('A' for Active; 'I' for Inactive)
REMARK    1  A    between atoms: C_1  and  C_2
REMARK    2  A    between atoms: C_7  and  C_8
REMARK    3  A    between atoms: C_10  and  C_11
REMARK    4  A    between atoms: N_12  and  C_13
REMARK                            x       y       z     vdW  Elec       q    Type
REMARK                         _______ _______ _______ _____ _____    ______ ____
ROOT
ATOM      1  C   UNL     1       8.020   8.178  17.385  0.00  0.00    +0.000 C 
ATOM      2  C   UNL     1       6.808   7.319  17.334  0.00  0.00    +0.000 A 
ATOM      3  C   UNL     1       5.563   7.537  17.961  0.00  0.00    +0.000 A 
ATOM      4  C   UNL     1       4.772   6.468  17.587  0.00  0.00    +0.000 A 
ATOM      5  N   UNL     1       5.601   5.622  16.845  0.00  0.00    +0.000 N 
ATOM      6  N   UNL     1       6.813   6.179  16.640  0.00  0.00    +0.000 NA
ATOM      7  C   UNL     1       5.144   4.365  16.445  0.00  0.00    +0.000 A 
ATOM      8  C   UNL     1       6.048   3.459  15.659  0.00  0.00    +0.000 C 
ATOM      9  C   UNL     1       3.906   3.979  16.797  0.00  0.00    +0.000 A 
ATOM     10  C   UNL     1       3.016   4.945  17.539  0.00  0.00    +0.000 A 
ATOM     11  C   UNL     1       1.575   4.491  17.668  0.00  0.00    +0.000 C 
ATOM     12  N   UNL     1       3.401   6.142  17.915  0.00  0.00    +0.000 N 
ENDROOT
BRANCH  12  13
ATOM     13  C   UNL     1       2.609   7.011  18.746  0.00  0.00    +0.000 A 
ATOM     14  C   UNL     1       2.325   6.717  20.089  0.00  0.00    +0.000 A 
ATOM     15  C   UNL     1       1.529   7.568  20.863  0.00  0.00    +0.000 A 
ATOM     16  C   UNL     1       1.038   8.751  20.323  0.00  0.00    +0.000 A 
ATOM     17  C   UNL     1       1.334   9.082  19.006  0.00  0.00    +0.000 A 
ATOM     18  C   UNL     1       2.102   8.215  18.220  0.00  0.00    +0.000 A 
ENDBRANCH  12  13
TORSDOF 1
ENDMDL
