MODEL 1
REMARK VINA RESULT:      -8.0      0.000      0.000
REMARK  Name = 
REMARK  8 active torsions:
REMARK  status: ('A' for Active; 'I' for Inactive)
REMARK    1  A    between atoms: C_1  and  C_2
REMARK    2  A    between atoms: C_2  and  O_3
REMARK    3  A    between atoms: O_3  and  C_4
REMARK    4  A    between atoms: C_9  and  N_10
REMARK    5  A    between atoms: C_13  and  C_14
REMARK    6  A    between atoms: C_19  and  C_21
REMARK    7  A    between atoms: C_24  and  C_25
REMARK    8  A    between atoms: C_29  and  C_30
REMARK                            x       y       z     vdW  Elec       q    Type
REMARK                         _______ _______ _______ _____ _____    ______ ____
ROOT
ATOM      1  C   UNL     1       0.990  10.440  19.614  0.00  0.00    +0.000 A 
ATOM      2  N   UNL     1       1.567  11.644  19.692  0.00  0.00    +0.000 NA
ATOM      3  S   UNL     1       0.529  12.618  20.537  0.00  0.00    +0.000 S 
ATOM      4  C   UNL     1      -0.638  11.381  20.731  0.00  0.00    +0.000 A 
ATOM      5  N   UNL     1      -1.838  11.582  21.370  0.00  0.00    +0.000 N 
ATOM      6  C   UNL     1      -2.405  12.830  21.516  0.00  0.00    +0.000 C 
ATOM      7  O   UNL     1      -1.956  13.875  21.054  0.00  0.00    +0.000 OA
ATOM      8  N   UNL     1      -0.231  10.226  20.259  0.00  0.00    +0.000 NA
ATOM      9  H   UNL     1      -2.333  10.737  21.611  0.00  0.00    +0.000 HD
ENDROOT
BRANCH   6  10
ATOM     10  C   UNL     1      -3.665  12.926  22.296  0.00  0.00    +0.000 A 
ATOM     11  C   UNL     1      -4.819  13.248  21.568  0.00  0.00    +0.000 A 
ATOM     12  C   UNL     1      -6.055  13.350  22.201  0.00  0.00    +0.000 A 
ATOM     13  C   UNL     1      -6.156  13.124  23.574  0.00  0.00    +0.000 A 
ATOM     14  C   UNL     1      -7.487  13.231  24.255  0.00  0.00    +0.000 C 
ATOM     15  C   UNL     1      -5.007  12.787  24.303  0.00  0.00    +0.000 A 
ATOM     16  C   UNL     1      -3.762  12.684  23.668  0.00  0.00    +0.000 A 
ENDBRANCH   6  10
BRANCH   1  20
ATOM     17  N   UNL     1       2.511   7.479  18.132  0.00  0.00    +0.000 N 
ATOM     18  N   UNL     1       2.495   8.377  17.114  0.00  0.00    +0.000 NA
ATOM     19  N   UNL     1       1.970   9.517  17.543  0.00  0.00    +0.000 NA
ATOM     20  C   UNL     1       1.619   9.353  18.847  0.00  0.00    +0.000 A 
ATOM     21  C   UNL     1       1.947   8.074  19.267  0.00  0.00    +0.000 A 
ATOM     22  C   UNL     1       1.669   7.404  20.565  0.00  0.00    +0.000 C 
BRANCH  17  28
ATOM     23  C   UNL     1       4.374   5.880  17.708  0.00  0.00    +0.000 A 
ATOM     24  C   UNL     1       4.750   4.552  17.414  0.00  0.00    +0.000 A 
ATOM     25  C   UNL     1       3.819   3.514  17.396  0.00  0.00    +0.000 A 
ATOM     26  C   UNL     1       2.500   3.767  17.721  0.00  0.00    +0.000 A 
ATOM     27  C   UNL     1       2.108   5.069  18.028  0.00  0.00    +0.000 A 
ATOM     28  C   UNL     1       3.013   6.148  17.970  0.00  0.00    +0.000 A 
BRANCH  23  29
ATOM     29  O   UNL     1       5.282   6.911  17.690  0.00  0.00    +0.000 OA
BRANCH  29  31
ATOM     30  C   UNL     1       7.658   6.780  18.137  0.00  0.00    +0.000 C 
ATOM     31  C   UNL     1       6.558   6.644  17.103  0.00  0.00    +0.000 C 
ENDBRANCH  29  31
ENDBRANCH  23  29
ENDBRANCH  17  28
ENDBRANCH   1  20
TORSDOF 5
ENDMDL
MODEL 2
REMARK VINA RESULT:      -7.8      2.080     10.938
REMARK  Name = 
REMARK  8 active torsions:
REMARK  status: ('A' for Active; 'I' for Inactive)
REMARK    1  A    between atoms: C_1  and  C_2
REMARK    2  A    between atoms: C_2  and  O_3
REMARK    3  A    between atoms: O_3  and  C_4
REMARK    4  A    between atoms: C_9  and  N_10
REMARK    5  A    between atoms: C_13  and  C_14
REMARK    6  A    between atoms: C_19  and  C_21
REMARK    7  A    between atoms: C_24  and  C_25
REMARK    8  A    between atoms: C_29  and  C_30
REMARK                            x       y       z     vdW  Elec       q    Type
REMARK                         _______ _______ _______ _____ _____    ______ ____
ROOT
ATOM      1  C   UNL     1      -0.015  10.095  20.491  0.00  0.00    +0.000 A 
ATOM      2  N   UNL     1       0.233   9.445  21.633  0.00  0.00    +0.000 NA
ATOM      3  S   UNL     1       1.333   8.260  21.279  0.00  0.00    +0.000 S 
ATOM      4  C   UNL     1       1.400   8.673  19.619  0.00  0.00    +0.000 A 
ATOM      5  N   UNL     1       2.170   7.987  18.711  0.00  0.00    +0.000 N 
ATOM      6  C   UNL     1       2.595   6.693  18.921  0.00  0.00    +0.000 C 
ATOM      7  O   UNL     1       2.295   5.992  19.882  0.00  0.00    +0.000 OA
ATOM      8  N   UNL     1       0.688   9.738  19.336  0.00  0.00    +0.000 NA
ATOM      9  H   UNL     1       2.294   8.456  17.827  0.00  0.00    +0.000 HD
ENDROOT
BRANCH   6  10
ATOM     10  C   UNL     1       3.489   6.089  17.900  0.00  0.00    +0.000 A 
ATOM     11  C   UNL     1       4.300   6.980  17.184  0.00  0.00    +0.000 A 
ATOM     12  C   UNL     1       5.184   6.516  16.214  0.00  0.00    +0.000 A 
ATOM     13  C   UNL     1       5.276   5.150  15.950  0.00  0.00    +0.000 A 
ATOM     14  C   UNL     1       6.230   4.650  14.907  0.00  0.00    +0.000 C 
ATOM     15  C   UNL     1       4.478   4.253  16.675  0.00  0.00    +0.000 A 
ATOM     16  C   UNL     1       3.587   4.718  17.651  0.00  0.00    +0.000 A 
ENDBRANCH   6  10
BRANCH   1  20
ATOM     17  N   UNL     1      -2.467  12.766  20.856  0.00  0.00    +0.000 N 
ATOM     18  N   UNL     1      -2.414  12.558  19.515  0.00  0.00    +0.000 NA
ATOM     19  N   UNL     1      -1.553  11.583  19.257  0.00  0.00    +0.000 NA
ATOM     20  C   UNL     1      -1.023  11.166  20.438  0.00  0.00    +0.000 A 
ATOM     21  C   UNL     1      -1.577  11.887  21.485  0.00  0.00    +0.000 A 
ATOM     22  C   UNL     1      -1.243  11.860  22.933  0.00  0.00    +0.000 C 
BRANCH  17  28
ATOM     23  C   UNL     1      -4.652  13.522  21.784  0.00  0.00    +0.000 A 
ATOM     24  C   UNL     1      -5.442  14.609  22.214  0.00  0.00    +0.000 A 
ATOM     25  C   UNL     1      -4.919  15.897  22.323  0.00  0.00    +0.000 A 
ATOM     26  C   UNL     1      -3.583  16.122  22.055  0.00  0.00    +0.000 A 
ATOM     27  C   UNL     1      -2.779  15.061  21.640  0.00  0.00    +0.000 A 
ATOM     28  C   UNL     1      -3.305  13.768  21.441  0.00  0.00    +0.000 A 
BRANCH  23  29
ATOM     29  O   UNL     1      -5.174  12.260  21.639  0.00  0.00    +0.000 OA
BRANCH  29  31
ATOM     30  C   UNL     1      -7.394  11.503  21.040  0.00  0.00    +0.000 C 
ATOM     31  C   UNL     1      -6.069  12.046  20.545  0.00  0.00    +0.000 C 
ENDBRANCH  29  31
ENDBRANCH  23  29
ENDBRANCH  17  28
ENDBRANCH   1  20
TORSDOF 5
ENDMDL
MODEL 3
REMARK VINA RESULT:      -7.8      2.105      2.916
REMARK  Name = 
REMARK  8 active torsions:
REMARK  status: ('A' for Active; 'I' for Inactive)
REMARK    1  A    between atoms: C_1  and  C_2
REMARK    2  A    between atoms: C_2  and  O_3
REMARK    3  A    between atoms: O_3  and  C_4
REMARK    4  A    between atoms: C_9  and  N_10
REMARK    5  A    between atoms: C_13  and  C_14
REMARK    6  A    between atoms: C_19  and  C_21
REMARK    7  A    between atoms: C_24  and  C_25
REMARK    8  A    between atoms: C_29  and  C_30
REMARK                            x       y       z     vdW  Elec       q    Type
REMARK                         _______ _______ _______ _____ _____    ______ ____
ROOT
ATOM      1  C   UNL     1       1.532   8.215  19.828  0.00  0.00    +0.000 A 
ATOM      2  N   UNL     1       1.277   7.413  20.867  0.00  0.00    +0.000 NA
ATOM      3  S   UNL     1       0.310   8.267  21.904  0.00  0.00    +0.000 S 
ATOM      4  C   UNL     1       0.304   9.664  20.915  0.00  0.00    +0.000 A 
ATOM      5  N   UNL     1      -0.346  10.822  21.264  0.00  0.00    +0.000 N 
ATOM      6  C   UNL     1      -0.665  11.134  22.568  0.00  0.00    +0.000 C 
ATOM      7  O   UNL     1      -0.361  10.469  23.554  0.00  0.00    +0.000 OA
ATOM      8  N   UNL     1       0.933   9.478  19.777  0.00  0.00    +0.000 NA
ATOM      9  H   UNL     1      -0.459  11.484  20.511  0.00  0.00    +0.000 HD
ENDROOT
BRANCH   6  10
ATOM     10  C   UNL     1      -1.440  12.378  22.808  0.00  0.00    +0.000 A 
ATOM     11  C   UNL     1      -0.779  13.581  22.529  0.00  0.00    +0.000 A 
ATOM     12  C   UNL     1      -1.419  14.805  22.707  0.00  0.00    +0.000 A 
ATOM     13  C   UNL     1      -2.737  14.841  23.162  0.00  0.00    +0.000 A 
ATOM     14  C   UNL     1      -3.429  16.158  23.351  0.00  0.00    +0.000 C 
ATOM     15  C   UNL     1      -3.409  13.639  23.428  0.00  0.00    +0.000 A 
ATOM     16  C   UNL     1      -2.765  12.407  23.250  0.00  0.00    +0.000 A 
ENDBRANCH   6  10
BRANCH   1  20
ATOM     17  N   UNL     1       3.910   6.782  17.468  0.00  0.00    +0.000 N 
ATOM     18  N   UNL     1       3.408   7.858  16.808  0.00  0.00    +0.000 NA
ATOM     19  N   UNL     1       2.529   8.478  17.584  0.00  0.00    +0.000 NA
ATOM     20  C   UNL     1       2.441   7.787  18.753  0.00  0.00    +0.000 A 
ATOM     21  C   UNL     1       3.303   6.703  18.727  0.00  0.00    +0.000 A 
ATOM     22  C   UNL     1       3.483   5.613  19.722  0.00  0.00    +0.000 C 
BRANCH  17  28
ATOM     23  C   UNL     1       6.208   6.308  16.629  0.00  0.00    +0.000 A 
ATOM     24  C   UNL     1       7.047   5.431  15.910  0.00  0.00    +0.000 A 
ATOM     25  C   UNL     1       6.599   4.188  15.465  0.00  0.00    +0.000 A 
ATOM     26  C   UNL     1       5.319   3.769  15.771  0.00  0.00    +0.000 A 
ATOM     27  C   UNL     1       4.475   4.612  16.492  0.00  0.00    +0.000 A 
ATOM     28  C   UNL     1       4.878   5.907  16.879  0.00  0.00    +0.000 A 
BRANCH  23  29
ATOM     29  O   UNL     1       6.635   7.548  17.037  0.00  0.00    +0.000 OA
BRANCH  29  31
ATOM     30  C   UNL     1       8.252   9.043  18.042  0.00  0.00    +0.000 C 
ATOM     31  C   UNL     1       7.850   7.604  17.787  0.00  0.00    +0.000 C 
ENDBRANCH  29  31
ENDBRANCH  23  29
ENDBRANCH  17  28
ENDBRANCH   1  20
TORSDOF 5
ENDMDL
MODEL 4
REMARK VINA RESULT:      -7.7      3.049      4.135
REMARK  Name = 
REMARK  8 active torsions:
REMARK  status: ('A' for Active; 'I' for Inactive)
REMARK    1  A    between atoms: C_1  and  C_2
REMARK    2  A    between atoms: C_2  and  O_3
REMARK    3  A    between atoms: O_3  and  C_4
REMARK    4  A    between atoms: C_9  and  N_10
REMARK    5  A    between atoms: C_13  and  C_14
REMARK    6  A    between atoms: C_19  and  C_21
REMARK    7  A    between atoms: C_24  and  C_25
REMARK    8  A    between atoms: C_29  and  C_30
REMARK                            x       y       z     vdW  Elec       q    Type
REMARK                         _______ _______ _______ _____ _____    ______ ____
ROOT
ATOM      1  C   UNL     1       1.669   7.674  20.182  0.00  0.00    +0.000 A 
ATOM      2  N   UNL     1       0.987   7.479  21.315  0.00  0.00    +0.000 NA
ATOM      3  S   UNL     1       0.207   8.899  21.654  0.00  0.00    +0.000 S 
ATOM      4  C   UNL     1       0.841   9.696  20.279  0.00  0.00    +0.000 A 
ATOM      5  N   UNL     1       0.573  11.012  19.990  0.00  0.00    +0.000 N 
ATOM      6  C   UNL     1       0.164  11.917  20.947  0.00  0.00    +0.000 C 
ATOM      7  O   UNL     1       0.054  11.683  22.146  0.00  0.00    +0.000 OA
ATOM      8  N   UNL     1       1.552   8.898  19.517  0.00  0.00    +0.000 NA
ATOM      9  H   UNL     1       0.819  11.296  19.054  0.00  0.00    +0.000 HD
ENDROOT
BRANCH   6  10
ATOM     10  C   UNL     1      -0.173  13.291  20.495  0.00  0.00    +0.000 A 
ATOM     11  C   UNL     1       0.201  13.619  19.185  0.00  0.00    +0.000 A 
ATOM     12  C   UNL     1      -0.079  14.877  18.658  0.00  0.00    +0.000 A 
ATOM     13  C   UNL     1      -0.745  15.826  19.434  0.00  0.00    +0.000 A 
ATOM     14  C   UNL     1      -1.049  17.179  18.866  0.00  0.00    +0.000 C 
ATOM     15  C   UNL     1      -1.135  15.496  20.740  0.00  0.00    +0.000 A 
ATOM     16  C   UNL     1      -0.853  14.231  21.272  0.00  0.00    +0.000 A 
ENDBRANCH   6  10
BRANCH   1  20
ATOM     17  N   UNL     1       3.956   5.398  18.487  0.00  0.00    +0.000 N 
ATOM     18  N   UNL     1       3.522   4.683  19.556  0.00  0.00    +0.000 NA
ATOM     19  N   UNL     1       2.660   5.412  20.251  0.00  0.00    +0.000 NA
ATOM     20  C   UNL     1       2.547   6.623  19.642  0.00  0.00    +0.000 A 
ATOM     21  C   UNL     1       3.350   6.660  18.513  0.00  0.00    +0.000 A 
ATOM     22  C   UNL     1       3.634   7.792  17.590  0.00  0.00    +0.000 C 
BRANCH  17  28
ATOM     23  C   UNL     1       6.289   4.816  17.832  0.00  0.00    +0.000 A 
ATOM     24  C   UNL     1       7.164   4.427  16.797  0.00  0.00    +0.000 A 
ATOM     25  C   UNL     1       6.695   4.089  15.528  0.00  0.00    +0.000 A 
ATOM     26  C   UNL     1       5.337   4.081  15.277  0.00  0.00    +0.000 A 
ATOM     27  C   UNL     1       4.451   4.449  16.289  0.00  0.00    +0.000 A 
ATOM     28  C   UNL     1       4.906   4.876  17.552  0.00  0.00    +0.000 A 
BRANCH  23  29
ATOM     29  O   UNL     1       6.751   5.186  19.072  0.00  0.00    +0.000 OA
BRANCH  29  31
ATOM     30  C   UNL     1       7.904   7.190  18.356  0.00  0.00    +0.000 C 
ATOM     31  C   UNL     1       7.997   5.885  19.120  0.00  0.00    +0.000 C 
ENDBRANCH  29  31
ENDBRANCH  23  29
ENDBRANCH  17  28
ENDBRANCH   1  20
TORSDOF 5
ENDMDL
MODEL 5
REMARK VINA RESULT:      -7.7      3.729      4.793
REMARK  Name = 
REMARK  8 active torsions:
REMARK  status: ('A' for Active; 'I' for Inactive)
REMARK    1  A    between atoms: C_1  and  C_2
REMARK    2  A    between atoms: C_2  and  O_3
REMARK    3  A    between atoms: O_3  and  C_4
REMARK    4  A    between atoms: C_9  and  N_10
REMARK    5  A    between atoms: C_13  and  C_14
REMARK    6  A    between atoms: C_19  and  C_21
REMARK    7  A    between atoms: C_24  and  C_25
REMARK    8  A    between atoms: C_29  and  C_30
REMARK                            x       y       z     vdW  Elec       q    Type
REMARK                         _______ _______ _______ _____ _____    ______ ____
ROOT
ATOM      1  C   UNL     1       1.065   9.290  20.496  0.00  0.00    +0.000 A 
ATOM      2  N   UNL     1       0.544   9.605  21.687  0.00  0.00    +0.000 NA
ATOM      3  S   UNL     1       0.209  11.225  21.648  0.00  0.00    +0.000 S 
ATOM      4  C   UNL     1       0.796  11.415  20.053  0.00  0.00    +0.000 A 
ATOM      5  N   UNL     1       0.824  12.628  19.408  0.00  0.00    +0.000 N 
ATOM      6  C   UNL     1       0.812  13.831  20.082  0.00  0.00    +0.000 C 
ATOM      7  O   UNL     1       0.839  13.964  21.301  0.00  0.00    +0.000 OA
ATOM      8  N   UNL     1       1.155  10.276  19.508  0.00  0.00    +0.000 NA
ATOM      9  H   UNL     1       0.982  12.572  18.414  0.00  0.00    +0.000 HD
ENDROOT
BRANCH   6  10
ATOM     10  C   UNL     1       0.764  15.074  19.269  0.00  0.00    +0.000 A 
ATOM     11  C   UNL     1       1.995  15.557  18.807  0.00  0.00    +0.000 A 
ATOM     12  C   UNL     1       2.060  16.709  18.026  0.00  0.00    +0.000 A 
ATOM     13  C   UNL     1       0.890  17.390  17.690  0.00  0.00    +0.000 A 
ATOM     14  C   UNL     1       0.960  18.628  16.847  0.00  0.00    +0.000 C 
ATOM     15  C   UNL     1      -0.345  16.901  18.138  0.00  0.00    +0.000 A 
ATOM     16  C   UNL     1      -0.413  15.743  18.924  0.00  0.00    +0.000 A 
ENDBRANCH   6  10
BRANCH   1  20
ATOM     17  N   UNL     1       2.421   6.096  19.382  0.00  0.00    +0.000 N 
ATOM     18  N   UNL     1       1.965   5.835  20.635  0.00  0.00    +0.000 NA
ATOM     19  N   UNL     1       1.428   6.934  21.145  0.00  0.00    +0.000 NA
ATOM     20  C   UNL     1       1.555   7.929  20.225  0.00  0.00    +0.000 A 
ATOM     21  C   UNL     1       2.176   7.442  19.086  0.00  0.00    +0.000 A 
ATOM     22  C   UNL     1       2.617   8.168  17.865  0.00  0.00    +0.000 C 
BRANCH  17  28
ATOM     23  C   UNL     1       4.469   5.010  18.467  0.00  0.00    +0.000 A 
ATOM     24  C   UNL     1       5.007   4.097  17.537  0.00  0.00    +0.000 A 
ATOM     25  C   UNL     1       4.192   3.281  16.754  0.00  0.00    +0.000 A 
ATOM     26  C   UNL     1       2.821   3.321  16.916  0.00  0.00    +0.000 A 
ATOM     27  C   UNL     1       2.265   4.207  17.838  0.00  0.00    +0.000 A 
ATOM     28  C   UNL     1       3.064   5.101  18.579  0.00  0.00    +0.000 A 
BRANCH  23  29
ATOM     29  O   UNL     1       5.268   5.842  19.213  0.00  0.00    +0.000 OA
BRANCH  29  31
ATOM     30  C   UNL     1       7.530   6.353  18.518  0.00  0.00    +0.000 C 
ATOM     31  C   UNL     1       6.639   5.465  19.363  0.00  0.00    +0.000 C 
ENDBRANCH  29  31
ENDBRANCH  23  29
ENDBRANCH  17  28
ENDBRANCH   1  20
TORSDOF 5
ENDMDL
MODEL 6
REMARK VINA RESULT:      -7.7      2.103     10.943
REMARK  Name = 
REMARK  8 active torsions:
REMARK  status: ('A' for Active; 'I' for Inactive)
REMARK    1  A    between atoms: C_1  and  C_2
REMARK    2  A    between atoms: C_2  and  O_3
REMARK    3  A    between atoms: O_3  and  C_4
REMARK    4  A    between atoms: C_9  and  N_10
REMARK    5  A    between atoms: C_13  and  C_14
REMARK    6  A    between atoms: C_19  and  C_21
REMARK    7  A    between atoms: C_24  and  C_25
REMARK    8  A    between atoms: C_29  and  C_30
REMARK                            x       y       z     vdW  Elec       q    Type
REMARK                         _______ _______ _______ _____ _____    ______ ____
ROOT
ATOM      1  C   UNL     1      -0.045  10.166  20.343  0.00  0.00    +0.000 A 
ATOM      2  N   UNL     1       0.119   9.479  21.479  0.00  0.00    +0.000 NA
ATOM      3  S   UNL     1       1.217   8.283  21.159  0.00  0.00    +0.000 S 
ATOM      4  C   UNL     1       1.394   8.739  19.519  0.00  0.00    +0.000 A 
ATOM      5  N   UNL     1       2.206   8.064  18.641  0.00  0.00    +0.000 N 
ATOM      6  C   UNL     1       2.594   6.756  18.839  0.00  0.00    +0.000 C 
ATOM      7  O   UNL     1       2.222   6.035  19.760  0.00  0.00    +0.000 OA
ATOM      8  N   UNL     1       0.721   9.827  19.223  0.00  0.00    +0.000 NA
ATOM      9  H   UNL     1       2.393   8.554  17.779  0.00  0.00    +0.000 HD
ENDROOT
BRANCH   6  10
ATOM     10  C   UNL     1       3.539   6.162  17.858  0.00  0.00    +0.000 A 
ATOM     11  C   UNL     1       3.472   4.772  17.700  0.00  0.00    +0.000 A 
ATOM     12  C   UNL     1       4.305   4.116  16.797  0.00  0.00    +0.000 A 
ATOM     13  C   UNL     1       5.214   4.847  16.031  0.00  0.00    +0.000 A 
ATOM     14  C   UNL     1       6.109   4.142  15.056  0.00  0.00    +0.000 C 
ATOM     15  C   UNL     1       5.273   6.240  16.175  0.00  0.00    +0.000 A 
ATOM     16  C   UNL     1       4.436   6.901  17.084  0.00  0.00    +0.000 A 
ENDBRANCH   6  10
BRANCH   1  20
ATOM     17  N   UNL     1      -2.294  13.024  20.572  0.00  0.00    +0.000 N 
ATOM     18  N   UNL     1      -2.631  12.442  19.392  0.00  0.00    +0.000 NA
ATOM     19  N   UNL     1      -1.879  11.366  19.204  0.00  0.00    +0.000 NA
ATOM     20  C   UNL     1      -1.028  11.258  20.260  0.00  0.00    +0.000 A 
ATOM     21  C   UNL     1      -1.257  12.288  21.158  0.00  0.00    +0.000 A 
ATOM     22  C   UNL     1      -0.518  12.644  22.398  0.00  0.00    +0.000 C 
BRANCH  17  28
ATOM     23  C   UNL     1      -4.071  14.187  21.875  0.00  0.00    +0.000 A 
ATOM     24  C   UNL     1      -4.716  15.407  22.167  0.00  0.00    +0.000 A 
ATOM     25  C   UNL     1      -4.245  16.623  21.674  0.00  0.00    +0.000 A 
ATOM     26  C   UNL     1      -3.088  16.656  20.919  0.00  0.00    +0.000 A 
ATOM     27  C   UNL     1      -2.425  15.465  20.628  0.00  0.00    +0.000 A 
ATOM     28  C   UNL     1      -2.930  14.217  21.044  0.00  0.00    +0.000 A 
BRANCH  23  29
ATOM     29  O   UNL     1      -4.554  12.984  22.329  0.00  0.00    +0.000 OA
BRANCH  29  31
ATOM     30  C   UNL     1      -4.369  12.428  24.678  0.00  0.00    +0.000 C 
ATOM     31  C   UNL     1      -5.247  12.992  23.579  0.00  0.00    +0.000 C 
ENDBRANCH  29  31
ENDBRANCH  23  29
ENDBRANCH  17  28
ENDBRANCH   1  20
TORSDOF 5
ENDMDL
MODEL 7
REMARK VINA RESULT:      -7.5      2.084     10.622
REMARK  Name = 
REMARK  8 active torsions:
REMARK  status: ('A' for Active; 'I' for Inactive)
REMARK    1  A    between atoms: C_1  and  C_2
REMARK    2  A    between atoms: C_2  and  O_3
REMARK    3  A    between atoms: O_3  and  C_4
REMARK    4  A    between atoms: C_9  and  N_10
REMARK    5  A    between atoms: C_13  and  C_14
REMARK    6  A    between atoms: C_19  and  C_21
REMARK    7  A    between atoms: C_24  and  C_25
REMARK    8  A    between atoms: C_29  and  C_30
REMARK                            x       y       z     vdW  Elec       q    Type
REMARK                         _______ _______ _______ _____ _____    ______ ____
ROOT
ATOM      1  C   UNL     1       0.202   9.842  20.266  0.00  0.00    +0.000 A 
ATOM      2  N   UNL     1       0.382   9.105  21.367  0.00  0.00    +0.000 NA
ATOM      3  S   UNL     1       1.482   7.930  20.979  0.00  0.00    +0.000 S 
ATOM      4  C   UNL     1       1.638   8.462  19.361  0.00  0.00    +0.000 A 
ATOM      5  N   UNL     1       2.442   7.832  18.442  0.00  0.00    +0.000 N 
ATOM      6  C   UNL     1       2.838   6.518  18.575  0.00  0.00    +0.000 C 
ATOM      7  O   UNL     1       2.481   5.754  19.466  0.00  0.00    +0.000 OA
ATOM      8  N   UNL     1       0.956   9.559  19.123  0.00  0.00    +0.000 NA
ATOM      9  H   UNL     1       2.617   8.362  17.603  0.00  0.00    +0.000 HD
ENDROOT
BRANCH   6  10
ATOM     10  C   UNL     1       3.774   5.975  17.558  0.00  0.00    +0.000 A 
ATOM     11  C   UNL     1       3.813   4.580  17.437  0.00  0.00    +0.000 A 
ATOM     12  C   UNL     1       4.647   3.969  16.504  0.00  0.00    +0.000 A 
ATOM     13  C   UNL     1       5.450   4.748  15.671  0.00  0.00    +0.000 A 
ATOM     14  C   UNL     1       6.346   4.090  14.665  0.00  0.00    +0.000 C 
ATOM     15  C   UNL     1       5.402   6.145  15.778  0.00  0.00    +0.000 A 
ATOM     16  C   UNL     1       4.565   6.762  16.717  0.00  0.00    +0.000 A 
ENDBRANCH   6  10
BRANCH   1  20
ATOM     17  N   UNL     1      -2.201  12.546  20.708  0.00  0.00    +0.000 N 
ATOM     18  N   UNL     1      -2.157  12.370  19.362  0.00  0.00    +0.000 NA
ATOM     19  N   UNL     1      -1.315  11.386  19.075  0.00  0.00    +0.000 NA
ATOM     20  C   UNL     1      -0.787  10.932  20.244  0.00  0.00    +0.000 A 
ATOM     21  C   UNL     1      -1.323  11.637  21.310  0.00  0.00    +0.000 A 
ATOM     22  C   UNL     1      -0.984  11.569  22.756  0.00  0.00    +0.000 C 
BRANCH  17  28
ATOM     23  C   UNL     1      -2.554  14.860  21.564  0.00  0.00    +0.000 A 
ATOM     24  C   UNL     1      -3.375  15.733  22.307  0.00  0.00    +0.000 A 
ATOM     25  C   UNL     1      -4.626  15.337  22.782  0.00  0.00    +0.000 A 
ATOM     26  C   UNL     1      -5.107  14.078  22.482  0.00  0.00    +0.000 A 
ATOM     27  C   UNL     1      -4.319  13.201  21.738  0.00  0.00    +0.000 A 
ATOM     28  C   UNL     1      -3.018  13.549  21.321  0.00  0.00    +0.000 A 
BRANCH  23  29
ATOM     29  O   UNL     1      -1.306  15.234  21.128  0.00  0.00    +0.000 OA
BRANCH  29  31
ATOM     30  C   UNL     1       0.928  14.658  21.860  0.00  0.00    +0.000 C 
ATOM     31  C   UNL     1      -0.315  15.483  22.126  0.00  0.00    +0.000 C 
ENDBRANCH  29  31
ENDBRANCH  23  29
ENDBRANCH  17  28
ENDBRANCH   1  20
TORSDOF 5
ENDMDL
MODEL 8
REMARK VINA RESULT:      -7.5      1.474      2.766
REMARK  Name = 
REMARK  8 active torsions:
REMARK  status: ('A' for Active; 'I' for Inactive)
REMARK    1  A    between atoms: C_1  and  C_2
REMARK    2  A    between atoms: C_2  and  O_3
REMARK    3  A    between atoms: O_3  and  C_4
REMARK    4  A    between atoms: C_9  and  N_10
REMARK    5  A    between atoms: C_13  and  C_14
REMARK    6  A    between atoms: C_19  and  C_21
REMARK    7  A    between atoms: C_24  and  C_25
REMARK    8  A    between atoms: C_29  and  C_30
REMARK                            x       y       z     vdW  Elec       q    Type
REMARK                         _______ _______ _______ _____ _____    ______ ____
ROOT
ATOM      1  C   UNL     1       0.793   9.831  20.265  0.00  0.00    +0.000 A 
ATOM      2  N   UNL     1       1.346  10.981  19.864  0.00  0.00    +0.000 NA
ATOM      3  S   UNL     1       0.291  12.187  20.275  0.00  0.00    +0.000 S 
ATOM      4  C   UNL     1      -0.851  11.103  20.946  0.00  0.00    +0.000 A 
ATOM      5  N   UNL     1      -2.052  11.515  21.469  0.00  0.00    +0.000 N 
ATOM      6  C   UNL     1      -2.644  12.712  21.125  0.00  0.00    +0.000 C 
ATOM      7  O   UNL     1      -2.217  13.503  20.290  0.00  0.00    +0.000 OA
ATOM      8  N   UNL     1      -0.422   9.862  20.956  0.00  0.00    +0.000 NA
ATOM      9  H   UNL     1      -2.529  10.821  22.024  0.00  0.00    +0.000 HD
ENDROOT
BRANCH   6  10
ATOM     10  C   UNL     1      -3.904  13.081  21.820  0.00  0.00    +0.000 A 
ATOM     11  C   UNL     1      -3.785  13.429  23.172  0.00  0.00    +0.000 A 
ATOM     12  C   UNL     1      -4.903  13.803  23.913  0.00  0.00    +0.000 A 
ATOM     13  C   UNL     1      -6.159  13.842  23.307  0.00  0.00    +0.000 A 
ATOM     14  C   UNL     1      -7.362  14.248  24.103  0.00  0.00    +0.000 C 
ATOM     15  C   UNL     1      -6.280  13.510  21.950  0.00  0.00    +0.000 A 
ATOM     16  C   UNL     1      -5.157  13.132  21.204  0.00  0.00    +0.000 A 
ENDBRANCH   6  10
BRANCH   1  20
ATOM     17  N   UNL     1       2.478   6.822  19.088  0.00  0.00    +0.000 N 
ATOM     18  N   UNL     1       2.178   6.539  20.382  0.00  0.00    +0.000 NA
ATOM     19  N   UNL     1       1.540   7.569  20.920  0.00  0.00    +0.000 NA
ATOM     20  C   UNL     1       1.442   8.543  19.974  0.00  0.00    +0.000 A 
ATOM     21  C   UNL     1       2.021   8.111  18.791  0.00  0.00    +0.000 A 
ATOM     22  C   UNL     1       2.245   8.853  17.521  0.00  0.00    +0.000 C 
BRANCH  17  28
ATOM     23  C   UNL     1       2.625   4.664  17.851  0.00  0.00    +0.000 A 
ATOM     24  C   UNL     1       3.445   3.757  17.148  0.00  0.00    +0.000 A 
ATOM     25  C   UNL     1       4.767   4.062  16.826  0.00  0.00    +0.000 A 
ATOM     26  C   UNL     1       5.286   5.300  17.153  0.00  0.00    +0.000 A 
ATOM     27  C   UNL     1       4.490   6.218  17.837  0.00  0.00    +0.000 A 
ATOM     28  C   UNL     1       3.180   5.900  18.247  0.00  0.00    +0.000 A 
BRANCH  23  29
ATOM     29  O   UNL     1       1.334   4.351  18.202  0.00  0.00    +0.000 OA
BRANCH  29  31
ATOM     30  C   UNL     1       1.061   3.141  20.281  0.00  0.00    +0.000 C 
ATOM     31  C   UNL     1       1.109   3.058  18.768  0.00  0.00    +0.000 C 
ENDBRANCH  29  31
ENDBRANCH  23  29
ENDBRANCH  17  28
ENDBRANCH   1  20
TORSDOF 5
ENDMDL
MODEL 9
REMARK VINA RESULT:      -7.5      2.649     10.742
REMARK  Name = 
REMARK  8 active torsions:
REMARK  status: ('A' for Active; 'I' for Inactive)
REMARK    1  A    between atoms: C_1  and  C_2
REMARK    2  A    between atoms: C_2  and  O_3
REMARK    3  A    between atoms: O_3  and  C_4
REMARK    4  A    between atoms: C_9  and  N_10
REMARK    5  A    between atoms: C_13  and  C_14
REMARK    6  A    between atoms: C_19  and  C_21
REMARK    7  A    between atoms: C_24  and  C_25
REMARK    8  A    between atoms: C_29  and  C_30
REMARK                            x       y       z     vdW  Elec       q    Type
REMARK                         _______ _______ _______ _____ _____    ______ ____
ROOT
ATOM      1  C   UNL     1       0.576  10.175  19.901  0.00  0.00    +0.000 A 
ATOM      2  N   UNL     1       0.539   9.441  21.018  0.00  0.00    +0.000 NA
ATOM      3  S   UNL     1       1.458   8.093  20.735  0.00  0.00    +0.000 S 
ATOM      4  C   UNL     1       1.835   8.559  19.132  0.00  0.00    +0.000 A 
ATOM      5  N   UNL     1       2.598   7.786  18.291  0.00  0.00    +0.000 N 
ATOM      6  C   UNL     1       2.758   6.428  18.467  0.00  0.00    +0.000 C 
ATOM      7  O   UNL     1       2.206   5.752  19.329  0.00  0.00    +0.000 OA
ATOM      8  N   UNL     1       1.367   9.747  18.829  0.00  0.00    +0.000 NA
ATOM      9  H   UNL     1       2.928   8.262  17.466  0.00  0.00    +0.000 HD
ENDROOT
BRANCH   6  10
ATOM     10  C   UNL     1       3.673   5.717  17.538  0.00  0.00    +0.000 A 
ATOM     11  C   UNL     1       4.494   6.526  16.741  0.00  0.00    +0.000 A 
ATOM     12  C   UNL     1       5.398   5.960  15.845  0.00  0.00    +0.000 A 
ATOM     13  C   UNL     1       5.498   4.573  15.739  0.00  0.00    +0.000 A 
ATOM     14  C   UNL     1       6.473   3.964  14.777  0.00  0.00    +0.000 C 
ATOM     15  C   UNL     1       4.690   3.760  16.546  0.00  0.00    +0.000 A 
ATOM     16  C   UNL     1       3.779   4.327  17.447  0.00  0.00    +0.000 A 
ENDBRANCH   6  10
BRANCH   1  20
ATOM     17  N   UNL     1      -0.968  13.473  19.773  0.00  0.00    +0.000 N 
ATOM     18  N   UNL     1      -1.953  12.638  19.351  0.00  0.00    +0.000 NA
ATOM     19  N   UNL     1      -1.508  11.390  19.370  0.00  0.00    +0.000 NA
ATOM     20  C   UNL     1      -0.213  11.412  19.786  0.00  0.00    +0.000 A 
ATOM     21  C   UNL     1       0.174  12.715  20.058  0.00  0.00    +0.000 A 
ATOM     22  C   UNL     1       1.509  13.245  20.439  0.00  0.00    +0.000 C 
BRANCH  17  28
ATOM     23  C   UNL     1      -2.008  15.494  20.794  0.00  0.00    +0.000 A 
ATOM     24  C   UNL     1      -2.238  16.882  20.698  0.00  0.00    +0.000 A 
ATOM     25  C   UNL     1      -1.627  17.660  19.715  0.00  0.00    +0.000 A 
ATOM     26  C   UNL     1      -0.732  17.080  18.837  0.00  0.00    +0.000 A 
ATOM     27  C   UNL     1      -0.479  15.712  18.921  0.00  0.00    +0.000 A 
ATOM     28  C   UNL     1      -1.149  14.891  19.850  0.00  0.00    +0.000 A 
BRANCH  23  29
ATOM     29  O   UNL     1      -2.637  14.719  21.738  0.00  0.00    +0.000 OA
BRANCH  29  31
ATOM     30  C   UNL     1      -1.170  13.796  23.428  0.00  0.00    +0.000 C 
ATOM     31  C   UNL     1      -2.199  14.857  23.091  0.00  0.00    +0.000 C 
ENDBRANCH  29  31
ENDBRANCH  23  29
ENDBRANCH  17  28
ENDBRANCH   1  20
TORSDOF 5
ENDMDL
