MODEL 1
REMARK VINA RESULT:      -8.0      0.000      0.000
REMARK  Name = 
REMARK  6 active torsions:
REMARK  status: ('A' for Active; 'I' for Inactive)
REMARK    1  A    between atoms: C_1  and  O_2
REMARK    2  A    between atoms: O_2  and  C_3
REMARK    3  A    between atoms: C_8  and  O_9
REMARK    4  A    between atoms: O_9  and  C_10
REMARK    5  A    between atoms: C_13  and  C_15
REMARK    6  A    between atoms: C_18  and  C_19
REMARK                            x       y       z     vdW  Elec       q    Type
REMARK                         _______ _______ _______ _____ _____    ______ ____
ROOT
ATOM      1  C   UNL     1       1.648   3.767  19.844  0.00  0.00    +0.000 A 
ATOM      2  C   UNL     1       1.445   4.882  20.666  0.00  0.00    +0.000 A 
ATOM      3  C   UNL     1       1.796   6.158  20.235  0.00  0.00    +0.000 A 
ATOM      4  C   UNL     1       2.356   6.337  18.964  0.00  0.00    +0.000 A 
ATOM      5  C   UNL     1       2.576   5.221  18.144  0.00  0.00    +0.000 A 
ATOM      6  C   UNL     1       2.213   3.932  18.566  0.00  0.00    +0.000 A 
ATOM      7  C   UNL     1       2.721   7.732  18.523  0.00  0.00    +0.000 C 
ATOM      8  N   UNL     1       1.740   8.731  18.951  0.00  0.00    +0.000 N 
ATOM      9  C   UNL     1       1.597   9.881  18.157  0.00  0.00    +0.000 C 
ATOM     10  O   UNL     1       2.306  10.033  17.157  0.00  0.00    +0.000 OA
ATOM     11  C   UNL     1       1.039   8.518  20.224  0.00  0.00    +0.000 C 
ATOM     12  C   UNL     1       1.598   7.381  21.085  0.00  0.00    +0.000 C 
ENDROOT
BRANCH   9  13
ATOM     13  C   UNL     1       0.649  10.916  18.551  0.00  0.00    +0.000 A 
ATOM     14  C   UNL     1       0.883  12.108  19.210  0.00  0.00    +0.000 A 
ATOM     15  C   UNL     1      -0.375  12.732  19.390  0.00  0.00    +0.000 A 
ATOM     16  C   UNL     1      -1.319  11.904  18.820  0.00  0.00    +0.000 A 
ATOM     17  O   UNL     1      -0.686  10.820  18.275  0.00  0.00    +0.000 OA
BRANCH  16  18
ATOM     18  C   UNL     1      -2.778  11.916  18.684  0.00  0.00    +0.000 A 
ATOM     19  C   UNL     1      -3.560  12.356  19.771  0.00  0.00    +0.000 A 
ATOM     20  C   UNL     1      -4.955  12.405  19.697  0.00  0.00    +0.000 A 
ATOM     21  C   UNL     1      -5.603  12.014  18.530  0.00  0.00    +0.000 A 
ATOM     22  C   UNL     1      -4.853  11.575  17.442  0.00  0.00    +0.000 A 
ATOM     23  C   UNL     1      -3.453  11.526  17.512  0.00  0.00    +0.000 A 
ATOM     24 CL   UNL     1      -2.638  11.011  16.073  0.00  0.00    +0.000 Cl
ENDBRANCH  16  18
ENDBRANCH   9  13
BRANCH   1  26
ATOM     25  C   UNL     1       1.469   2.382  21.774  0.00  0.00    +0.000 C 
ATOM     26  O   UNL     1       1.178   2.606  20.401  0.00  0.00    +0.000 OA
ENDBRANCH   1  26
BRANCH   6  27
ATOM     27  O   UNL     1       2.350   2.820  17.775  0.00  0.00    +0.000 OA
ATOM     28  C   UNL     1       3.524   2.033  17.917  0.00  0.00    +0.000 C 
ENDBRANCH   6  27
TORSDOF 4
ENDMDL
MODEL 2
REMARK VINA RESULT:      -7.9      1.264      1.559
REMARK  Name = 
REMARK  6 active torsions:
REMARK  status: ('A' for Active; 'I' for Inactive)
REMARK    1  A    between atoms: C_1  and  O_2
REMARK    2  A    between atoms: O_2  and  C_3
REMARK    3  A    between atoms: C_8  and  O_9
REMARK    4  A    between atoms: O_9  and  C_10
REMARK    5  A    between atoms: C_13  and  C_15
REMARK    6  A    between atoms: C_18  and  C_19
REMARK                            x       y       z     vdW  Elec       q    Type
REMARK                         _______ _______ _______ _____ _____    ______ ____
ROOT
ATOM      1  C   UNL     1       1.539   3.822  19.819  0.00  0.00    +0.000 A 
ATOM      2  C   UNL     1       1.481   4.922  20.685  0.00  0.00    +0.000 A 
ATOM      3  C   UNL     1       1.830   6.195  20.242  0.00  0.00    +0.000 A 
ATOM      4  C   UNL     1       2.240   6.387  18.918  0.00  0.00    +0.000 A 
ATOM      5  C   UNL     1       2.315   5.285  18.052  0.00  0.00    +0.000 A 
ATOM      6  C   UNL     1       1.953   4.000  18.486  0.00  0.00    +0.000 A 
ATOM      7  C   UNL     1       2.607   7.778  18.467  0.00  0.00    +0.000 C 
ATOM      8  N   UNL     1       1.725   8.802  19.032  0.00  0.00    +0.000 N 
ATOM      9  C   UNL     1       1.535   9.978  18.287  0.00  0.00    +0.000 C 
ATOM     10  O   UNL     1       2.126  10.129  17.213  0.00  0.00    +0.000 OA
ATOM     11  C   UNL     1       1.174   8.581  20.376  0.00  0.00    +0.000 C 
ATOM     12  C   UNL     1       1.785   7.402  21.137  0.00  0.00    +0.000 C 
ENDROOT
BRANCH   9  13
ATOM     13  C   UNL     1       0.684  11.036  18.815  0.00  0.00    +0.000 A 
ATOM     14  C   UNL     1       1.044  12.200  19.468  0.00  0.00    +0.000 A 
ATOM     15  C   UNL     1      -0.157  12.866  19.813  0.00  0.00    +0.000 A 
ATOM     16  C   UNL     1      -1.195  12.091  19.341  0.00  0.00    +0.000 A 
ATOM     17  O   UNL     1      -0.677  10.999  18.699  0.00  0.00    +0.000 OA
BRANCH  16  18
ATOM     18  C   UNL     1      -2.658  12.162  19.381  0.00  0.00    +0.000 A 
ATOM     19  C   UNL     1      -3.393  11.677  18.280  0.00  0.00    +0.000 A 
ATOM     20  C   UNL     1      -4.791  11.703  18.265  0.00  0.00    +0.000 A 
ATOM     21  C   UNL     1      -5.488  12.216  19.353  0.00  0.00    +0.000 A 
ATOM     22  C   UNL     1      -4.785  12.703  20.452  0.00  0.00    +0.000 A 
ATOM     23  C   UNL     1      -3.383  12.677  20.472  0.00  0.00    +0.000 A 
ATOM     24 CL   UNL     1      -2.632  13.263  21.919  0.00  0.00    +0.000 Cl
ENDBRANCH  16  18
ENDBRANCH   9  13
BRANCH   1  26
ATOM     25  C   UNL     1       1.509   2.410  21.738  0.00  0.00    +0.000 C 
ATOM     26  O   UNL     1       1.092   2.665  20.404  0.00  0.00    +0.000 OA
ENDBRANCH   1  26
BRANCH   6  27
ATOM     27  O   UNL     1       1.949   2.906  17.661  0.00  0.00    +0.000 OA
ATOM     28  C   UNL     1       3.088   2.057  17.661  0.00  0.00    +0.000 C 
ENDBRANCH   6  27
TORSDOF 4
ENDMDL
MODEL 3
REMARK VINA RESULT:      -7.8      2.856      8.978
REMARK  Name = 
REMARK  6 active torsions:
REMARK  status: ('A' for Active; 'I' for Inactive)
REMARK    1  A    between atoms: C_1  and  O_2
REMARK    2  A    between atoms: O_2  and  C_3
REMARK    3  A    between atoms: C_8  and  O_9
REMARK    4  A    between atoms: O_9  and  C_10
REMARK    5  A    between atoms: C_13  and  C_15
REMARK    6  A    between atoms: C_18  and  C_19
REMARK                            x       y       z     vdW  Elec       q    Type
REMARK                         _______ _______ _______ _____ _____    ______ ____
ROOT
ATOM      1  C   UNL     1      -5.573  11.980  19.226  0.00  0.00    +0.000 A 
ATOM      2  C   UNL     1      -4.692  11.610  18.202  0.00  0.00    +0.000 A 
ATOM      3  C   UNL     1      -3.314  11.699  18.381  0.00  0.00    +0.000 A 
ATOM      4  C   UNL     1      -2.796  12.160  19.597  0.00  0.00    +0.000 A 
ATOM      5  C   UNL     1      -3.675  12.547  20.619  0.00  0.00    +0.000 A 
ATOM      6  C   UNL     1      -5.066  12.448  20.452  0.00  0.00    +0.000 A 
ATOM      7  C   UNL     1      -1.299  12.241  19.763  0.00  0.00    +0.000 C 
ATOM      8  N   UNL     1      -0.604  11.111  19.143  0.00  0.00    +0.000 N 
ATOM      9  C   UNL     1       0.626  10.723  19.698  0.00  0.00    +0.000 C 
ATOM     10  O   UNL     1       1.096  11.347  20.655  0.00  0.00    +0.000 OA
ATOM     11  C   UNL     1      -1.183  10.518  17.930  0.00  0.00    +0.000 C 
ATOM     12  C   UNL     1      -2.334  11.315  17.309  0.00  0.00    +0.000 C 
ENDROOT
BRANCH   9  13
ATOM     13  C   UNL     1       1.368   9.618  19.105  0.00  0.00    +0.000 A 
ATOM     14  C   UNL     1       1.971   9.539  17.863  0.00  0.00    +0.000 A 
ATOM     15  C   UNL     1       2.523   8.239  17.756  0.00  0.00    +0.000 A 
ATOM     16  C   UNL     1       2.249   7.589  18.940  0.00  0.00    +0.000 A 
ATOM     17  O   UNL     1       1.582   8.445  19.773  0.00  0.00    +0.000 OA
BRANCH  16  18
ATOM     18  C   UNL     1       2.489   6.246  19.477  0.00  0.00    +0.000 A 
ATOM     19  C   UNL     1       1.609   5.737  20.453  0.00  0.00    +0.000 A 
ATOM     20  C   UNL     1       1.775   4.458  20.993  0.00  0.00    +0.000 A 
ATOM     21  C   UNL     1       2.829   3.656  20.568  0.00  0.00    +0.000 A 
ATOM     22  C   UNL     1       3.713   4.137  19.606  0.00  0.00    +0.000 A 
ATOM     23  C   UNL     1       3.548   5.419  19.060  0.00  0.00    +0.000 A 
ATOM     24 CL   UNL     1       4.684   5.875  17.835  0.00  0.00    +0.000 Cl
ENDBRANCH  16  18
ENDBRANCH   9  13
BRANCH   1  26
ATOM     25  C   UNL     1      -7.562  12.790  18.196  0.00  0.00    +0.000 C 
ATOM     26  O   UNL     1      -6.886  11.758  18.900  0.00  0.00    +0.000 OA
ENDBRANCH   1  26
BRANCH   6  27
ATOM     27  O   UNL     1      -5.962  12.754  21.443  0.00  0.00    +0.000 OA
ATOM     28  C   UNL     1      -6.285  14.119  21.662  0.00  0.00    +0.000 C 
ENDBRANCH   6  27
TORSDOF 4
ENDMDL
MODEL 4
REMARK VINA RESULT:      -7.8      2.584      8.531
REMARK  Name = 
REMARK  6 active torsions:
REMARK  status: ('A' for Active; 'I' for Inactive)
REMARK    1  A    between atoms: C_1  and  O_2
REMARK    2  A    between atoms: O_2  and  C_3
REMARK    3  A    between atoms: C_8  and  O_9
REMARK    4  A    between atoms: O_9  and  C_10
REMARK    5  A    between atoms: C_13  and  C_15
REMARK    6  A    between atoms: C_18  and  C_19
REMARK                            x       y       z     vdW  Elec       q    Type
REMARK                         _______ _______ _______ _____ _____    ______ ____
ROOT
ATOM      1  C   UNL     1      -5.100  11.610  18.743  0.00  0.00    +0.000 A 
ATOM      2  C   UNL     1      -4.305  10.947  17.800  0.00  0.00    +0.000 A 
ATOM      3  C   UNL     1      -2.916  11.001  17.875  0.00  0.00    +0.000 A 
ATOM      4  C   UNL     1      -2.299  11.722  18.904  0.00  0.00    +0.000 A 
ATOM      5  C   UNL     1      -3.092  12.401  19.842  0.00  0.00    +0.000 A 
ATOM      6  C   UNL     1      -4.493  12.341  19.781  0.00  0.00    +0.000 A 
ATOM      7  C   UNL     1      -0.793  11.758  18.962  0.00  0.00    +0.000 C 
ATOM      8  N   UNL     1      -0.187  10.472  18.612  0.00  0.00    +0.000 N 
ATOM      9  C   UNL     1       1.062  10.167  19.179  0.00  0.00    +0.000 C 
ATOM     10  O   UNL     1       1.619  10.983  19.919  0.00  0.00    +0.000 OA
ATOM     11  C   UNL     1      -0.869   9.628  17.621  0.00  0.00    +0.000 C 
ATOM     12  C   UNL     1      -2.025  10.307  16.883  0.00  0.00    +0.000 C 
ENDROOT
BRANCH   9  13
ATOM     13  C   UNL     1       1.717   8.909  18.845  0.00  0.00    +0.000 A 
ATOM     14  C   UNL     1       2.598   8.630  17.816  0.00  0.00    +0.000 A 
ATOM     15  C   UNL     1       2.911   7.252  17.904  0.00  0.00    +0.000 A 
ATOM     16  C   UNL     1       2.222   6.754  18.990  0.00  0.00    +0.000 A 
ATOM     17  O   UNL     1       1.530   7.774  19.583  0.00  0.00    +0.000 OA
BRANCH  16  18
ATOM     18  C   UNL     1       2.062   5.438  19.615  0.00  0.00    +0.000 A 
ATOM     19  C   UNL     1       2.355   5.295  20.986  0.00  0.00    +0.000 A 
ATOM     20  C   UNL     1       2.207   4.070  21.643  0.00  0.00    +0.000 A 
ATOM     21  C   UNL     1       1.761   2.955  20.941  0.00  0.00    +0.000 A 
ATOM     22  C   UNL     1       1.467   3.069  19.585  0.00  0.00    +0.000 A 
ATOM     23  C   UNL     1       1.612   4.297  18.923  0.00  0.00    +0.000 A 
ATOM     24 CL   UNL     1       1.163   4.317  17.250  0.00  0.00    +0.000 Cl
ENDBRANCH  16  18
ENDBRANCH   9  13
BRANCH   1  26
ATOM     25  C   UNL     1      -6.961  10.149  19.015  0.00  0.00    +0.000 C 
ATOM     26  O   UNL     1      -6.440  11.388  18.556  0.00  0.00    +0.000 OA
ENDBRANCH   1  26
BRANCH   6  27
ATOM     27  O   UNL     1      -5.307  12.935  20.710  0.00  0.00    +0.000 OA
ATOM     28  C   UNL     1      -5.017  12.736  22.086  0.00  0.00    +0.000 C 
ENDBRANCH   6  27
TORSDOF 4
ENDMDL
MODEL 5
REMARK VINA RESULT:      -7.5      3.370      9.291
REMARK  Name = 
REMARK  6 active torsions:
REMARK  status: ('A' for Active; 'I' for Inactive)
REMARK    1  A    between atoms: C_1  and  O_2
REMARK    2  A    between atoms: O_2  and  C_3
REMARK    3  A    between atoms: C_8  and  O_9
REMARK    4  A    between atoms: O_9  and  C_10
REMARK    5  A    between atoms: C_13  and  C_15
REMARK    6  A    between atoms: C_18  and  C_19
REMARK                            x       y       z     vdW  Elec       q    Type
REMARK                         _______ _______ _______ _____ _____    ______ ____
ROOT
ATOM      1  C   UNL     1      -0.522  11.833  19.114  0.00  0.00    +0.000 A 
ATOM      2  C   UNL     1       0.582  11.308  18.431  0.00  0.00    +0.000 A 
ATOM      3  C   UNL     1       1.243  10.179  18.907  0.00  0.00    +0.000 A 
ATOM      4  C   UNL     1       0.802   9.554  20.079  0.00  0.00    +0.000 A 
ATOM      5  C   UNL     1      -0.294  10.086  20.775  0.00  0.00    +0.000 A 
ATOM      6  C   UNL     1      -0.974  11.216  20.295  0.00  0.00    +0.000 A 
ATOM      7  C   UNL     1       1.536   8.330  20.567  0.00  0.00    +0.000 C 
ATOM      8  N   UNL     1       1.948   7.449  19.473  0.00  0.00    +0.000 N 
ATOM      9  C   UNL     1       2.067   6.078  19.753  0.00  0.00    +0.000 C 
ATOM     10  O   UNL     1       1.854   5.661  20.897  0.00  0.00    +0.000 OA
ATOM     11  C   UNL     1       2.303   8.059  18.185  0.00  0.00    +0.000 C 
ATOM     12  C   UNL     1       2.433   9.585  18.208  0.00  0.00    +0.000 C 
ENDROOT
BRANCH   9  13
ATOM     13  C   UNL     1       2.495   5.162  18.704  0.00  0.00    +0.000 A 
ATOM     14  C   UNL     1       1.910   3.983  18.283  0.00  0.00    +0.000 A 
ATOM     15  C   UNL     1       2.739   3.453  17.264  0.00  0.00    +0.000 A 
ATOM     16  C   UNL     1       3.782   4.338  17.096  0.00  0.00    +0.000 A 
ATOM     17  O   UNL     1       3.608   5.397  17.945  0.00  0.00    +0.000 OA
BRANCH  16  18
ATOM     18  C   UNL     1       4.985   4.393  16.261  0.00  0.00    +0.000 A 
ATOM     19  C   UNL     1       4.849   4.280  14.862  0.00  0.00    +0.000 A 
ATOM     20  C   UNL     1       5.957   4.341  14.012  0.00  0.00    +0.000 A 
ATOM     21  C   UNL     1       7.231   4.517  14.541  0.00  0.00    +0.000 A 
ATOM     22  C   UNL     1       7.392   4.630  15.920  0.00  0.00    +0.000 A 
ATOM     23  C   UNL     1       6.283   4.572  16.777  0.00  0.00    +0.000 A 
ATOM     24 CL   UNL     1       6.614   4.779  18.464  0.00  0.00    +0.000 Cl
ENDBRANCH  16  18
ENDBRANCH   9  13
BRANCH   1  26
ATOM     25  C   UNL     1      -0.498  14.174  18.671  0.00  0.00    +0.000 C 
ATOM     26  O   UNL     1      -1.089  12.899  18.464  0.00  0.00    +0.000 OA
ENDBRANCH   1  26
BRANCH   6  27
ATOM     27  O   UNL     1      -2.087  11.734  20.906  0.00  0.00    +0.000 OA
ATOM     28  C   UNL     1      -1.905  12.656  21.970  0.00  0.00    +0.000 C 
ENDBRANCH   6  27
TORSDOF 4
ENDMDL
MODEL 6
REMARK VINA RESULT:      -7.5      3.285      9.088
REMARK  Name = 
REMARK  6 active torsions:
REMARK  status: ('A' for Active; 'I' for Inactive)
REMARK    1  A    between atoms: C_1  and  O_2
REMARK    2  A    between atoms: O_2  and  C_3
REMARK    3  A    between atoms: C_8  and  O_9
REMARK    4  A    between atoms: O_9  and  C_10
REMARK    5  A    between atoms: C_13  and  C_15
REMARK    6  A    between atoms: C_18  and  C_19
REMARK                            x       y       z     vdW  Elec       q    Type
REMARK                         _______ _______ _______ _____ _____    ______ ____
ROOT
ATOM      1  C   UNL     1      -4.319  12.828  20.986  0.00  0.00    +0.000 A 
ATOM      2  C   UNL     1      -3.452  12.538  19.926  0.00  0.00    +0.000 A 
ATOM      3  C   UNL     1      -2.146  12.118  20.167  0.00  0.00    +0.000 A 
ATOM      4  C   UNL     1      -1.690  11.978  21.483  0.00  0.00    +0.000 A 
ATOM      5  C   UNL     1      -2.550  12.283  22.548  0.00  0.00    +0.000 A 
ATOM      6  C   UNL     1      -3.872  12.695  22.314  0.00  0.00    +0.000 A 
ATOM      7  C   UNL     1      -0.272  11.517  21.713  0.00  0.00    +0.000 C 
ATOM      8  N   UNL     1       0.141  10.481  20.765  0.00  0.00    +0.000 N 
ATOM      9  C   UNL     1       1.116   9.563  21.191  0.00  0.00    +0.000 C 
ATOM     10  O   UNL     1       1.611   9.668  22.318  0.00  0.00    +0.000 OA
ATOM     11  C   UNL     1      -0.411  10.521  19.404  0.00  0.00    +0.000 C 
ATOM     12  C   UNL     1      -1.182  11.799  19.060  0.00  0.00    +0.000 C 
ENDROOT
BRANCH   9  13
ATOM     13  C   UNL     1       1.578   8.526  20.277  0.00  0.00    +0.000 A 
ATOM     14  C   UNL     1       1.990   8.641  18.963  0.00  0.00    +0.000 A 
ATOM     15  C   UNL     1       2.297   7.335  18.512  0.00  0.00    +0.000 A 
ATOM     16  C   UNL     1       2.077   6.483  19.573  0.00  0.00    +0.000 A 
ATOM     17  O   UNL     1       1.678   7.217  20.657  0.00  0.00    +0.000 OA
BRANCH  16  18
ATOM     18  C   UNL     1       2.157   5.035  19.788  0.00  0.00    +0.000 A 
ATOM     19  C   UNL     1       1.139   4.399  20.528  0.00  0.00    +0.000 A 
ATOM     20  C   UNL     1       1.151   3.020  20.753  0.00  0.00    +0.000 A 
ATOM     21  C   UNL     1       2.184   2.241  20.244  0.00  0.00    +0.000 A 
ATOM     22  C   UNL     1       3.203   2.845  19.512  0.00  0.00    +0.000 A 
ATOM     23  C   UNL     1       3.193   4.229  19.281  0.00  0.00    +0.000 A 
ATOM     24 CL   UNL     1       4.489   4.847  18.312  0.00  0.00    +0.000 Cl
ENDBRANCH  16  18
ENDBRANCH   9  13
BRANCH   1  26
ATOM     25  C   UNL     1      -6.480  12.083  20.316  0.00  0.00    +0.000 C 
ATOM     26  O   UNL     1      -5.581  13.155  20.563  0.00  0.00    +0.000 OA
ENDBRANCH   1  26
BRANCH   6  27
ATOM     27  O   UNL     1      -4.767  12.943  23.321  0.00  0.00    +0.000 OA
ATOM     28  C   UNL     1      -4.782  14.237  23.907  0.00  0.00    +0.000 C 
ENDBRANCH   6  27
TORSDOF 4
ENDMDL
MODEL 7
REMARK VINA RESULT:      -7.4      2.541      3.374
REMARK  Name = 
REMARK  6 active torsions:
REMARK  status: ('A' for Active; 'I' for Inactive)
REMARK    1  A    between atoms: C_1  and  O_2
REMARK    2  A    between atoms: O_2  and  C_3
REMARK    3  A    between atoms: C_8  and  O_9
REMARK    4  A    between atoms: O_9  and  C_10
REMARK    5  A    between atoms: C_13  and  C_15
REMARK    6  A    between atoms: C_18  and  C_19
REMARK                            x       y       z     vdW  Elec       q    Type
REMARK                         _______ _______ _______ _____ _____    ______ ____
ROOT
ATOM      1  C   UNL     1       4.005   3.671  17.632  0.00  0.00    +0.000 A 
ATOM      2  C   UNL     1       3.303   4.264  18.689  0.00  0.00    +0.000 A 
ATOM      3  C   UNL     1       3.191   5.649  18.781  0.00  0.00    +0.000 A 
ATOM      4  C   UNL     1       3.782   6.464  17.808  0.00  0.00    +0.000 A 
ATOM      5  C   UNL     1       4.500   5.874  16.757  0.00  0.00    +0.000 A 
ATOM      6  C   UNL     1       4.607   4.478  16.649  0.00  0.00    +0.000 A 
ATOM      7  C   UNL     1       3.640   7.960  17.933  0.00  0.00    +0.000 C 
ATOM      8  N   UNL     1       2.312   8.361  18.401  0.00  0.00    +0.000 N 
ATOM      9  C   UNL     1       1.836   9.620  18.002  0.00  0.00    +0.000 C 
ATOM     10  O   UNL     1       2.544  10.355  17.305  0.00  0.00    +0.000 OA
ATOM     11  C   UNL     1       1.604   7.471  19.332  0.00  0.00    +0.000 C 
ATOM     12  C   UNL     1       2.450   6.327  19.899  0.00  0.00    +0.000 C 
ENDROOT
BRANCH   9  13
ATOM     13  C   UNL     1       0.529  10.075  18.459  0.00  0.00    +0.000 A 
ATOM     14  C   UNL     1      -0.717   9.848  17.904  0.00  0.00    +0.000 A 
ATOM     15  C   UNL     1      -1.656  10.541  18.705  0.00  0.00    +0.000 A 
ATOM     16  C   UNL     1      -0.948  11.145  19.721  0.00  0.00    +0.000 A 
ATOM     17  O   UNL     1       0.377  10.825  19.591  0.00  0.00    +0.000 OA
BRANCH  16  18
ATOM     18  C   UNL     1      -1.275  12.022  20.850  0.00  0.00    +0.000 A 
ATOM     19  C   UNL     1      -1.748  13.323  20.585  0.00  0.00    +0.000 A 
ATOM     20  C   UNL     1      -2.091  14.201  21.618  0.00  0.00    +0.000 A 
ATOM     21  C   UNL     1      -1.969  13.796  22.943  0.00  0.00    +0.000 A 
ATOM     22  C   UNL     1      -1.503  12.516  23.230  0.00  0.00    +0.000 A 
ATOM     23  C   UNL     1      -1.159  11.632  22.197  0.00  0.00    +0.000 A 
ATOM     24 CL   UNL     1      -0.643  10.053  22.688  0.00  0.00    +0.000 Cl
ENDBRANCH  16  18
ENDBRANCH   9  13
BRANCH   1  26
ATOM     25  C   UNL     1       3.077   1.709  18.615  0.00  0.00    +0.000 C 
ATOM     26  O   UNL     1       3.950   2.301  17.663  0.00  0.00    +0.000 OA
ENDBRANCH   1  26
BRANCH   6  27
ATOM     27  O   UNL     1       5.243   3.856  15.607  0.00  0.00    +0.000 OA
ATOM     28  C   UNL     1       6.569   4.255  15.292  0.00  0.00    +0.000 C 
ENDBRANCH   6  27
TORSDOF 4
ENDMDL
MODEL 8
REMARK VINA RESULT:      -7.4      2.877      8.941
REMARK  Name = 
REMARK  6 active torsions:
REMARK  status: ('A' for Active; 'I' for Inactive)
REMARK    1  A    between atoms: C_1  and  O_2
REMARK    2  A    between atoms: O_2  and  C_3
REMARK    3  A    between atoms: C_8  and  O_9
REMARK    4  A    between atoms: O_9  and  C_10
REMARK    5  A    between atoms: C_13  and  C_15
REMARK    6  A    between atoms: C_18  and  C_19
REMARK                            x       y       z     vdW  Elec       q    Type
REMARK                         _______ _______ _______ _____ _____    ______ ____
ROOT
ATOM      1  C   UNL     1      -4.957  11.768  18.294  0.00  0.00    +0.000 A 
ATOM      2  C   UNL     1      -4.037  10.985  17.585  0.00  0.00    +0.000 A 
ATOM      3  C   UNL     1      -2.703  10.921  17.978  0.00  0.00    +0.000 A 
ATOM      4  C   UNL     1      -2.269  11.642  19.096  0.00  0.00    +0.000 A 
ATOM      5  C   UNL     1      -3.183  12.440  19.800  0.00  0.00    +0.000 A 
ATOM      6  C   UNL     1      -4.533  12.501  19.418  0.00  0.00    +0.000 A 
ATOM      7  C   UNL     1      -0.819  11.548  19.501  0.00  0.00    +0.000 C 
ATOM      8  N   UNL     1      -0.280  10.196  19.346  0.00  0.00    +0.000 N 
ATOM      9  C   UNL     1       0.770   9.815  20.197  0.00  0.00    +0.000 C 
ATOM     10  O   UNL     1       1.223  10.620  21.017  0.00  0.00    +0.000 OA
ATOM     11  C   UNL     1      -0.798   9.360  18.254  0.00  0.00    +0.000 C 
ATOM     12  C   UNL     1      -1.684  10.096  17.244  0.00  0.00    +0.000 C 
ENDROOT
BRANCH   9  13
ATOM     13  C   UNL     1       1.357   8.487  20.069  0.00  0.00    +0.000 A 
ATOM     14  C   UNL     1       1.307   7.422  20.949  0.00  0.00    +0.000 A 
ATOM     15  C   UNL     1       2.071   6.377  20.374  0.00  0.00    +0.000 A 
ATOM     16  C   UNL     1       2.538   6.842  19.163  0.00  0.00    +0.000 A 
ATOM     17  O   UNL     1       2.067   8.111  18.963  0.00  0.00    +0.000 OA
BRANCH  16  18
ATOM     18  C   UNL     1       3.394   6.313  18.098  0.00  0.00    +0.000 A 
ATOM     19  C   UNL     1       4.255   7.196  17.415  0.00  0.00    +0.000 A 
ATOM     20  C   UNL     1       5.107   6.749  16.401  0.00  0.00    +0.000 A 
ATOM     21  C   UNL     1       5.118   5.406  16.044  0.00  0.00    +0.000 A 
ATOM     22  C   UNL     1       4.276   4.513  16.702  0.00  0.00    +0.000 A 
ATOM     23  C   UNL     1       3.421   4.957  17.722  0.00  0.00    +0.000 A 
ATOM     24 CL   UNL     1       2.464   3.738  18.496  0.00  0.00    +0.000 Cl
ENDBRANCH  16  18
ENDBRANCH   9  13
BRANCH   1  26
ATOM     25  C   UNL     1      -6.758  12.766  17.095  0.00  0.00    +0.000 C 
ATOM     26  O   UNL     1      -6.234  11.654  17.809  0.00  0.00    +0.000 OA
ENDBRANCH   1  26
BRANCH   6  27
ATOM     27  O   UNL     1      -5.475  13.216  20.112  0.00  0.00    +0.000 OA
ATOM     28  C   UNL     1      -5.615  12.973  21.504  0.00  0.00    +0.000 C 
ENDBRANCH   6  27
TORSDOF 4
ENDMDL
MODEL 9
REMARK VINA RESULT:      -7.4      2.805      3.749
REMARK  Name = 
REMARK  6 active torsions:
REMARK  status: ('A' for Active; 'I' for Inactive)
REMARK    1  A    between atoms: C_1  and  O_2
REMARK    2  A    between atoms: O_2  and  C_3
REMARK    3  A    between atoms: C_8  and  O_9
REMARK    4  A    between atoms: O_9  and  C_10
REMARK    5  A    between atoms: C_13  and  C_15
REMARK    6  A    between atoms: C_18  and  C_19
REMARK                            x       y       z     vdW  Elec       q    Type
REMARK                         _______ _______ _______ _____ _____    ______ ____
ROOT
ATOM      1  C   UNL     1       6.103   5.950  17.203  0.00  0.00    +0.000 A 
ATOM      2  C   UNL     1       4.993   6.646  16.710  0.00  0.00    +0.000 A 
ATOM      3  C   UNL     1       3.866   6.844  17.503  0.00  0.00    +0.000 A 
ATOM      4  C   UNL     1       3.837   6.347  18.811  0.00  0.00    +0.000 A 
ATOM      5  C   UNL     1       4.940   5.635  19.304  0.00  0.00    +0.000 A 
ATOM      6  C   UNL     1       6.086   5.442  18.516  0.00  0.00    +0.000 A 
ATOM      7  C   UNL     1       2.604   6.581  19.648  0.00  0.00    +0.000 C 
ATOM      8  N   UNL     1       2.030   7.912  19.442  0.00  0.00    +0.000 N 
ATOM      9  C   UNL     1       1.321   8.486  20.510  0.00  0.00    +0.000 C 
ATOM     10  O   UNL     1       1.176   7.856  21.563  0.00  0.00    +0.000 OA
ATOM     11  C   UNL     1       2.147   8.523  18.111  0.00  0.00    +0.000 C 
ATOM     12  C   UNL     1       2.653   7.582  17.013  0.00  0.00    +0.000 C 
ENDROOT
BRANCH   9  13
ATOM     13  C   UNL     1       0.712   9.800  20.349  0.00  0.00    +0.000 A 
ATOM     14  C   UNL     1       1.256  11.048  20.587  0.00  0.00    +0.000 A 
ATOM     15  C   UNL     1       0.241  11.998  20.314  0.00  0.00    +0.000 A 
ATOM     16  C   UNL     1      -0.869  11.291  19.906  0.00  0.00    +0.000 A 
ATOM     17  O   UNL     1      -0.566   9.956  19.890  0.00  0.00    +0.000 OA
BRANCH  16  18
ATOM     18  C   UNL     1      -2.242  11.628  19.517  0.00  0.00    +0.000 A 
ATOM     19  C   UNL     1      -3.021  12.420  20.385  0.00  0.00    +0.000 A 
ATOM     20  C   UNL     1      -4.330  12.788  20.062  0.00  0.00    +0.000 A 
ATOM     21  C   UNL     1      -4.893  12.372  18.861  0.00  0.00    +0.000 A 
ATOM     22  C   UNL     1      -4.145  11.589  17.986  0.00  0.00    +0.000 A 
ATOM     23  C   UNL     1      -2.829  11.219  18.305  0.00  0.00    +0.000 A 
ATOM     24 CL   UNL     1      -1.991  10.288  17.109  0.00  0.00    +0.000 Cl
ENDBRANCH  16  18
ENDBRANCH   9  13
BRANCH   1  26
ATOM     25  C   UNL     1       7.014   5.045  15.197  0.00  0.00    +0.000 C 
ATOM     26  O   UNL     1       7.145   5.915  16.313  0.00  0.00    +0.000 OA
ENDBRANCH   1  26
BRANCH   6  27
ATOM     27  O   UNL     1       7.212   4.809  18.975  0.00  0.00    +0.000 OA
ATOM     28  C   UNL     1       8.088   5.529  19.830  0.00  0.00    +0.000 C 
ENDBRANCH   6  27
TORSDOF 4
ENDMDL
