MODEL 1
REMARK VINA RESULT:      -7.4      0.000      0.000
REMARK  Name = 
REMARK  5 active torsions:
REMARK  status: ('A' for Active; 'I' for Inactive)
REMARK    1  A    between atoms: C_1  and  C_2
REMARK    2  A    between atoms: C_2  and  C_3
REMARK    3  A    between atoms: C_2  and  C_4
REMARK    4  A    between atoms: C_9  and  N_10
REMARK    5  A    between atoms: C_11  and  C_13
REMARK                            x       y       z     vdW  Elec       q    Type
REMARK                         _______ _______ _______ _____ _____    ______ ____
ROOT
ATOM      1  N   UNL     1      -0.506  12.233  19.827  0.00  0.00    +0.000 N 
ATOM      2  C   UNL     1      -1.483  12.252  18.813  0.00  0.00    +0.000 C 
ATOM      3  O   UNL     1      -1.168  12.471  17.638  0.00  0.00    +0.000 OA
ATOM      4  C   UNL     1       0.443  13.289  19.718  0.00  0.00    +0.000 A 
ATOM      5  N   UNL     1       0.417  14.225  18.788  0.00  0.00    +0.000 NA
ATOM      6  C   UNL     1       1.390  15.186  18.977  0.00  0.00    +0.000 A 
ATOM      7  C   UNL     1       1.613  16.318  18.162  0.00  0.00    +0.000 A 
ATOM      8  C   UNL     1       2.559  17.278  18.536  0.00  0.00    +0.000 A 
ATOM      9  C   UNL     1       3.302  17.104  19.699  0.00  0.00    +0.000 A 
ATOM     10  C   UNL     1       3.144  15.957  20.490  0.00  0.00    +0.000 A 
ATOM     11  C   UNL     1       2.179  15.002  20.110  0.00  0.00    +0.000 A 
ATOM     12  S   UNL     1       1.741  13.493  20.839  0.00  0.00    +0.000 S 
ENDROOT
BRANCH   2  13
ATOM     13  C   UNL     1      -2.919  12.133  19.103  0.00  0.00    +0.000 A 
ATOM     14  C   UNL     1      -3.808  11.362  18.367  0.00  0.00    +0.000 A 
ATOM     15  C   UNL     1      -5.069  11.431  18.985  0.00  0.00    +0.000 A 
ATOM     16  C   UNL     1      -6.321  10.832  18.739  0.00  0.00    +0.000 A 
ATOM     17  C   UNL     1      -7.387  11.131  19.599  0.00  0.00    +0.000 A 
ATOM     18  C   UNL     1      -7.210  12.020  20.660  0.00  0.00    +0.000 A 
ATOM     19  C   UNL     1      -5.969  12.636  20.908  0.00  0.00    +0.000 A 
ATOM     20  C   UNL     1      -4.911  12.305  20.053  0.00  0.00    +0.000 A 
ATOM     21  O   UNL     1      -3.606  12.753  20.120  0.00  0.00    +0.000 OA
ENDBRANCH   2  13
BRANCH   1  27
ATOM     22  C   UNL     1      -1.149  11.461  22.149  0.00  0.00    +0.000 A 
ATOM     23  C   UNL     1      -1.133  10.382  23.075  0.00  0.00    +0.000 A 
ATOM     24  C   UNL     1      -0.423   9.215  22.837  0.00  0.00    +0.000 A 
ATOM     25  C   UNL     1       0.303   9.094  21.667  0.00  0.00    +0.000 A 
ATOM     26  C   UNL     1       0.281  10.119  20.715  0.00  0.00    +0.000 A 
ATOM     27  C   UNL     1      -0.454  11.305  20.914  0.00  0.00    +0.000 A 
BRANCH  22  29
ATOM     28  C   UNL     1      -3.085  12.259  23.487  0.00  0.00    +0.000 C 
ATOM     29  C   UNL     1      -1.862  12.699  22.680  0.00  0.00    +0.000 C 
ATOM     30  C   UNL     1      -1.001  13.781  23.322  0.00  0.00    +0.000 C 
ENDBRANCH  22  29
ENDBRANCH   1  27
TORSDOF 3
ENDMDL
MODEL 2
REMARK VINA RESULT:      -7.3      2.670      5.669
REMARK  Name = 
REMARK  5 active torsions:
REMARK  status: ('A' for Active; 'I' for Inactive)
REMARK    1  A    between atoms: C_1  and  C_2
REMARK    2  A    between atoms: C_2  and  C_3
REMARK    3  A    between atoms: C_2  and  C_4
REMARK    4  A    between atoms: C_9  and  N_10
REMARK    5  A    between atoms: C_11  and  C_13
REMARK                            x       y       z     vdW  Elec       q    Type
REMARK                         _______ _______ _______ _____ _____    ______ ____
ROOT
ATOM      1  N   UNL     1       0.259  11.396  19.778  0.00  0.00    +0.000 N 
ATOM      2  C   UNL     1       0.952  10.546  20.662  0.00  0.00    +0.000 C 
ATOM      3  O   UNL     1       1.364  10.968  21.748  0.00  0.00    +0.000 OA
ATOM      4  C   UNL     1       0.844  12.688  19.660  0.00  0.00    +0.000 A 
ATOM      5  N   UNL     1       1.944  13.070  20.282  0.00  0.00    +0.000 NA
ATOM      6  C   UNL     1       2.349  14.336  19.908  0.00  0.00    +0.000 A 
ATOM      7  C   UNL     1       3.490  15.021  20.386  0.00  0.00    +0.000 A 
ATOM      8  C   UNL     1       3.852  16.254  19.833  0.00  0.00    +0.000 A 
ATOM      9  C   UNL     1       3.071  16.821  18.832  0.00  0.00    +0.000 A 
ATOM     10  C   UNL     1       1.899  16.192  18.388  0.00  0.00    +0.000 A 
ATOM     11  C   UNL     1       1.551  14.943  18.943  0.00  0.00    +0.000 A 
ATOM     12  S   UNL     1       0.190  13.916  18.638  0.00  0.00    +0.000 S 
ENDROOT
BRANCH   2  13
ATOM     13  C   UNL     1       1.321   9.170  20.302  0.00  0.00    +0.000 A 
ATOM     14  C   UNL     1       1.126   8.064  21.118  0.00  0.00    +0.000 A 
ATOM     15  C   UNL     1       1.526   6.917  20.411  0.00  0.00    +0.000 A 
ATOM     16  C   UNL     1       1.514   5.535  20.686  0.00  0.00    +0.000 A 
ATOM     17  C   UNL     1       1.994   4.652  19.709  0.00  0.00    +0.000 A 
ATOM     18  C   UNL     1       2.492   5.141  18.500  0.00  0.00    +0.000 A 
ATOM     19  C   UNL     1       2.523   6.519  18.218  0.00  0.00    +0.000 A 
ATOM     20  C   UNL     1       2.017   7.382  19.197  0.00  0.00    +0.000 A 
ATOM     21  O   UNL     1       1.913   8.758  19.130  0.00  0.00    +0.000 OA
ENDBRANCH   2  13
BRANCH   1  27
ATOM     22  C   UNL     1      -2.192  11.586  19.179  0.00  0.00    +0.000 A 
ATOM     23  C   UNL     1      -3.200  11.251  18.235  0.00  0.00    +0.000 A 
ATOM     24  C   UNL     1      -2.971  10.366  17.192  0.00  0.00    +0.000 A 
ATOM     25  C   UNL     1      -1.725   9.781  17.066  0.00  0.00    +0.000 A 
ATOM     26  C   UNL     1      -0.696  10.116  17.954  0.00  0.00    +0.000 A 
ATOM     27  C   UNL     1      -0.890  11.033  19.006  0.00  0.00    +0.000 A 
BRANCH  22  29
ATOM     28  C   UNL     1      -4.209  12.671  20.146  0.00  0.00    +0.000 C 
ATOM     29  C   UNL     1      -2.705  12.451  20.325  0.00  0.00    +0.000 C 
ATOM     30  C   UNL     1      -2.253  12.084  21.735  0.00  0.00    +0.000 C 
ENDBRANCH  22  29
ENDBRANCH   1  27
TORSDOF 3
ENDMDL
MODEL 3
REMARK VINA RESULT:      -7.1      2.741      5.635
REMARK  Name = 
REMARK  5 active torsions:
REMARK  status: ('A' for Active; 'I' for Inactive)
REMARK    1  A    between atoms: C_1  and  C_2
REMARK    2  A    between atoms: C_2  and  C_3
REMARK    3  A    between atoms: C_2  and  C_4
REMARK    4  A    between atoms: C_9  and  N_10
REMARK    5  A    between atoms: C_11  and  C_13
REMARK                            x       y       z     vdW  Elec       q    Type
REMARK                         _______ _______ _______ _____ _____    ______ ____
ROOT
ATOM      1  N   UNL     1       0.202  11.455  19.786  0.00  0.00    +0.000 N 
ATOM      2  C   UNL     1       0.902  10.587  20.647  0.00  0.00    +0.000 C 
ATOM      3  O   UNL     1       1.345  10.994  21.727  0.00  0.00    +0.000 OA
ATOM      4  C   UNL     1       0.806  12.739  19.664  0.00  0.00    +0.000 A 
ATOM      5  N   UNL     1       1.925  13.099  20.264  0.00  0.00    +0.000 NA
ATOM      6  C   UNL     1       2.342  14.360  19.890  0.00  0.00    +0.000 A 
ATOM      7  C   UNL     1       3.504  15.023  20.346  0.00  0.00    +0.000 A 
ATOM      8  C   UNL     1       3.873  16.255  19.795  0.00  0.00    +0.000 A 
ATOM      9  C   UNL     1       3.079  16.842  18.816  0.00  0.00    +0.000 A 
ATOM     10  C   UNL     1       1.887  16.235  18.394  0.00  0.00    +0.000 A 
ATOM     11  C   UNL     1       1.532  14.988  18.948  0.00  0.00    +0.000 A 
ATOM     12  S   UNL     1       0.148  13.985  18.666  0.00  0.00    +0.000 S 
ENDROOT
BRANCH   2  13
ATOM     13  C   UNL     1       1.241   9.208  20.268  0.00  0.00    +0.000 A 
ATOM     14  C   UNL     1       1.812   8.844  19.057  0.00  0.00    +0.000 A 
ATOM     15  C   UNL     1       2.064   7.461  19.085  0.00  0.00    +0.000 A 
ATOM     16  C   UNL     1       2.665   6.550  18.194  0.00  0.00    +0.000 A 
ATOM     17  C   UNL     1       2.761   5.204  18.574  0.00  0.00    +0.000 A 
ATOM     18  C   UNL     1       2.250   4.780  19.801  0.00  0.00    +0.000 A 
ATOM     19  C   UNL     1       1.634   5.676  20.694  0.00  0.00    +0.000 A 
ATOM     20  C   UNL     1       1.571   7.019  20.307  0.00  0.00    +0.000 A 
ATOM     21  O   UNL     1       1.050   8.077  21.026  0.00  0.00    +0.000 OA
ENDBRANCH   2  13
BRANCH   1  27
ATOM     22  C   UNL     1      -2.262  11.676  19.256  0.00  0.00    +0.000 A 
ATOM     23  C   UNL     1      -3.297  11.367  18.333  0.00  0.00    +0.000 A 
ATOM     24  C   UNL     1      -3.103  10.502  17.267  0.00  0.00    +0.000 A 
ATOM     25  C   UNL     1      -1.865   9.909  17.097  0.00  0.00    +0.000 A 
ATOM     26  C   UNL     1      -0.811  10.219  17.963  0.00  0.00    +0.000 A 
ATOM     27  C   UNL     1      -0.969  11.117  19.038  0.00  0.00    +0.000 A 
BRANCH  22  29
ATOM     28  C   UNL     1      -4.230  12.810  20.265  0.00  0.00    +0.000 C 
ATOM     29  C   UNL     1      -2.737  12.522  20.432  0.00  0.00    +0.000 C 
ATOM     30  C   UNL     1      -2.299  12.090  21.827  0.00  0.00    +0.000 C 
ENDBRANCH  22  29
ENDBRANCH   1  27
TORSDOF 3
ENDMDL
MODEL 4
REMARK VINA RESULT:      -7.1      0.513      1.074
REMARK  Name = 
REMARK  5 active torsions:
REMARK  status: ('A' for Active; 'I' for Inactive)
REMARK    1  A    between atoms: C_1  and  C_2
REMARK    2  A    between atoms: C_2  and  C_3
REMARK    3  A    between atoms: C_2  and  C_4
REMARK    4  A    between atoms: C_9  and  N_10
REMARK    5  A    between atoms: C_11  and  C_13
REMARK                            x       y       z     vdW  Elec       q    Type
REMARK                         _______ _______ _______ _____ _____    ______ ____
ROOT
ATOM      1  N   UNL     1      -0.495  12.255  19.865  0.00  0.00    +0.000 N 
ATOM      2  C   UNL     1      -1.460  12.257  18.839  0.00  0.00    +0.000 C 
ATOM      3  O   UNL     1      -1.138  12.508  17.672  0.00  0.00    +0.000 OA
ATOM      4  C   UNL     1       0.417  13.345  19.786  0.00  0.00    +0.000 A 
ATOM      5  N   UNL     1       0.369  14.296  18.871  0.00  0.00    +0.000 NA
ATOM      6  C   UNL     1       1.306  15.286  19.090  0.00  0.00    +0.000 A 
ATOM      7  C   UNL     1       1.500  16.439  18.296  0.00  0.00    +0.000 A 
ATOM      8  C   UNL     1       2.407  17.426  18.699  0.00  0.00    +0.000 A 
ATOM      9  C   UNL     1       3.141  17.257  19.868  0.00  0.00    +0.000 A 
ATOM     10  C   UNL     1       3.013  16.091  20.637  0.00  0.00    +0.000 A 
ATOM     11  C   UNL     1       2.087  15.110  20.229  0.00  0.00    +0.000 A 
ATOM     12  S   UNL     1       1.693  13.574  20.927  0.00  0.00    +0.000 S 
ENDROOT
BRANCH   2  13
ATOM     13  C   UNL     1      -2.894  12.083  19.108  0.00  0.00    +0.000 A 
ATOM     14  C   UNL     1      -3.613  12.814  20.044  0.00  0.00    +0.000 A 
ATOM     15  C   UNL     1      -4.962  12.429  19.965  0.00  0.00    +0.000 A 
ATOM     16  C   UNL     1      -6.146  12.845  20.606  0.00  0.00    +0.000 A 
ATOM     17  C   UNL     1      -7.353  12.226  20.254  0.00  0.00    +0.000 A 
ATOM     18  C   UNL     1      -7.371  11.204  19.303  0.00  0.00    +0.000 A 
ATOM     19  C   UNL     1      -6.194  10.769  18.665  0.00  0.00    +0.000 A 
ATOM     20  C   UNL     1      -5.003  11.416  19.013  0.00  0.00    +0.000 A 
ATOM     21  O   UNL     1      -3.742  11.187  18.500  0.00  0.00    +0.000 OA
ENDBRANCH   2  13
BRANCH   1  27
ATOM     22  C   UNL     1      -1.118  11.434  22.176  0.00  0.00    +0.000 A 
ATOM     23  C   UNL     1      -1.081  10.341  23.084  0.00  0.00    +0.000 A 
ATOM     24  C   UNL     1      -0.352   9.190  22.826  0.00  0.00    +0.000 A 
ATOM     25  C   UNL     1       0.373   9.101  21.652  0.00  0.00    +0.000 A 
ATOM     26  C   UNL     1       0.330  10.141  20.716  0.00  0.00    +0.000 A 
ATOM     27  C   UNL     1      -0.424  11.310  20.937  0.00  0.00    +0.000 A 
BRANCH  22  29
ATOM     28  C   UNL     1      -3.041  12.175  23.565  0.00  0.00    +0.000 C 
ATOM     29  C   UNL     1      -1.851  12.651  22.729  0.00  0.00    +0.000 C 
ATOM     30  C   UNL     1      -1.003  13.755  23.352  0.00  0.00    +0.000 C 
ENDBRANCH  22  29
ENDBRANCH   1  27
TORSDOF 3
ENDMDL
MODEL 5
REMARK VINA RESULT:      -7.1      0.785      2.281
REMARK  Name = 
REMARK  5 active torsions:
REMARK  status: ('A' for Active; 'I' for Inactive)
REMARK    1  A    between atoms: C_1  and  C_2
REMARK    2  A    between atoms: C_2  and  C_3
REMARK    3  A    between atoms: C_2  and  C_4
REMARK    4  A    between atoms: C_9  and  N_10
REMARK    5  A    between atoms: C_11  and  C_13
REMARK                            x       y       z     vdW  Elec       q    Type
REMARK                         _______ _______ _______ _____ _____    ______ ____
ROOT
ATOM      1  N   UNL     1      -0.436  12.185  19.794  0.00  0.00    +0.000 N 
ATOM      2  C   UNL     1      -1.446  12.311  18.821  0.00  0.00    +0.000 C 
ATOM      3  O   UNL     1      -1.166  12.622  17.658  0.00  0.00    +0.000 OA
ATOM      4  C   UNL     1       0.534  13.225  19.739  0.00  0.00    +0.000 A 
ATOM      5  N   UNL     1       0.499  14.237  18.892  0.00  0.00    +0.000 NA
ATOM      6  C   UNL     1       1.501  15.157  19.126  0.00  0.00    +0.000 A 
ATOM      7  C   UNL     1       1.724  16.349  18.400  0.00  0.00    +0.000 A 
ATOM      8  C   UNL     1       2.706  17.254  18.819  0.00  0.00    +0.000 A 
ATOM      9  C   UNL     1       3.483  16.966  19.936  0.00  0.00    +0.000 A 
ATOM     10  C   UNL     1       3.324  15.760  20.633  0.00  0.00    +0.000 A 
ATOM     11  C   UNL     1       2.324  14.861  20.210  0.00  0.00    +0.000 A 
ATOM     12  S   UNL     1       1.874  13.306  20.825  0.00  0.00    +0.000 S 
ENDROOT
BRANCH   2  13
ATOM     13  C   UNL     1      -2.874  12.198  19.151  0.00  0.00    +0.000 A 
ATOM     14  C   UNL     1      -3.803  11.497  18.396  0.00  0.00    +0.000 A 
ATOM     15  C   UNL     1      -5.041  11.545  19.060  0.00  0.00    +0.000 A 
ATOM     16  C   UNL     1      -6.312  10.989  18.818  0.00  0.00    +0.000 A 
ATOM     17  C   UNL     1      -7.343  11.247  19.733  0.00  0.00    +0.000 A 
ATOM     18  C   UNL     1      -7.112  12.057  20.845  0.00  0.00    +0.000 A 
ATOM     19  C   UNL     1      -5.851  12.631  21.091  0.00  0.00    +0.000 A 
ATOM     20  C   UNL     1      -4.830  12.341  20.180  0.00  0.00    +0.000 A 
ATOM     21  O   UNL     1      -3.514  12.759  20.232  0.00  0.00    +0.000 OA
ENDBRANCH   2  13
BRANCH   1  27
ATOM     22  C   UNL     1       0.430   9.990  20.709  0.00  0.00    +0.000 A 
ATOM     23  C   UNL     1       0.521   9.147  21.849  0.00  0.00    +0.000 A 
ATOM     24  C   UNL     1      -0.183   9.404  23.016  0.00  0.00    +0.000 A 
ATOM     25  C   UNL     1      -1.010  10.512  23.075  0.00  0.00    +0.000 A 
ATOM     26  C   UNL     1      -1.094  11.386  21.985  0.00  0.00    +0.000 A 
ATOM     27  C   UNL     1      -0.370  11.167  20.797  0.00  0.00    +0.000 A 
BRANCH  22  29
ATOM     28  C   UNL     1       1.833   8.116  19.875  0.00  0.00    +0.000 C 
ATOM     29  C   UNL     1       1.162   9.437  19.492  0.00  0.00    +0.000 C 
ATOM     30  C   UNL     1       0.411   9.436  18.164  0.00  0.00    +0.000 C 
ENDBRANCH  22  29
ENDBRANCH   1  27
TORSDOF 3
ENDMDL
MODEL 6
REMARK VINA RESULT:      -7.1      2.718      6.945
REMARK  Name = 
REMARK  5 active torsions:
REMARK  status: ('A' for Active; 'I' for Inactive)
REMARK    1  A    between atoms: C_1  and  C_2
REMARK    2  A    between atoms: C_2  and  C_3
REMARK    3  A    between atoms: C_2  and  C_4
REMARK    4  A    between atoms: C_9  and  N_10
REMARK    5  A    between atoms: C_11  and  C_13
REMARK                            x       y       z     vdW  Elec       q    Type
REMARK                         _______ _______ _______ _____ _____    ______ ____
ROOT
ATOM      1  N   UNL     1      -1.082  13.247  22.241  0.00  0.00    +0.000 N 
ATOM      2  C   UNL     1      -0.113  14.268  22.276  0.00  0.00    +0.000 C 
ATOM      3  O   UNL     1      -0.014  15.008  23.261  0.00  0.00    +0.000 OA
ATOM      4  C   UNL     1      -2.355  13.657  22.729  0.00  0.00    +0.000 A 
ATOM      5  N   UNL     1      -2.637  14.876  23.151  0.00  0.00    +0.000 NA
ATOM      6  C   UNL     1      -3.971  15.030  23.469  0.00  0.00    +0.000 A 
ATOM      7  C   UNL     1      -4.586  16.213  23.938  0.00  0.00    +0.000 A 
ATOM      8  C   UNL     1      -5.973  16.265  24.108  0.00  0.00    +0.000 A 
ATOM      9  C   UNL     1      -6.747  15.140  23.843  0.00  0.00    +0.000 A 
ATOM     10  C   UNL     1      -6.153  13.935  23.440  0.00  0.00    +0.000 A 
ATOM     11  C   UNL     1      -4.755  13.898  23.259  0.00  0.00    +0.000 A 
ATOM     12  S   UNL     1      -3.716  12.595  22.788  0.00  0.00    +0.000 S 
ENDROOT
BRANCH   2  13
ATOM     13  C   UNL     1       0.740  14.583  21.122  0.00  0.00    +0.000 A 
ATOM     14  C   UNL     1       0.561  15.678  20.288  0.00  0.00    +0.000 A 
ATOM     15  C   UNL     1       1.608  15.696  19.351  0.00  0.00    +0.000 A 
ATOM     16  C   UNL     1       1.987  16.569  18.311  0.00  0.00    +0.000 A 
ATOM     17  C   UNL     1       3.135  16.268  17.567  0.00  0.00    +0.000 A 
ATOM     18  C   UNL     1       3.870  15.113  17.841  0.00  0.00    +0.000 A 
ATOM     19  C   UNL     1       3.495  14.225  18.866  0.00  0.00    +0.000 A 
ATOM     20  C   UNL     1       2.360  14.557  19.613  0.00  0.00    +0.000 A 
ATOM     21  O   UNL     1       1.825  13.863  20.681  0.00  0.00    +0.000 OA
ENDBRANCH   2  13
BRANCH   1  27
ATOM     22  C   UNL     1      -1.065  11.551  20.362  0.00  0.00    +0.000 A 
ATOM     23  C   UNL     1      -0.672  10.245  19.963  0.00  0.00    +0.000 A 
ATOM     24  C   UNL     1      -0.172   9.316  20.862  0.00  0.00    +0.000 A 
ATOM     25  C   UNL     1      -0.057   9.663  22.196  0.00  0.00    +0.000 A 
ATOM     26  C   UNL     1      -0.397  10.953  22.620  0.00  0.00    +0.000 A 
ATOM     27  C   UNL     1      -0.881  11.928  21.725  0.00  0.00    +0.000 A 
BRANCH  22  29
ATOM     28  C   UNL     1      -0.656  12.792  18.248  0.00  0.00    +0.000 C 
ATOM     29  C   UNL     1      -1.728  12.348  19.246  0.00  0.00    +0.000 C 
ATOM     30  C   UNL     1      -3.001  11.771  18.635  0.00  0.00    +0.000 C 
ENDBRANCH  22  29
ENDBRANCH   1  27
TORSDOF 3
ENDMDL
MODEL 7
REMARK VINA RESULT:      -7.0      2.723      6.934
REMARK  Name = 
REMARK  5 active torsions:
REMARK  status: ('A' for Active; 'I' for Inactive)
REMARK    1  A    between atoms: C_1  and  C_2
REMARK    2  A    between atoms: C_2  and  C_3
REMARK    3  A    between atoms: C_2  and  C_4
REMARK    4  A    between atoms: C_9  and  N_10
REMARK    5  A    between atoms: C_11  and  C_13
REMARK                            x       y       z     vdW  Elec       q    Type
REMARK                         _______ _______ _______ _____ _____    ______ ____
ROOT
ATOM      1  N   UNL     1      -1.122  13.266  22.311  0.00  0.00    +0.000 N 
ATOM      2  C   UNL     1      -0.161  14.290  22.415  0.00  0.00    +0.000 C 
ATOM      3  O   UNL     1      -0.102  15.000  23.425  0.00  0.00    +0.000 OA
ATOM      4  C   UNL     1      -2.414  13.656  22.764  0.00  0.00    +0.000 A 
ATOM      5  N   UNL     1      -2.718  14.860  23.213  0.00  0.00    +0.000 NA
ATOM      6  C   UNL     1      -4.064  14.998  23.486  0.00  0.00    +0.000 A 
ATOM      7  C   UNL     1      -4.702  16.164  23.968  0.00  0.00    +0.000 A 
ATOM      8  C   UNL     1      -6.095  16.205  24.089  0.00  0.00    +0.000 A 
ATOM      9  C   UNL     1      -6.852  15.085  23.760  0.00  0.00    +0.000 A 
ATOM     10  C   UNL     1      -6.237  13.896  23.342  0.00  0.00    +0.000 A 
ATOM     11  C   UNL     1      -4.834  13.871  23.212  0.00  0.00    +0.000 A 
ATOM     12  S   UNL     1      -3.770  12.588  22.740  0.00  0.00    +0.000 S 
ENDROOT
BRANCH   2  13
ATOM     13  C   UNL     1       0.733  14.645  21.303  0.00  0.00    +0.000 A 
ATOM     14  C   UNL     1       1.861  13.923  20.940  0.00  0.00    +0.000 A 
ATOM     15  C   UNL     1       2.414  14.514  19.791  0.00  0.00    +0.000 A 
ATOM     16  C   UNL     1       3.502  14.207  18.950  0.00  0.00    +0.000 A 
ATOM     17  C   UNL     1       3.757  15.039  17.852  0.00  0.00    +0.000 A 
ATOM     18  C   UNL     1       2.959  16.159  17.616  0.00  0.00    +0.000 A 
ATOM     19  C   UNL     1       1.878  16.486  18.456  0.00  0.00    +0.000 A 
ATOM     20  C   UNL     1       1.626  15.629  19.532  0.00  0.00    +0.000 A 
ATOM     21  O   UNL     1       0.609  15.726  20.462  0.00  0.00    +0.000 OA
ENDBRANCH   2  13
BRANCH   1  27
ATOM     22  C   UNL     1      -1.056  11.624  20.388  0.00  0.00    +0.000 A 
ATOM     23  C   UNL     1      -0.639  10.334  19.959  0.00  0.00    +0.000 A 
ATOM     24  C   UNL     1      -0.137   9.389  20.839  0.00  0.00    +0.000 A 
ATOM     25  C   UNL     1      -0.043   9.701  22.183  0.00  0.00    +0.000 A 
ATOM     26  C   UNL     1      -0.408  10.974  22.637  0.00  0.00    +0.000 A 
ATOM     27  C   UNL     1      -0.895  11.965  21.763  0.00  0.00    +0.000 A 
BRANCH  22  29
ATOM     28  C   UNL     1      -0.639  12.927  18.314  0.00  0.00    +0.000 C 
ATOM     29  C   UNL     1      -1.717  12.441  19.285  0.00  0.00    +0.000 C 
ATOM     30  C   UNL     1      -2.973  11.863  18.642  0.00  0.00    +0.000 C 
ENDBRANCH  22  29
ENDBRANCH   1  27
TORSDOF 3
ENDMDL
MODEL 8
REMARK VINA RESULT:      -7.0      2.823      6.282
REMARK  Name = 
REMARK  5 active torsions:
REMARK  status: ('A' for Active; 'I' for Inactive)
REMARK    1  A    between atoms: C_1  and  C_2
REMARK    2  A    between atoms: C_2  and  C_3
REMARK    3  A    between atoms: C_2  and  C_4
REMARK    4  A    between atoms: C_9  and  N_10
REMARK    5  A    between atoms: C_11  and  C_13
REMARK                            x       y       z     vdW  Elec       q    Type
REMARK                         _______ _______ _______ _____ _____    ______ ____
ROOT
ATOM      1  N   UNL     1       0.660  10.683  20.575  0.00  0.00    +0.000 N 
ATOM      2  C   UNL     1       0.174  10.732  21.896  0.00  0.00    +0.000 C 
ATOM      3  O   UNL     1       0.805  10.204  22.819  0.00  0.00    +0.000 OA
ATOM      4  C   UNL     1       1.174   9.407  20.208  0.00  0.00    +0.000 A 
ATOM      5  N   UNL     1       1.179   8.348  20.997  0.00  0.00    +0.000 NA
ATOM      6  C   UNL     1       1.636   7.214  20.356  0.00  0.00    +0.000 A 
ATOM      7  C   UNL     1       1.752   5.925  20.923  0.00  0.00    +0.000 A 
ATOM      8  C   UNL     1       2.118   4.836  20.126  0.00  0.00    +0.000 A 
ATOM      9  C   UNL     1       2.398   5.027  18.776  0.00  0.00    +0.000 A 
ATOM     10  C   UNL     1       2.353   6.307  18.206  0.00  0.00    +0.000 A 
ATOM     11  C   UNL     1       1.970   7.396  19.016  0.00  0.00    +0.000 A 
ATOM     12  S   UNL     1       1.825   9.081  18.643  0.00  0.00    +0.000 S 
ENDROOT
BRANCH   2  13
ATOM     13  C   UNL     1      -1.140  11.298  22.229  0.00  0.00    +0.000 A 
ATOM     14  C   UNL     1      -1.735  11.221  23.481  0.00  0.00    +0.000 A 
ATOM     15  C   UNL     1      -2.942  11.939  23.442  0.00  0.00    +0.000 A 
ATOM     16  C   UNL     1      -3.932  12.258  24.394  0.00  0.00    +0.000 A 
ATOM     17  C   UNL     1      -5.028  13.031  23.989  0.00  0.00    +0.000 A 
ATOM     18  C   UNL     1      -5.142  13.454  22.664  0.00  0.00    +0.000 A 
ATOM     19  C   UNL     1      -4.169  13.131  21.700  0.00  0.00    +0.000 A 
ATOM     20  C   UNL     1      -3.070  12.380  22.130  0.00  0.00    +0.000 A 
ATOM     21  O   UNL     1      -1.983  11.976  21.379  0.00  0.00    +0.000 OA
ENDBRANCH   2  13
BRANCH   1  27
ATOM     22  C   UNL     1      -0.446  11.989  18.711  0.00  0.00    +0.000 A 
ATOM     23  C   UNL     1      -0.430  13.187  17.947  0.00  0.00    +0.000 A 
ATOM     24  C   UNL     1       0.607  14.103  18.030  0.00  0.00    +0.000 A 
ATOM     25  C   UNL     1       1.669  13.844  18.877  0.00  0.00    +0.000 A 
ATOM     26  C   UNL     1       1.670  12.694  19.674  0.00  0.00    +0.000 A 
ATOM     27  C   UNL     1       0.617  11.759  19.633  0.00  0.00    +0.000 A 
BRANCH  22  29
ATOM     28  C   UNL     1      -2.874  11.888  18.190  0.00  0.00    +0.000 C 
ATOM     29  C   UNL     1      -1.598  11.059  18.349  0.00  0.00    +0.000 C 
ATOM     30  C   UNL     1      -1.344  10.022  17.260  0.00  0.00    +0.000 C 
ENDBRANCH  22  29
ENDBRANCH   1  27
TORSDOF 3
ENDMDL
MODEL 9
REMARK VINA RESULT:      -6.9      0.938      2.536
REMARK  Name = 
REMARK  5 active torsions:
REMARK  status: ('A' for Active; 'I' for Inactive)
REMARK    1  A    between atoms: C_1  and  C_2
REMARK    2  A    between atoms: C_2  and  C_3
REMARK    3  A    between atoms: C_2  and  C_4
REMARK    4  A    between atoms: C_9  and  N_10
REMARK    5  A    between atoms: C_11  and  C_13
REMARK                            x       y       z     vdW  Elec       q    Type
REMARK                         _______ _______ _______ _____ _____    ______ ____
ROOT
ATOM      1  N   UNL     1      -0.394  12.176  19.804  0.00  0.00    +0.000 N 
ATOM      2  C   UNL     1      -1.408  12.306  18.836  0.00  0.00    +0.000 C 
ATOM      3  O   UNL     1      -1.134  12.642  17.678  0.00  0.00    +0.000 OA
ATOM      4  C   UNL     1       0.562  13.230  19.767  0.00  0.00    +0.000 A 
ATOM      5  N   UNL     1       0.512  14.257  18.938  0.00  0.00    +0.000 NA
ATOM      6  C   UNL     1       1.503  15.186  19.187  0.00  0.00    +0.000 A 
ATOM      7  C   UNL     1       1.709  16.393  18.482  0.00  0.00    +0.000 A 
ATOM      8  C   UNL     1       2.679  17.303  18.916  0.00  0.00    +0.000 A 
ATOM      9  C   UNL     1       3.462  17.005  20.026  0.00  0.00    +0.000 A 
ATOM     10  C   UNL     1       3.321  15.785  20.701  0.00  0.00    +0.000 A 
ATOM     11  C   UNL     1       2.331  14.881  20.263  0.00  0.00    +0.000 A 
ATOM     12  S   UNL     1       1.903  13.309  20.852  0.00  0.00    +0.000 S 
ENDROOT
BRANCH   2  13
ATOM     13  C   UNL     1      -2.833  12.169  19.167  0.00  0.00    +0.000 A 
ATOM     14  C   UNL     1      -3.459  12.810  20.227  0.00  0.00    +0.000 A 
ATOM     15  C   UNL     1      -4.830  12.503  20.181  0.00  0.00    +0.000 A 
ATOM     16  C   UNL     1      -5.954  12.892  20.938  0.00  0.00    +0.000 A 
ATOM     17  C   UNL     1      -7.210  12.381  20.585  0.00  0.00    +0.000 A 
ATOM     18  C   UNL     1      -7.335  11.490  19.518  0.00  0.00    +0.000 A 
ATOM     19  C   UNL     1      -6.219  11.082  18.763  0.00  0.00    +0.000 A 
ATOM     20  C   UNL     1      -4.978  11.622  19.116  0.00  0.00    +0.000 A 
ATOM     21  O   UNL     1      -3.760  11.398  18.504  0.00  0.00    +0.000 OA
ENDBRANCH   2  13
BRANCH   1  27
ATOM     22  C   UNL     1       0.480   9.963  20.665  0.00  0.00    +0.000 A 
ATOM     23  C   UNL     1       0.590   9.101  21.790  0.00  0.00    +0.000 A 
ATOM     24  C   UNL     1      -0.090   9.341  22.974  0.00  0.00    +0.000 A 
ATOM     25  C   UNL     1      -0.910  10.450  23.068  0.00  0.00    +0.000 A 
ATOM     26  C   UNL     1      -1.013  11.343  21.994  0.00  0.00    +0.000 A 
ATOM     27  C   UNL     1      -0.312  11.141  20.789  0.00  0.00    +0.000 A 
BRANCH  22  29
ATOM     28  C   UNL     1       1.841   8.087  19.767  0.00  0.00    +0.000 C 
ATOM     29  C   UNL     1       1.186   9.427  19.425  0.00  0.00    +0.000 C 
ATOM     30  C   UNL     1       0.417   9.471  18.109  0.00  0.00    +0.000 C 
ENDBRANCH  22  29
ENDBRANCH   1  27
TORSDOF 3
ENDMDL
