MODEL 1
REMARK VINA RESULT:      -6.9      0.000      0.000
REMARK  Name = 
REMARK  2 active torsions:
REMARK  status: ('A' for Active; 'I' for Inactive)
REMARK    1  A    between atoms: C_4  and  C_5
REMARK    2  A    between atoms: C_5  and  N_6
REMARK                            x       y       z     vdW  Elec       q    Type
REMARK                         _______ _______ _______ _____ _____    ______ ____
ROOT
ATOM      1  N   UNL     1       5.604   3.834  18.994  0.00  0.00    +0.000 N 
ATOM      2  C   UNL     1       6.190   5.002  18.475  0.00  0.00    +0.000 A 
ATOM      3  C   UNL     1       7.364   5.469  19.062  0.00  0.00    +0.000 A 
ATOM      4  C   UNL     1       7.957   6.637  18.581  0.00  0.00    +0.000 A 
ATOM      5  C   UNL     1       7.362   7.310  17.525  0.00  0.00    +0.000 A 
ATOM      6  C   UNL     1       6.194   6.790  17.003  0.00  0.00    +0.000 A 
ATOM      7  N   UNL     1       5.603   5.664  17.457  0.00  0.00    +0.000 NA
ATOM      8  H   UNL     1       6.289   3.084  18.990  0.00  0.00    +0.000 HD
ENDROOT
BRANCH   1   9
ATOM      9  C   UNL     1       4.379   3.443  18.306  0.00  0.00    +0.000 C 
BRANCH   9  13
ATOM     10  C   UNL     1       1.179   3.079  21.184  0.00  0.00    +0.000 A 
ATOM     11  C   UNL     1       2.445   2.580  21.482  0.00  0.00    +0.000 A 
ATOM     12  C   UNL     1       3.476   2.688  20.550  0.00  0.00    +0.000 A 
ATOM     13  C   UNL     1       3.252   3.296  19.305  0.00  0.00    +0.000 A 
ATOM     14  C   UNL     1       1.973   3.799  19.018  0.00  0.00    +0.000 A 
ATOM     15  C   UNL     1       0.943   3.689  19.953  0.00  0.00    +0.000 A 
ENDBRANCH   9  13
ENDBRANCH   1   9
TORSDOF 2
ENDMDL
MODEL 2
REMARK VINA RESULT:      -6.9      0.147      1.299
REMARK  Name = 
REMARK  2 active torsions:
REMARK  status: ('A' for Active; 'I' for Inactive)
REMARK    1  A    between atoms: C_4  and  C_5
REMARK    2  A    between atoms: C_5  and  N_6
REMARK                            x       y       z     vdW  Elec       q    Type
REMARK                         _______ _______ _______ _____ _____    ______ ____
ROOT
ATOM      1  N   UNL     1       5.568   3.732  18.813  0.00  0.00    +0.000 N 
ATOM      2  C   UNL     1       6.102   4.946  18.348  0.00  0.00    +0.000 A 
ATOM      3  C   UNL     1       7.317   5.379  18.876  0.00  0.00    +0.000 A 
ATOM      4  C   UNL     1       7.860   6.590  18.448  0.00  0.00    +0.000 A 
ATOM      5  C   UNL     1       7.178   7.341  17.502  0.00  0.00    +0.000 A 
ATOM      6  C   UNL     1       5.975   6.849  17.034  0.00  0.00    +0.000 A 
ATOM      7  N   UNL     1       5.430   5.682  17.439  0.00  0.00    +0.000 NA
ATOM      8  H   UNL     1       6.255   2.994  18.692  0.00  0.00    +0.000 HD
ENDROOT
BRANCH   1   9
ATOM      9  C   UNL     1       4.294   3.383  18.195  0.00  0.00    +0.000 C 
BRANCH   9  13
ATOM     10  C   UNL     1       1.191   3.100  21.188  0.00  0.00    +0.000 A 
ATOM     11  C   UNL     1       0.917   3.683  19.952  0.00  0.00    +0.000 A 
ATOM     12  C   UNL     1       1.921   3.783  18.989  0.00  0.00    +0.000 A 
ATOM     13  C   UNL     1       3.213   3.303  19.252  0.00  0.00    +0.000 A 
ATOM     14  C   UNL     1       3.476   2.715  20.498  0.00  0.00    +0.000 A 
ATOM     15  C   UNL     1       2.470   2.615  21.460  0.00  0.00    +0.000 A 
ENDBRANCH   9  13
ENDBRANCH   1   9
TORSDOF 2
ENDMDL
MODEL 3
REMARK VINA RESULT:      -6.5      0.772      1.922
REMARK  Name = 
REMARK  2 active torsions:
REMARK  status: ('A' for Active; 'I' for Inactive)
REMARK    1  A    between atoms: C_4  and  C_5
REMARK    2  A    between atoms: C_5  and  N_6
REMARK                            x       y       z     vdW  Elec       q    Type
REMARK                         _______ _______ _______ _____ _____    ______ ____
ROOT
ATOM      1  N   UNL     1       4.174   4.534  17.339  0.00  0.00    +0.000 N 
ATOM      2  C   UNL     1       5.372   5.210  17.629  0.00  0.00    +0.000 A 
ATOM      3  C   UNL     1       5.546   6.495  17.119  0.00  0.00    +0.000 A 
ATOM      4  C   UNL     1       6.733   7.181  17.374  0.00  0.00    +0.000 A 
ATOM      5  C   UNL     1       7.719   6.568  18.133  0.00  0.00    +0.000 A 
ATOM      6  C   UNL     1       7.475   5.289  18.595  0.00  0.00    +0.000 A 
ATOM      7  N   UNL     1       6.336   4.606  18.355  0.00  0.00    +0.000 NA
ATOM      8  H   UNL     1       3.386   5.106  17.628  0.00  0.00    +0.000 HD
ENDROOT
BRANCH   1   9
ATOM      9  C   UNL     1       4.105   3.198  17.920  0.00  0.00    +0.000 C 
BRANCH   9  13
ATOM     10  C   UNL     1       1.276   3.104  21.183  0.00  0.00    +0.000 A 
ATOM     11  C   UNL     1       0.882   3.576  19.932  0.00  0.00    +0.000 A 
ATOM     12  C   UNL     1       1.798   3.615  18.881  0.00  0.00    +0.000 A 
ATOM     13  C   UNL     1       3.121   3.185  19.069  0.00  0.00    +0.000 A 
ATOM     14  C   UNL     1       3.503   2.709  20.332  0.00  0.00    +0.000 A 
ATOM     15  C   UNL     1       2.585   2.669  21.383  0.00  0.00    +0.000 A 
ENDBRANCH   9  13
ENDBRANCH   1   9
TORSDOF 2
ENDMDL
MODEL 4
REMARK VINA RESULT:      -6.5      1.605      5.815
REMARK  Name = 
REMARK  2 active torsions:
REMARK  status: ('A' for Active; 'I' for Inactive)
REMARK    1  A    between atoms: C_4  and  C_5
REMARK    2  A    between atoms: C_5  and  N_6
REMARK                            x       y       z     vdW  Elec       q    Type
REMARK                         _______ _______ _______ _____ _____    ______ ____
ROOT
ATOM      1  N   UNL     1       4.855   3.105  17.187  0.00  0.00    +0.000 N 
ATOM      2  C   UNL     1       3.566   3.072  17.745  0.00  0.00    +0.000 A 
ATOM      3  C   UNL     1       3.221   1.985  18.547  0.00  0.00    +0.000 A 
ATOM      4  C   UNL     1       1.942   1.916  19.098  0.00  0.00    +0.000 A 
ATOM      5  C   UNL     1       1.037   2.934  18.836  0.00  0.00    +0.000 A 
ATOM      6  C   UNL     1       1.451   3.972  18.025  0.00  0.00    +0.000 A 
ATOM      7  N   UNL     1       2.683   4.055  17.478  0.00  0.00    +0.000 NA
ATOM      8  H   UNL     1       5.545   3.016  17.927  0.00  0.00    +0.000 HD
ENDROOT
BRANCH   1   9
ATOM      9  C   UNL     1       5.103   4.284  16.364  0.00  0.00    +0.000 C 
BRANCH   9  13
ATOM     10  C   UNL     1       7.886   6.901  18.380  0.00  0.00    +0.000 A 
ATOM     11  C   UNL     1       7.062   7.402  17.374  0.00  0.00    +0.000 A 
ATOM     12  C   UNL     1       6.170   6.555  16.716  0.00  0.00    +0.000 A 
ATOM     13  C   UNL     1       6.094   5.195  17.055  0.00  0.00    +0.000 A 
ATOM     14  C   UNL     1       6.926   4.704  18.072  0.00  0.00    +0.000 A 
ATOM     15  C   UNL     1       7.818   5.553  18.730  0.00  0.00    +0.000 A 
ENDBRANCH   9  13
ENDBRANCH   1   9
TORSDOF 2
ENDMDL
MODEL 5
REMARK VINA RESULT:      -6.5      1.627      5.702
REMARK  Name = 
REMARK  2 active torsions:
REMARK  status: ('A' for Active; 'I' for Inactive)
REMARK    1  A    between atoms: C_4  and  C_5
REMARK    2  A    between atoms: C_5  and  N_6
REMARK                            x       y       z     vdW  Elec       q    Type
REMARK                         _______ _______ _______ _____ _____    ______ ____
ROOT
ATOM      1  N   UNL     1       4.868   3.275  17.116  0.00  0.00    +0.000 N 
ATOM      2  C   UNL     1       3.582   3.173  17.674  0.00  0.00    +0.000 A 
ATOM      3  C   UNL     1       3.254   2.011  18.369  0.00  0.00    +0.000 A 
ATOM      4  C   UNL     1       1.979   1.873  18.916  0.00  0.00    +0.000 A 
ATOM      5  C   UNL     1       1.061   2.901  18.757  0.00  0.00    +0.000 A 
ATOM      6  C   UNL     1       1.459   4.017  18.048  0.00  0.00    +0.000 A 
ATOM      7  N   UNL     1       2.686   4.167  17.506  0.00  0.00    +0.000 NA
ATOM      8  H   UNL     1       5.563   3.124  17.841  0.00  0.00    +0.000 HD
ENDROOT
BRANCH   1   9
ATOM      9  C   UNL     1       5.098   4.530  16.409  0.00  0.00    +0.000 C 
BRANCH   9  13
ATOM     10  C   UNL     1       8.016   6.908  18.529  0.00  0.00    +0.000 A 
ATOM     11  C   UNL     1       7.764   5.596  18.926  0.00  0.00    +0.000 A 
ATOM     12  C   UNL     1       6.816   4.831  18.248  0.00  0.00    +0.000 A 
ATOM     13  C   UNL     1       6.103   5.371  17.165  0.00  0.00    +0.000 A 
ATOM     14  C   UNL     1       6.368   6.692  16.773  0.00  0.00    +0.000 A 
ATOM     15  C   UNL     1       7.318   7.456  17.453  0.00  0.00    +0.000 A 
ENDBRANCH   9  13
ENDBRANCH   1   9
TORSDOF 2
ENDMDL
MODEL 6
REMARK VINA RESULT:      -6.5      0.899      1.511
REMARK  Name = 
REMARK  2 active torsions:
REMARK  status: ('A' for Active; 'I' for Inactive)
REMARK    1  A    between atoms: C_4  and  C_5
REMARK    2  A    between atoms: C_5  and  N_6
REMARK                            x       y       z     vdW  Elec       q    Type
REMARK                         _______ _______ _______ _____ _____    ______ ____
ROOT
ATOM      1  N   UNL     1       4.078   4.172  17.266  0.00  0.00    +0.000 N 
ATOM      2  C   UNL     1       5.221   4.937  17.555  0.00  0.00    +0.000 A 
ATOM      3  C   UNL     1       5.338   6.196  16.969  0.00  0.00    +0.000 A 
ATOM      4  C   UNL     1       6.471   6.969  17.222  0.00  0.00    +0.000 A 
ATOM      5  C   UNL     1       7.460   6.467  18.055  0.00  0.00    +0.000 A 
ATOM      6  C   UNL     1       7.274   5.207  18.590  0.00  0.00    +0.000 A 
ATOM      7  N   UNL     1       6.188   4.442  18.354  0.00  0.00    +0.000 NA
ATOM      8  H   UNL     1       3.246   4.711  17.487  0.00  0.00    +0.000 HD
ENDROOT
BRANCH   1   9
ATOM      9  C   UNL     1       4.064   2.873  17.929  0.00  0.00    +0.000 C 
BRANCH   9  13
ATOM     10  C   UNL     1       1.216   2.967  21.176  0.00  0.00    +0.000 A 
ATOM     11  C   UNL     1       2.561   2.706  21.435  0.00  0.00    +0.000 A 
ATOM     12  C   UNL     1       3.479   2.666  20.386  0.00  0.00    +0.000 A 
ATOM     13  C   UNL     1       3.063   2.884  19.064  0.00  0.00    +0.000 A 
ATOM     14  C   UNL     1       1.707   3.149  18.817  0.00  0.00    +0.000 A 
ATOM     15  C   UNL     1       0.790   3.189  19.867  0.00  0.00    +0.000 A 
ENDBRANCH   9  13
ENDBRANCH   1   9
TORSDOF 2
ENDMDL
MODEL 7
REMARK VINA RESULT:      -6.5      1.660      5.977
REMARK  Name = 
REMARK  2 active torsions:
REMARK  status: ('A' for Active; 'I' for Inactive)
REMARK    1  A    between atoms: C_4  and  C_5
REMARK    2  A    between atoms: C_5  and  N_6
REMARK                            x       y       z     vdW  Elec       q    Type
REMARK                         _______ _______ _______ _____ _____    ______ ____
ROOT
ATOM      1  N   UNL     1       3.220   5.731  18.584  0.00  0.00    +0.000 N 
ATOM      2  C   UNL     1       2.489   4.555  18.826  0.00  0.00    +0.000 A 
ATOM      3  C   UNL     1       1.615   4.532  19.911  0.00  0.00    +0.000 A 
ATOM      4  C   UNL     1       0.892   3.372  20.187  0.00  0.00    +0.000 A 
ATOM      5  C   UNL     1       1.058   2.262  19.373  0.00  0.00    +0.000 A 
ATOM      6  C   UNL     1       1.950   2.360  18.323  0.00  0.00    +0.000 A 
ATOM      7  N   UNL     1       2.663   3.471  18.042  0.00  0.00    +0.000 NA
ATOM      8  H   UNL     1       2.580   6.514  18.500  0.00  0.00    +0.000 HD
ENDROOT
BRANCH   1   9
ATOM      9  C   UNL     1       4.105   5.638  17.428  0.00  0.00    +0.000 C 
BRANCH   9  13
ATOM     10  C   UNL     1       8.110   6.740  18.612  0.00  0.00    +0.000 A 
ATOM     11  C   UNL     1       7.478   7.422  17.574  0.00  0.00    +0.000 A 
ATOM     12  C   UNL     1       6.188   7.060  17.185  0.00  0.00    +0.000 A 
ATOM     13  C   UNL     1       5.517   6.009  17.828  0.00  0.00    +0.000 A 
ATOM     14  C   UNL     1       6.163   5.333  18.874  0.00  0.00    +0.000 A 
ATOM     15  C   UNL     1       7.453   5.697  19.263  0.00  0.00    +0.000 A 
ENDBRANCH   9  13
ENDBRANCH   1   9
TORSDOF 2
ENDMDL
MODEL 8
REMARK VINA RESULT:      -6.4      1.080      1.804
REMARK  Name = 
REMARK  2 active torsions:
REMARK  status: ('A' for Active; 'I' for Inactive)
REMARK    1  A    between atoms: C_4  and  C_5
REMARK    2  A    between atoms: C_5  and  N_6
REMARK                            x       y       z     vdW  Elec       q    Type
REMARK                         _______ _______ _______ _____ _____    ______ ____
ROOT
ATOM      1  N   UNL     1       4.948   3.954  17.798  0.00  0.00    +0.000 N 
ATOM      2  C   UNL     1       5.965   4.883  18.075  0.00  0.00    +0.000 A 
ATOM      3  C   UNL     1       6.317   5.794  17.081  0.00  0.00    +0.000 A 
ATOM      4  C   UNL     1       7.337   6.714  17.321  0.00  0.00    +0.000 A 
ATOM      5  C   UNL     1       7.980   6.705  18.549  0.00  0.00    +0.000 A 
ATOM      6  C   UNL     1       7.581   5.766  19.480  0.00  0.00    +0.000 A 
ATOM      7  N   UNL     1       6.600   4.863  19.265  0.00  0.00    +0.000 NA
ATOM      8  H   UNL     1       4.112   4.448  17.500  0.00  0.00    +0.000 HD
ENDROOT
BRANCH   1   9
ATOM      9  C   UNL     1       4.667   3.050  18.908  0.00  0.00    +0.000 C 
BRANCH   9  13
ATOM     10  C   UNL     1       0.494   3.228  20.010  0.00  0.00    +0.000 A 
ATOM     11  C   UNL     1       0.895   2.460  18.918  0.00  0.00    +0.000 A 
ATOM     12  C   UNL     1       2.241   2.410  18.556  0.00  0.00    +0.000 A 
ATOM     13  C   UNL     1       3.203   3.130  19.281  0.00  0.00    +0.000 A 
ATOM     14  C   UNL     1       2.787   3.897  20.380  0.00  0.00    +0.000 A 
ATOM     15  C   UNL     1       1.440   3.946  20.741  0.00  0.00    +0.000 A 
ENDBRANCH   9  13
ENDBRANCH   1   9
TORSDOF 2
ENDMDL
MODEL 9
REMARK VINA RESULT:      -6.4      1.546      2.041
REMARK  Name = 
REMARK  2 active torsions:
REMARK  status: ('A' for Active; 'I' for Inactive)
REMARK    1  A    between atoms: C_4  and  C_5
REMARK    2  A    between atoms: C_5  and  N_6
REMARK                            x       y       z     vdW  Elec       q    Type
REMARK                         _______ _______ _______ _____ _____    ______ ____
ROOT
ATOM      1  N   UNL     1       3.729   5.151  17.265  0.00  0.00    +0.000 N 
ATOM      2  C   UNL     1       5.089   5.137  17.619  0.00  0.00    +0.000 A 
ATOM      3  C   UNL     1       5.995   4.553  16.735  0.00  0.00    +0.000 A 
ATOM      4  C   UNL     1       7.349   4.506  17.069  0.00  0.00    +0.000 A 
ATOM      5  C   UNL     1       7.766   5.045  18.277  0.00  0.00    +0.000 A 
ATOM      6  C   UNL     1       6.806   5.598  19.102  0.00  0.00    +0.000 A 
ATOM      7  N   UNL     1       5.491   5.648  18.800  0.00  0.00    +0.000 NA
ATOM      8  H   UNL     1       3.622   5.588  16.355  0.00  0.00    +0.000 HD
ENDROOT
BRANCH   1   9
ATOM      9  C   UNL     1       2.875   5.782  18.265  0.00  0.00    +0.000 C 
BRANCH   9  13
ATOM     10  C   UNL     1       1.143   2.814  20.884  0.00  0.00    +0.000 A 
ATOM     11  C   UNL     1       2.008   3.778  21.398  0.00  0.00    +0.000 A 
ATOM     12  C   UNL     1       2.575   4.730  20.551  0.00  0.00    +0.000 A 
ATOM     13  C   UNL     1       2.286   4.728  19.178  0.00  0.00    +0.000 A 
ATOM     14  C   UNL     1       1.410   3.755  18.673  0.00  0.00    +0.000 A 
ATOM     15  C   UNL     1       0.844   2.803  19.522  0.00  0.00    +0.000 A 
ENDBRANCH   9  13
ENDBRANCH   1   9
TORSDOF 2
ENDMDL
