MODEL 1
REMARK VINA RESULT:      -8.3      0.000      0.000
REMARK  Name = 
REMARK  6 active torsions:
REMARK  status: ('A' for Active; 'I' for Inactive)
REMARK    1  A    between atoms: C_1  and  S_2
REMARK    2  A    between atoms: S_2  and  N_5
REMARK    3  A    between atoms: N_5  and  C_6
REMARK    4  A    between atoms: C_9  and  N_10
REMARK    5  A    between atoms: C_14  and  O_15
REMARK    6  A    between atoms: O_15  and  C_16
REMARK                            x       y       z     vdW  Elec       q    Type
REMARK                         _______ _______ _______ _____ _____    ______ ____
ROOT
ATOM      1  C   UNL     1       3.147   4.451  17.788  0.00  0.00    +0.000 A 
ATOM      2  C   UNL     1       3.778   3.768  16.744  0.00  0.00    +0.000 A 
ATOM      3  C   UNL     1       5.099   4.065  16.399  0.00  0.00    +0.000 A 
ATOM      4  C   UNL     1       5.771   5.082  17.085  0.00  0.00    +0.000 A 
ATOM      5  C   UNL     1       5.135   5.790  18.108  0.00  0.00    +0.000 A 
ATOM      6  C   UNL     1       3.841   5.424  18.516  0.00  0.00    +0.000 A 
ENDROOT
BRANCH   4   7
ATOM      7  N   UNL     1       7.169   5.383  16.770  0.00  0.00    +0.000 N 
ATOM      8  O   UNL     1       7.474   6.565  16.565  0.00  0.00    +0.000 OA
ATOM      9  O   UNL     1       7.966   4.434  16.717  0.00  0.00    +0.000 OA
ENDBRANCH   4   7
BRANCH   1  10
ATOM     10  N   UNL     1       1.791   4.114  18.051  0.00  0.00    +0.000 N 
ATOM     11  H   UNL     1       1.108   4.868  18.060  0.00  0.00    +0.000 HD
BRANCH  10  13
ATOM     12  C   UNL     1       0.958   3.651  20.566  0.00  0.00    +0.000 C 
ATOM     13  S   UNL     1       1.437   2.822  19.067  0.00  0.00    +0.000 S 
ATOM     14  O   UNL     1       2.629   2.049  19.315  0.00  0.00    +0.000 OA
ATOM     15  O   UNL     1       0.238   2.220  18.523  0.00  0.00    +0.000 OA
ENDBRANCH  10  13
ENDBRANCH   1  10
BRANCH   6  16
ATOM     16  O   UNL     1       3.230   6.023  19.601  0.00  0.00    +0.000 OA
BRANCH  16  17
ATOM     17  C   UNL     1       2.512   7.187  19.388  0.00  0.00    +0.000 A 
ATOM     18  C   UNL     1       2.554   7.722  18.099  0.00  0.00    +0.000 A 
ATOM     19  C   UNL     1       1.876   8.910  17.810  0.00  0.00    +0.000 A 
ATOM     20  C   UNL     1       1.159   9.569  18.809  0.00  0.00    +0.000 A 
ATOM     21  C   UNL     1       1.103   9.024  20.091  0.00  0.00    +0.000 A 
ATOM     22  I   UNL     1       0.080  10.028  21.598  0.00  0.00    +0.000 I 
ATOM     23  C   UNL     1       1.748   7.820  20.378  0.00  0.00    +0.000 A 
ENDBRANCH  16  17
ENDBRANCH   6  16
TORSDOF 5
ENDMDL
MODEL 2
REMARK VINA RESULT:      -7.9      1.829      4.451
REMARK  Name = 
REMARK  6 active torsions:
REMARK  status: ('A' for Active; 'I' for Inactive)
REMARK    1  A    between atoms: C_1  and  S_2
REMARK    2  A    between atoms: S_2  and  N_5
REMARK    3  A    between atoms: N_5  and  C_6
REMARK    4  A    between atoms: C_9  and  N_10
REMARK    5  A    between atoms: C_14  and  O_15
REMARK    6  A    between atoms: O_15  and  C_16
REMARK                            x       y       z     vdW  Elec       q    Type
REMARK                         _______ _______ _______ _____ _____    ______ ____
ROOT
ATOM      1  C   UNL     1       4.066   4.906  17.413  0.00  0.00    +0.000 A 
ATOM      2  C   UNL     1       3.708   3.658  16.895  0.00  0.00    +0.000 A 
ATOM      3  C   UNL     1       2.659   2.930  17.464  0.00  0.00    +0.000 A 
ATOM      4  C   UNL     1       1.998   3.447  18.583  0.00  0.00    +0.000 A 
ATOM      5  C   UNL     1       2.374   4.679  19.125  0.00  0.00    +0.000 A 
ATOM      6  C   UNL     1       3.363   5.451  18.493  0.00  0.00    +0.000 A 
ENDROOT
BRANCH   4   7
ATOM      7  N   UNL     1       0.869   2.722  19.171  0.00  0.00    +0.000 N 
ATOM      8  O   UNL     1       0.671   2.848  20.386  0.00  0.00    +0.000 OA
ATOM      9  O   UNL     1       0.182   2.015  18.417  0.00  0.00    +0.000 OA
ENDBRANCH   4   7
BRANCH   1  10
ATOM     10  N   UNL     1       5.167   5.565  16.800  0.00  0.00    +0.000 N 
ATOM     11  H   UNL     1       5.076   5.831  15.823  0.00  0.00    +0.000 HD
BRANCH  10  13
ATOM     12  C   UNL     1       7.370   6.817  17.701  0.00  0.00    +0.000 C 
ATOM     13  S   UNL     1       6.733   5.206  17.297  0.00  0.00    +0.000 S 
ATOM     14  O   UNL     1       7.488   4.663  16.194  0.00  0.00    +0.000 OA
ATOM     15  O   UNL     1       6.588   4.491  18.547  0.00  0.00    +0.000 OA
ENDBRANCH  10  13
ENDBRANCH   1  10
BRANCH   6  16
ATOM     16  O   UNL     1       3.674   6.724  18.931  0.00  0.00    +0.000 OA
BRANCH  16  17
ATOM     17  C   UNL     1       2.652   7.653  19.024  0.00  0.00    +0.000 A 
ATOM     18  C   UNL     1       2.298   8.314  17.847  0.00  0.00    +0.000 A 
ATOM     19  C   UNL     1       1.293   9.285  17.863  0.00  0.00    +0.000 A 
ATOM     20  C   UNL     1       0.643   9.602  19.057  0.00  0.00    +0.000 A 
ATOM     21  C   UNL     1       0.985   8.928  20.228  0.00  0.00    +0.000 A 
ATOM     22  I   UNL     1       0.058   9.432  22.020  0.00  0.00    +0.000 I 
ATOM     23  C   UNL     1       1.963   7.933  20.212  0.00  0.00    +0.000 A 
ENDBRANCH  16  17
ENDBRANCH   6  16
TORSDOF 5
ENDMDL
MODEL 3
REMARK VINA RESULT:      -7.7      1.849      4.519
REMARK  Name = 
REMARK  6 active torsions:
REMARK  status: ('A' for Active; 'I' for Inactive)
REMARK    1  A    between atoms: C_1  and  S_2
REMARK    2  A    between atoms: S_2  and  N_5
REMARK    3  A    between atoms: N_5  and  C_6
REMARK    4  A    between atoms: C_9  and  N_10
REMARK    5  A    between atoms: C_14  and  O_15
REMARK    6  A    between atoms: O_15  and  C_16
REMARK                            x       y       z     vdW  Elec       q    Type
REMARK                         _______ _______ _______ _____ _____    ______ ____
ROOT
ATOM      1  C   UNL     1       3.955   5.142  17.224  0.00  0.00    +0.000 A 
ATOM      2  C   UNL     1       3.618   3.881  16.722  0.00  0.00    +0.000 A 
ATOM      3  C   UNL     1       2.630   3.112  17.344  0.00  0.00    +0.000 A 
ATOM      4  C   UNL     1       2.010   3.602  18.498  0.00  0.00    +0.000 A 
ATOM      5  C   UNL     1       2.366   4.848  19.022  0.00  0.00    +0.000 A 
ATOM      6  C   UNL     1       3.289   5.658  18.341  0.00  0.00    +0.000 A 
ENDROOT
BRANCH   4   7
ATOM      7  N   UNL     1       0.943   2.833  19.143  0.00  0.00    +0.000 N 
ATOM      8  O   UNL     1       0.822   2.931  20.371  0.00  0.00    +0.000 OA
ATOM      9  O   UNL     1       0.228   2.121  18.421  0.00  0.00    +0.000 OA
ENDBRANCH   4   7
BRANCH   1  10
ATOM     10  N   UNL     1       4.995   5.844  16.555  0.00  0.00    +0.000 N 
ATOM     11  H   UNL     1       4.773   6.288  15.667  0.00  0.00    +0.000 HD
BRANCH  10  13
ATOM     12  C   UNL     1       6.801   4.352  15.234  0.00  0.00    +0.000 C 
ATOM     13  S   UNL     1       6.585   5.320  16.710  0.00  0.00    +0.000 S 
ATOM     14  O   UNL     1       6.711   4.460  17.862  0.00  0.00    +0.000 OA
ATOM     15  O   UNL     1       7.400   6.506  16.553  0.00  0.00    +0.000 OA
ENDBRANCH  10  13
ENDBRANCH   1  10
BRANCH   6  16
ATOM     16  O   UNL     1       3.574   6.942  18.765  0.00  0.00    +0.000 OA
BRANCH  16  17
ATOM     17  C   UNL     1       2.519   7.820  18.950  0.00  0.00    +0.000 A 
ATOM     18  C   UNL     1       2.076   8.512  17.822  0.00  0.00    +0.000 A 
ATOM     19  C   UNL     1       1.032   9.436  17.931  0.00  0.00    +0.000 A 
ATOM     20  C   UNL     1       0.433   9.674  19.169  0.00  0.00    +0.000 A 
ATOM     21  C   UNL     1       0.864   8.968  20.291  0.00  0.00    +0.000 A 
ATOM     22  I   UNL     1       0.011   9.354  22.148  0.00  0.00    +0.000 I 
ATOM     23  C   UNL     1       1.882   8.019  20.182  0.00  0.00    +0.000 A 
ENDBRANCH  16  17
ENDBRANCH   6  16
TORSDOF 5
ENDMDL
MODEL 4
REMARK VINA RESULT:      -7.6      0.953      1.146
REMARK  Name = 
REMARK  6 active torsions:
REMARK  status: ('A' for Active; 'I' for Inactive)
REMARK    1  A    between atoms: C_1  and  S_2
REMARK    2  A    between atoms: S_2  and  N_5
REMARK    3  A    between atoms: N_5  and  C_6
REMARK    4  A    between atoms: C_9  and  N_10
REMARK    5  A    between atoms: C_14  and  O_15
REMARK    6  A    between atoms: O_15  and  C_16
REMARK                            x       y       z     vdW  Elec       q    Type
REMARK                         _______ _______ _______ _____ _____    ______ ____
ROOT
ATOM      1  C   UNL     1       3.169   4.659  17.776  0.00  0.00    +0.000 A 
ATOM      2  C   UNL     1       3.788   3.992  16.713  0.00  0.00    +0.000 A 
ATOM      3  C   UNL     1       5.061   4.374  16.283  0.00  0.00    +0.000 A 
ATOM      4  C   UNL     1       5.694   5.458  16.902  0.00  0.00    +0.000 A 
ATOM      5  C   UNL     1       5.066   6.148  17.942  0.00  0.00    +0.000 A 
ATOM      6  C   UNL     1       3.829   5.701  18.435  0.00  0.00    +0.000 A 
ENDROOT
BRANCH   4   7
ATOM      7  N   UNL     1       7.045   5.850  16.496  0.00  0.00    +0.000 N 
ATOM      8  O   UNL     1       7.726   6.495  17.303  0.00  0.00    +0.000 OA
ATOM      9  O   UNL     1       7.426   5.520  15.362  0.00  0.00    +0.000 OA
ENDBRANCH   4   7
BRANCH   1  10
ATOM     10  N   UNL     1       1.858   4.232  18.127  0.00  0.00    +0.000 N 
ATOM     11  H   UNL     1       1.079   4.834  17.872  0.00  0.00    +0.000 HD
BRANCH  10  13
ATOM     12  C   UNL     1       0.570   2.015  18.936  0.00  0.00    +0.000 C 
ATOM     13  S   UNL     1       1.627   3.321  19.521  0.00  0.00    +0.000 S 
ATOM     14  O   UNL     1       0.915   4.098  20.506  0.00  0.00    +0.000 OA
ATOM     15  O   UNL     1       2.911   2.720  19.808  0.00  0.00    +0.000 OA
ENDBRANCH  10  13
ENDBRANCH   1  10
BRANCH   6  16
ATOM     16  O   UNL     1       3.238   6.286  19.538  0.00  0.00    +0.000 OA
BRANCH  16  17
ATOM     17  C   UNL     1       2.453   7.411  19.343  0.00  0.00    +0.000 A 
ATOM     18  C   UNL     1       2.416   7.930  18.047  0.00  0.00    +0.000 A 
ATOM     19  C   UNL     1       1.667   9.078  17.774  0.00  0.00    +0.000 A 
ATOM     20  C   UNL     1       0.959   9.714  18.795  0.00  0.00    +0.000 A 
ATOM     21  C   UNL     1       0.983   9.183  20.084  0.00  0.00    +0.000 A 
ATOM     22  I   UNL     1      -0.027  10.153  21.621  0.00  0.00    +0.000 I 
ATOM     23  C   UNL     1       1.700   8.017  20.357  0.00  0.00    +0.000 A 
ENDBRANCH  16  17
ENDBRANCH   6  16
TORSDOF 5
ENDMDL
MODEL 5
REMARK VINA RESULT:      -7.6      1.854      4.447
REMARK  Name = 
REMARK  6 active torsions:
REMARK  status: ('A' for Active; 'I' for Inactive)
REMARK    1  A    between atoms: C_1  and  S_2
REMARK    2  A    between atoms: S_2  and  N_5
REMARK    3  A    between atoms: N_5  and  C_6
REMARK    4  A    between atoms: C_9  and  N_10
REMARK    5  A    between atoms: C_14  and  O_15
REMARK    6  A    between atoms: O_15  and  C_16
REMARK                            x       y       z     vdW  Elec       q    Type
REMARK                         _______ _______ _______ _____ _____    ______ ____
ROOT
ATOM      1  C   UNL     1       4.000   5.240  17.231  0.00  0.00    +0.000 A 
ATOM      2  C   UNL     1       3.708   3.935  16.822  0.00  0.00    +0.000 A 
ATOM      3  C   UNL     1       2.702   3.202  17.457  0.00  0.00    +0.000 A 
ATOM      4  C   UNL     1       2.015   3.776  18.533  0.00  0.00    +0.000 A 
ATOM      5  C   UNL     1       2.325   5.068  18.966  0.00  0.00    +0.000 A 
ATOM      6  C   UNL     1       3.270   5.835  18.265  0.00  0.00    +0.000 A 
ENDROOT
BRANCH   4   7
ATOM      7  N   UNL     1       0.929   3.043  19.186  0.00  0.00    +0.000 N 
ATOM      8  O   UNL     1       0.287   2.233  18.506  0.00  0.00    +0.000 OA
ATOM      9  O   UNL     1       0.709   3.284  20.383  0.00  0.00    +0.000 OA
ENDBRANCH   4   7
BRANCH   1  10
ATOM     10  N   UNL     1       5.062   5.904  16.557  0.00  0.00    +0.000 N 
ATOM     11  H   UNL     1       4.907   6.190  15.593  0.00  0.00    +0.000 HD
BRANCH  10  13
ATOM     12  C   UNL     1       6.578   5.350  18.708  0.00  0.00    +0.000 C 
ATOM     13  S   UNL     1       6.654   5.524  16.939  0.00  0.00    +0.000 S 
ATOM     14  O   UNL     1       7.518   6.632  16.611  0.00  0.00    +0.000 OA
ATOM     15  O   UNL     1       6.876   4.199  16.399  0.00  0.00    +0.000 OA
ENDBRANCH  10  13
ENDBRANCH   1  10
BRANCH   6  16
ATOM     16  O   UNL     1       3.513   7.156  18.593  0.00  0.00    +0.000 OA
BRANCH  16  17
ATOM     17  C   UNL     1       2.428   7.977  18.852  0.00  0.00    +0.000 A 
ATOM     18  C   UNL     1       1.877   8.649  17.759  0.00  0.00    +0.000 A 
ATOM     19  C   UNL     1       0.796   9.516  17.942  0.00  0.00    +0.000 A 
ATOM     20  C   UNL     1       0.267   9.719  19.218  0.00  0.00    +0.000 A 
ATOM     21  C   UNL     1       0.807   9.032  20.305  0.00  0.00    +0.000 A 
ATOM     22  I   UNL     1       0.058   9.368  22.215  0.00  0.00    +0.000 I 
ATOM     23  C   UNL     1       1.863   8.138  20.124  0.00  0.00    +0.000 A 
ENDBRANCH  16  17
ENDBRANCH   6  16
TORSDOF 5
ENDMDL
MODEL 6
REMARK VINA RESULT:      -7.5      1.464      1.629
REMARK  Name = 
REMARK  6 active torsions:
REMARK  status: ('A' for Active; 'I' for Inactive)
REMARK    1  A    between atoms: C_1  and  S_2
REMARK    2  A    between atoms: S_2  and  N_5
REMARK    3  A    between atoms: N_5  and  C_6
REMARK    4  A    between atoms: C_9  and  N_10
REMARK    5  A    between atoms: C_14  and  O_15
REMARK    6  A    between atoms: O_15  and  C_16
REMARK                            x       y       z     vdW  Elec       q    Type
REMARK                         _______ _______ _______ _____ _____    ______ ____
ROOT
ATOM      1  C   UNL     1       4.065   5.199  19.316  0.00  0.00    +0.000 A 
ATOM      2  C   UNL     1       5.398   4.882  19.599  0.00  0.00    +0.000 A 
ATOM      3  C   UNL     1       6.430   5.388  18.804  0.00  0.00    +0.000 A 
ATOM      4  C   UNL     1       6.112   6.185  17.699  0.00  0.00    +0.000 A 
ATOM      5  C   UNL     1       4.781   6.477  17.392  0.00  0.00    +0.000 A 
ATOM      6  C   UNL     1       3.753   6.047  18.248  0.00  0.00    +0.000 A 
ENDROOT
BRANCH   4   7
ATOM      7  N   UNL     1       7.179   6.761  16.876  0.00  0.00    +0.000 N 
ATOM      8  O   UNL     1       7.612   7.876  17.191  0.00  0.00    +0.000 OA
ATOM      9  O   UNL     1       7.580   6.100  15.906  0.00  0.00    +0.000 OA
ENDBRANCH   4   7
BRANCH   1  10
ATOM     10  N   UNL     1       3.073   4.613  20.150  0.00  0.00    +0.000 N 
ATOM     11  H   UNL     1       3.148   4.765  21.153  0.00  0.00    +0.000 HD
BRANCH  10  13
ATOM     12  C   UNL     1       1.627   2.619  21.229  0.00  0.00    +0.000 C 
ATOM     13  S   UNL     1       2.363   3.158  19.701  0.00  0.00    +0.000 S 
ATOM     14  O   UNL     1       3.380   2.213  19.309  0.00  0.00    +0.000 OA
ATOM     15  O   UNL     1       1.274   3.515  18.818  0.00  0.00    +0.000 OA
ENDBRANCH  10  13
ENDBRANCH   1  10
BRANCH   6  16
ATOM     16  O   UNL     1       2.438   6.419  18.041  0.00  0.00    +0.000 OA
BRANCH  16  17
ATOM     17  C   UNL     1       2.018   7.642  18.536  0.00  0.00    +0.000 A 
ATOM     18  C   UNL     1       2.072   8.725  17.658  0.00  0.00    +0.000 A 
ATOM     19  C   UNL     1       1.689   9.998  18.090  0.00  0.00    +0.000 A 
ATOM     20  C   UNL     1       1.256  10.192  19.403  0.00  0.00    +0.000 A 
ATOM     21  C   UNL     1       1.185   9.105  20.273  0.00  0.00    +0.000 A 
ATOM     22  I   UNL     1       0.590   9.396  22.244  0.00  0.00    +0.000 I 
ATOM     23  C   UNL     1       1.532   7.826  19.838  0.00  0.00    +0.000 A 
ENDBRANCH  16  17
ENDBRANCH   6  16
TORSDOF 5
ENDMDL
MODEL 7
REMARK VINA RESULT:      -7.5      1.037      1.074
REMARK  Name = 
REMARK  6 active torsions:
REMARK  status: ('A' for Active; 'I' for Inactive)
REMARK    1  A    between atoms: C_1  and  S_2
REMARK    2  A    between atoms: S_2  and  N_5
REMARK    3  A    between atoms: N_5  and  C_6
REMARK    4  A    between atoms: C_9  and  N_10
REMARK    5  A    between atoms: C_14  and  O_15
REMARK    6  A    between atoms: O_15  and  C_16
REMARK                            x       y       z     vdW  Elec       q    Type
REMARK                         _______ _______ _______ _____ _____    ______ ____
ROOT
ATOM      1  C   UNL     1       3.016   4.536  18.039  0.00  0.00    +0.000 A 
ATOM      2  C   UNL     1       3.504   3.772  16.974  0.00  0.00    +0.000 A 
ATOM      3  C   UNL     1       4.669   4.154  16.303  0.00  0.00    +0.000 A 
ATOM      4  C   UNL     1       5.321   5.332  16.684  0.00  0.00    +0.000 A 
ATOM      5  C   UNL     1       4.819   6.117  17.726  0.00  0.00    +0.000 A 
ATOM      6  C   UNL     1       3.703   5.679  18.460  0.00  0.00    +0.000 A 
ENDROOT
BRANCH   4   7
ATOM      7  N   UNL     1       6.566   5.731  16.024  0.00  0.00    +0.000 N 
ATOM      8  O   UNL     1       7.403   6.349  16.695  0.00  0.00    +0.000 OA
ATOM      9  O   UNL     1       6.705   5.434  14.828  0.00  0.00    +0.000 OA
ENDBRANCH   4   7
BRANCH   1  10
ATOM     10  N   UNL     1       1.806   4.098  18.643  0.00  0.00    +0.000 N 
ATOM     11  H   UNL     1       1.100   4.800  18.852  0.00  0.00    +0.000 HD
BRANCH  10  13
ATOM     12  C   UNL     1       3.498   2.805  20.284  0.00  0.00    +0.000 C 
ATOM     13  S   UNL     1       1.825   2.776  19.681  0.00  0.00    +0.000 S 
ATOM     14  O   UNL     1       1.614   1.560  18.934  0.00  0.00    +0.000 OA
ATOM     15  O   UNL     1       0.974   3.144  20.792  0.00  0.00    +0.000 OA
ENDBRANCH  10  13
ENDBRANCH   1  10
BRANCH   6  16
ATOM     16  O   UNL     1       3.254   6.369  19.570  0.00  0.00    +0.000 OA
BRANCH  16  17
ATOM     17  C   UNL     1       2.438   7.470  19.372  0.00  0.00    +0.000 A 
ATOM     18  C   UNL     1       2.358   7.963  18.068  0.00  0.00    +0.000 A 
ATOM     19  C   UNL     1       1.575   9.087  17.791  0.00  0.00    +0.000 A 
ATOM     20  C   UNL     1       0.875   9.725  18.816  0.00  0.00    +0.000 A 
ATOM     21  C   UNL     1       0.941   9.219  20.114  0.00  0.00    +0.000 A 
ATOM     22  I   UNL     1      -0.057  10.195  21.656  0.00  0.00    +0.000 I 
ATOM     23  C   UNL     1       1.693   8.077  20.391  0.00  0.00    +0.000 A 
ENDBRANCH  16  17
ENDBRANCH   6  16
TORSDOF 5
ENDMDL
MODEL 8
REMARK VINA RESULT:      -7.3      1.705      2.084
REMARK  Name = 
REMARK  6 active torsions:
REMARK  status: ('A' for Active; 'I' for Inactive)
REMARK    1  A    between atoms: C_1  and  S_2
REMARK    2  A    between atoms: S_2  and  N_5
REMARK    3  A    between atoms: N_5  and  C_6
REMARK    4  A    between atoms: C_9  and  N_10
REMARK    5  A    between atoms: C_14  and  O_15
REMARK    6  A    between atoms: O_15  and  C_16
REMARK                            x       y       z     vdW  Elec       q    Type
REMARK                         _______ _______ _______ _____ _____    ______ ____
ROOT
ATOM      1  C   UNL     1       4.001   4.692  18.790  0.00  0.00    +0.000 A 
ATOM      2  C   UNL     1       5.260   4.180  19.123  0.00  0.00    +0.000 A 
ATOM      3  C   UNL     1       6.421   4.878  18.781  0.00  0.00    +0.000 A 
ATOM      4  C   UNL     1       6.312   6.077  18.068  0.00  0.00    +0.000 A 
ATOM      5  C   UNL     1       5.058   6.576  17.704  0.00  0.00    +0.000 A 
ATOM      6  C   UNL     1       3.891   5.921  18.132  0.00  0.00    +0.000 A 
ENDROOT
BRANCH   4   7
ATOM      7  N   UNL     1       7.512   6.847  17.735  0.00  0.00    +0.000 N 
ATOM      8  O   UNL     1       7.732   7.088  16.541  0.00  0.00    +0.000 OA
ATOM      9  O   UNL     1       8.244   7.206  18.670  0.00  0.00    +0.000 OA
ENDBRANCH   4   7
BRANCH   1  10
ATOM     10  N   UNL     1       2.872   3.902  19.141  0.00  0.00    +0.000 N 
ATOM     11  H   UNL     1       2.668   3.779  20.130  0.00  0.00    +0.000 HD
BRANCH  10  13
ATOM     12  C   UNL     1       0.792   2.237  18.773  0.00  0.00    +0.000 C 
ATOM     13  S   UNL     1       2.416   2.618  18.156  0.00  0.00    +0.000 S 
ATOM     14  O   UNL     1       3.285   1.489  18.386  0.00  0.00    +0.000 OA
ATOM     15  O   UNL     1       2.238   3.186  16.837  0.00  0.00    +0.000 OA
ENDBRANCH  10  13
ENDBRANCH   1  10
BRANCH   6  16
ATOM     16  O   UNL     1       2.637   6.451  17.893  0.00  0.00    +0.000 OA
BRANCH  16  17
ATOM     17  C   UNL     1       2.143   7.391  18.782  0.00  0.00    +0.000 A 
ATOM     18  C   UNL     1       1.962   6.971  20.101  0.00  0.00    +0.000 A 
ATOM     19  C   UNL     1       1.442   7.853  21.053  0.00  0.00    +0.000 A 
ATOM     20  C   UNL     1       1.098   9.155  20.688  0.00  0.00    +0.000 A 
ATOM     21  C   UNL     1       1.297   9.579  19.375  0.00  0.00    +0.000 A 
ATOM     22  I   UNL     1       0.738  11.501  18.812  0.00  0.00    +0.000 I 
ATOM     23  C   UNL     1       1.848   8.714  18.427  0.00  0.00    +0.000 A 
ENDBRANCH  16  17
ENDBRANCH   6  16
TORSDOF 5
ENDMDL
MODEL 9
REMARK VINA RESULT:      -7.3      1.604      1.834
REMARK  Name = 
REMARK  6 active torsions:
REMARK  status: ('A' for Active; 'I' for Inactive)
REMARK    1  A    between atoms: C_1  and  S_2
REMARK    2  A    between atoms: S_2  and  N_5
REMARK    3  A    between atoms: N_5  and  C_6
REMARK    4  A    between atoms: C_9  and  N_10
REMARK    5  A    between atoms: C_14  and  O_15
REMARK    6  A    between atoms: O_15  and  C_16
REMARK                            x       y       z     vdW  Elec       q    Type
REMARK                         _______ _______ _______ _____ _____    ______ ____
ROOT
ATOM      1  C   UNL     1       3.845   4.914  18.972  0.00  0.00    +0.000 A 
ATOM      2  C   UNL     1       5.102   4.457  19.384  0.00  0.00    +0.000 A 
ATOM      3  C   UNL     1       6.267   5.070  18.916  0.00  0.00    +0.000 A 
ATOM      4  C   UNL     1       6.163   6.121  17.999  0.00  0.00    +0.000 A 
ATOM      5  C   UNL     1       4.912   6.561  17.559  0.00  0.00    +0.000 A 
ATOM      6  C   UNL     1       3.742   6.006  18.105  0.00  0.00    +0.000 A 
ENDROOT
BRANCH   4   7
ATOM      7  N   UNL     1       7.368   6.806  17.526  0.00  0.00    +0.000 N 
ATOM      8  O   UNL     1       7.658   6.705  16.327  0.00  0.00    +0.000 OA
ATOM      9  O   UNL     1       8.035   7.441  18.358  0.00  0.00    +0.000 OA
ENDBRANCH   4   7
BRANCH   1  10
ATOM     10  N   UNL     1       2.711   4.212  19.466  0.00  0.00    +0.000 N 
ATOM     11  H   UNL     1       2.635   4.083  20.472  0.00  0.00    +0.000 HD
BRANCH  10  13
ATOM     12  C   UNL     1       3.245   1.711  18.633  0.00  0.00    +0.000 C 
ATOM     13  S   UNL     1       2.017   2.995  18.538  0.00  0.00    +0.000 S 
ATOM     14  O   UNL     1       1.895   3.429  17.167  0.00  0.00    +0.000 OA
ATOM     15  O   UNL     1       0.874   2.534  19.296  0.00  0.00    +0.000 OA
ENDBRANCH  10  13
ENDBRANCH   1  10
BRANCH   6  16
ATOM     16  O   UNL     1       2.492   6.498  17.782  0.00  0.00    +0.000 OA
BRANCH  16  17
ATOM     17  C   UNL     1       2.085   7.688  18.363  0.00  0.00    +0.000 A 
ATOM     18  C   UNL     1       2.099   8.820  17.546  0.00  0.00    +0.000 A 
ATOM     19  C   UNL     1       1.728  10.064  18.066  0.00  0.00    +0.000 A 
ATOM     20  C   UNL     1       1.347  10.179  19.404  0.00  0.00    +0.000 A 
ATOM     21  C   UNL     1       1.316   9.044  20.212  0.00  0.00    +0.000 A 
ATOM     22  I   UNL     1       0.799   9.217  22.219  0.00  0.00    +0.000 I 
ATOM     23  C   UNL     1       1.652   7.794  19.691  0.00  0.00    +0.000 A 
ENDBRANCH  16  17
ENDBRANCH   6  16
TORSDOF 5
ENDMDL
