MODEL 1
REMARK VINA RESULT:      -8.5      0.000      0.000
REMARK  Name = 
REMARK  7 active torsions:
REMARK  status: ('A' for Active; 'I' for Inactive)
REMARK    1  A    between atoms: C_1  and  C_2
REMARK    2  A    between atoms: C_5  and  S_6
REMARK    3  A    between atoms: S_6  and  N_9
REMARK    4  A    between atoms: N_9  and  C_10
REMARK    5  A    between atoms: C_10  and  C_11
REMARK    6  A    between atoms: C_10  and  C_24
REMARK    7  A    between atoms: C_11  and  C_12
REMARK                            x       y       z     vdW  Elec       q    Type
REMARK                         _______ _______ _______ _____ _____    ______ ____
ROOT
ATOM      1  C   UNL     1       3.321   5.365  18.464  0.00  0.00    +0.000 C 
ENDROOT
BRANCH   1   2
ATOM      2  C   UNL     1       2.404   4.228  18.743  0.00  0.00    +0.000 A 
ATOM      3  C   UNL     1       1.345   3.694  18.043  0.00  0.00    +0.000 A 
ATOM      4  C   UNL     1       0.851   2.629  18.832  0.00  0.00    +0.000 A 
ATOM      5  C   UNL     1       1.644   2.583  19.955  0.00  0.00    +0.000 A 
ATOM      6  O   UNL     1       2.584   3.560  19.917  0.00  0.00    +0.000 OA
ENDBRANCH   1   2
BRANCH   1   7
ATOM      7  N   UNL     1       4.227   5.032  17.327  0.00  0.00    +0.000 NA
ATOM      8  H   UNL     1       3.784   4.353  16.707  0.00  0.00    +0.000 HD
BRANCH   7   9
ATOM      9  S   UNL     1       5.806   4.519  17.722  0.00  0.00    +0.000 S 
ATOM     10  O   UNL     1       6.330   3.748  16.616  0.00  0.00    +0.000 OA
ATOM     11  O   UNL     1       5.735   3.971  19.062  0.00  0.00    +0.000 OA
BRANCH   9  16
ATOM     12  C   UNL     1       8.814   9.761  18.387  0.00  0.00    +0.000 C 
ATOM     13  C   UNL     1       8.101   8.455  18.189  0.00  0.00    +0.000 A 
ATOM     14  C   UNL     1       8.459   7.324  18.932  0.00  0.00    +0.000 A 
ATOM     15  C   UNL     1       7.769   6.121  18.769  0.00  0.00    +0.000 A 
ATOM     16  C   UNL     1       6.709   6.047  17.860  0.00  0.00    +0.000 A 
ATOM     17  C   UNL     1       6.375   7.151  17.073  0.00  0.00    +0.000 A 
ATOM     18  C   UNL     1       7.063   8.356  17.251  0.00  0.00    +0.000 A 
ENDBRANCH   9  16
ENDBRANCH   7   9
ENDBRANCH   1   7
BRANCH   1  19
ATOM     19  C   UNL     1       2.524   6.629  18.118  0.00  0.00    +0.000 C 
BRANCH  19  20
ATOM     20  C   UNL     1       2.002   7.300  19.377  0.00  0.00    +0.000 C 
ATOM     21  O   UNL     1       1.809   6.635  20.395  0.00  0.00    +0.000 OA
ATOM     22  N   UNL     1       1.791   8.672  19.340  0.00  0.00    +0.000 N 
ATOM     23  C   UNL     1       1.346   9.362  20.554  0.00  0.00    +0.000 C 
ATOM     24  C   UNL     1      -0.135   9.727  20.461  0.00  0.00    +0.000 C 
ATOM     25  C   UNL     1      -0.432  10.477  19.159  0.00  0.00    +0.000 C 
ATOM     26  C   UNL     1       0.091   9.701  17.947  0.00  0.00    +0.000 C 
ATOM     27  C   UNL     1       1.578   9.436  18.112  0.00  0.00    +0.000 C 
ATOM     28  O   UNL     1       0.201  11.770  19.206  0.00  0.00    +0.000 OA
ATOM     29  C   UNL     1      -0.772  12.668  18.678  0.00  0.00    +0.000 C 
ATOM     30  C   UNL     1      -2.071  12.057  19.124  0.00  0.00    +0.000 C 
ATOM     31  O   UNL     1      -1.849  10.651  19.005  0.00  0.00    +0.000 OA
ENDBRANCH  19  20
ENDBRANCH   1  19
TORSDOF 6
ENDMDL
MODEL 2
REMARK VINA RESULT:      -8.4      4.260      7.293
REMARK  Name = 
REMARK  7 active torsions:
REMARK  status: ('A' for Active; 'I' for Inactive)
REMARK    1  A    between atoms: C_1  and  C_2
REMARK    2  A    between atoms: C_5  and  S_6
REMARK    3  A    between atoms: S_6  and  N_9
REMARK    4  A    between atoms: N_9  and  C_10
REMARK    5  A    between atoms: C_10  and  C_11
REMARK    6  A    between atoms: C_10  and  C_24
REMARK    7  A    between atoms: C_11  and  C_12
REMARK                            x       y       z     vdW  Elec       q    Type
REMARK                         _______ _______ _______ _____ _____    ______ ____
ROOT
ATOM      1  C   UNL     1      -0.948  10.943  20.306  0.00  0.00    +0.000 C 
ENDROOT
BRANCH   1   2
ATOM      2  C   UNL     1      -1.511  10.811  18.937  0.00  0.00    +0.000 A 
ATOM      3  C   UNL     1      -1.156  10.036  17.855  0.00  0.00    +0.000 A 
ATOM      4  C   UNL     1      -2.061  10.367  16.820  0.00  0.00    +0.000 A 
ATOM      5  C   UNL     1      -2.909  11.317  17.341  0.00  0.00    +0.000 A 
ATOM      6  O   UNL     1      -2.575  11.603  18.625  0.00  0.00    +0.000 OA
ENDBRANCH   1   2
BRANCH   1   7
ATOM      7  N   UNL     1       0.441  10.401  20.349  0.00  0.00    +0.000 NA
ATOM      8  H   UNL     1       0.776  10.205  19.404  0.00  0.00    +0.000 HD
BRANCH   7   9
ATOM      9  S   UNL     1       0.713   9.050  21.356  0.00  0.00    +0.000 S 
ATOM     10  O   UNL     1      -0.567   8.488  21.728  0.00  0.00    +0.000 OA
ATOM     11  O   UNL     1       1.676   9.470  22.353  0.00  0.00    +0.000 OA
BRANCH   9  16
ATOM     12  C   UNL     1       3.481   5.173  17.577  0.00  0.00    +0.000 C 
ATOM     13  C   UNL     1       2.839   6.141  18.529  0.00  0.00    +0.000 A 
ATOM     14  C   UNL     1       2.619   7.472  18.155  0.00  0.00    +0.000 A 
ATOM     15  C   UNL     1       1.989   8.359  19.030  0.00  0.00    +0.000 A 
ATOM     16  C   UNL     1       1.571   7.913  20.288  0.00  0.00    +0.000 A 
ATOM     17  C   UNL     1       1.833   6.604  20.695  0.00  0.00    +0.000 A 
ATOM     18  C   UNL     1       2.453   5.717  19.808  0.00  0.00    +0.000 A 
ENDBRANCH   9  16
ENDBRANCH   7   9
ENDBRANCH   1   7
BRANCH   1  19
ATOM     19  C   UNL     1      -0.927  12.413  20.741  0.00  0.00    +0.000 C 
BRANCH  19  20
ATOM     20  C   UNL     1      -1.293  12.547  22.209  0.00  0.00    +0.000 C 
ATOM     21  O   UNL     1      -0.625  11.968  23.067  0.00  0.00    +0.000 OA
ATOM     22  N   UNL     1      -2.367  13.364  22.538  0.00  0.00    +0.000 N 
ATOM     23  C   UNL     1      -2.710  13.565  23.949  0.00  0.00    +0.000 C 
ATOM     24  C   UNL     1      -3.960  12.769  24.324  0.00  0.00    +0.000 C 
ATOM     25  C   UNL     1      -5.103  13.055  23.345  0.00  0.00    +0.000 C 
ATOM     26  C   UNL     1      -4.651  12.849  21.897  0.00  0.00    +0.000 C 
ATOM     27  C   UNL     1      -3.439  13.721  21.611  0.00  0.00    +0.000 C 
ATOM     28  O   UNL     1      -5.541  14.416  23.519  0.00  0.00    +0.000 OA
ATOM     29  C   UNL     1      -6.964  14.346  23.474  0.00  0.00    +0.000 C 
ATOM     30  C   UNL     1      -7.254  13.006  24.090  0.00  0.00    +0.000 C 
ATOM     31  O   UNL     1      -6.204  12.169  23.604  0.00  0.00    +0.000 OA
ENDBRANCH  19  20
ENDBRANCH   1  19
TORSDOF 6
ENDMDL
MODEL 3
REMARK VINA RESULT:      -8.1      0.517      1.127
REMARK  Name = 
REMARK  7 active torsions:
REMARK  status: ('A' for Active; 'I' for Inactive)
REMARK    1  A    between atoms: C_1  and  C_2
REMARK    2  A    between atoms: C_5  and  S_6
REMARK    3  A    between atoms: S_6  and  N_9
REMARK    4  A    between atoms: N_9  and  C_10
REMARK    5  A    between atoms: C_10  and  C_11
REMARK    6  A    between atoms: C_10  and  C_24
REMARK    7  A    between atoms: C_11  and  C_12
REMARK                            x       y       z     vdW  Elec       q    Type
REMARK                         _______ _______ _______ _____ _____    ______ ____
ROOT
ATOM      1  C   UNL     1       3.445   5.239  18.457  0.00  0.00    +0.000 C 
ENDROOT
BRANCH   1   2
ATOM      2  C   UNL     1       2.621   4.040  18.761  0.00  0.00    +0.000 A 
ATOM      3  C   UNL     1       2.841   2.936  19.555  0.00  0.00    +0.000 A 
ATOM      4  C   UNL     1       1.692   2.122  19.424  0.00  0.00    +0.000 A 
ATOM      5  C   UNL     1       0.849   2.785  18.563  0.00  0.00    +0.000 A 
ATOM      6  O   UNL     1       1.410   3.947  18.143  0.00  0.00    +0.000 OA
ENDBRANCH   1   2
BRANCH   1   7
ATOM      7  N   UNL     1       4.354   4.965  17.307  0.00  0.00    +0.000 NA
ATOM      8  H   UNL     1       3.942   4.267  16.686  0.00  0.00    +0.000 HD
BRANCH   7   9
ATOM      9  S   UNL     1       5.964   4.535  17.680  0.00  0.00    +0.000 S 
ATOM     10  O   UNL     1       6.534   3.850  16.540  0.00  0.00    +0.000 OA
ATOM     11  O   UNL     1       5.930   3.923  18.993  0.00  0.00    +0.000 OA
BRANCH   9  16
ATOM     12  C   UNL     1       8.778   9.900  18.195  0.00  0.00    +0.000 C 
ATOM     13  C   UNL     1       8.056   8.587  18.104  0.00  0.00    +0.000 A 
ATOM     14  C   UNL     1       6.949   8.436  17.260  0.00  0.00    +0.000 A 
ATOM     15  C   UNL     1       6.303   7.204  17.151  0.00  0.00    +0.000 A 
ATOM     16  C   UNL     1       6.768   6.109  17.888  0.00  0.00    +0.000 A 
ATOM     17  C   UNL     1       7.836   6.258  18.775  0.00  0.00    +0.000 A 
ATOM     18  C   UNL     1       8.486   7.493  18.869  0.00  0.00    +0.000 A 
ENDBRANCH   9  16
ENDBRANCH   7   9
ENDBRANCH   1   7
BRANCH   1  19
ATOM     19  C   UNL     1       2.550   6.436  18.114  0.00  0.00    +0.000 C 
BRANCH  19  20
ATOM     20  C   UNL     1       2.052   7.117  19.377  0.00  0.00    +0.000 C 
ATOM     21  O   UNL     1       1.832   6.453  20.391  0.00  0.00    +0.000 OA
ATOM     22  N   UNL     1       1.896   8.498  19.351  0.00  0.00    +0.000 N 
ATOM     23  C   UNL     1       1.477   9.195  20.569  0.00  0.00    +0.000 C 
ATOM     24  C   UNL     1       0.011   9.619  20.477  0.00  0.00    +0.000 C 
ATOM     25  C   UNL     1      -0.254  10.390  19.180  0.00  0.00    +0.000 C 
ATOM     26  C   UNL     1       0.240   9.604  17.963  0.00  0.00    +0.000 C 
ATOM     27  C   UNL     1       1.716   9.278  18.129  0.00  0.00    +0.000 C 
ATOM     28  O   UNL     1       0.430  11.657  19.239  0.00  0.00    +0.000 OA
ATOM     29  C   UNL     1      -0.506  12.597  18.716  0.00  0.00    +0.000 C 
ATOM     30  C   UNL     1      -1.829  12.034  19.156  0.00  0.00    +0.000 C 
ATOM     31  O   UNL     1      -1.663  10.622  19.026  0.00  0.00    +0.000 OA
ENDBRANCH  19  20
ENDBRANCH   1  19
TORSDOF 6
ENDMDL
MODEL 4
REMARK VINA RESULT:      -8.0      2.152      2.906
REMARK  Name = 
REMARK  7 active torsions:
REMARK  status: ('A' for Active; 'I' for Inactive)
REMARK    1  A    between atoms: C_1  and  C_2
REMARK    2  A    between atoms: C_5  and  S_6
REMARK    3  A    between atoms: S_6  and  N_9
REMARK    4  A    between atoms: N_9  and  C_10
REMARK    5  A    between atoms: C_10  and  C_11
REMARK    6  A    between atoms: C_10  and  C_24
REMARK    7  A    between atoms: C_11  and  C_12
REMARK                            x       y       z     vdW  Elec       q    Type
REMARK                         _______ _______ _______ _____ _____    ______ ____
ROOT
ATOM      1  C   UNL     1       3.207   5.464  19.148  0.00  0.00    +0.000 C 
ENDROOT
BRANCH   1   2
ATOM      2  C   UNL     1       2.390   4.445  19.859  0.00  0.00    +0.000 A 
ATOM      3  C   UNL     1       1.191   3.838  19.559  0.00  0.00    +0.000 A 
ATOM      4  C   UNL     1       0.912   2.966  20.636  0.00  0.00    +0.000 A 
ATOM      5  C   UNL     1       1.960   3.096  21.518  0.00  0.00    +0.000 A 
ATOM      6  O   UNL     1       2.859   4.003  21.060  0.00  0.00    +0.000 OA
ENDBRANCH   1   2
BRANCH   1   7
ATOM      7  N   UNL     1       3.925   4.841  17.999  0.00  0.00    +0.000 NA
ATOM      8  H   UNL     1       3.756   3.834  17.977  0.00  0.00    +0.000 HD
BRANCH   7   9
ATOM      9  S   UNL     1       5.599   5.153  17.873  0.00  0.00    +0.000 S 
ATOM     10  O   UNL     1       6.307   4.216  18.717  0.00  0.00    +0.000 OA
ATOM     11  O   UNL     1       5.761   6.585  18.026  0.00  0.00    +0.000 OA
BRANCH   9  16
ATOM     12  C   UNL     1       6.802   3.730  12.085  0.00  0.00    +0.000 C 
ATOM     13  C   UNL     1       6.489   4.123  13.500  0.00  0.00    +0.000 A 
ATOM     14  C   UNL     1       5.251   3.809  14.073  0.00  0.00    +0.000 A 
ATOM     15  C   UNL     1       4.979   4.145  15.400  0.00  0.00    +0.000 A 
ATOM     16  C   UNL     1       5.952   4.796  16.165  0.00  0.00    +0.000 A 
ATOM     17  C   UNL     1       7.170   5.164  15.591  0.00  0.00    +0.000 A 
ATOM     18  C   UNL     1       7.441   4.813  14.264  0.00  0.00    +0.000 A 
ENDBRANCH   9  16
ENDBRANCH   7   9
ENDBRANCH   1   7
BRANCH   1  19
ATOM     19  C   UNL     1       2.319   6.600  18.629  0.00  0.00    +0.000 C 
BRANCH  19  20
ATOM     20  C   UNL     1       1.824   7.466  19.775  0.00  0.00    +0.000 C 
ATOM     21  O   UNL     1       1.626   6.967  20.883  0.00  0.00    +0.000 OA
ATOM     22  N   UNL     1       1.642   8.821  19.532  0.00  0.00    +0.000 N 
ATOM     23  C   UNL     1       1.224   9.696  20.631  0.00  0.00    +0.000 C 
ATOM     24  C   UNL     1      -0.250  10.077  20.493  0.00  0.00    +0.000 C 
ATOM     25  C   UNL     1      -0.542  10.628  19.094  0.00  0.00    +0.000 C 
ATOM     26  C   UNL     1      -0.049   9.667  18.010  0.00  0.00    +0.000 C 
ATOM     27  C   UNL     1       1.435   9.396  18.205  0.00  0.00    +0.000 C 
ATOM     28  O   UNL     1       0.119  11.899  18.942  0.00  0.00    +0.000 OA
ATOM     29  C   UNL     1      -0.839  12.729  18.290  0.00  0.00    +0.000 C 
ATOM     30  C   UNL     1      -2.147  12.223  18.832  0.00  0.00    +0.000 C 
ATOM     31  O   UNL     1      -1.957  10.810  18.925  0.00  0.00    +0.000 OA
ENDBRANCH  19  20
ENDBRANCH   1  19
TORSDOF 6
ENDMDL
MODEL 5
REMARK VINA RESULT:      -7.8      2.126      3.002
REMARK  Name = 
REMARK  7 active torsions:
REMARK  status: ('A' for Active; 'I' for Inactive)
REMARK    1  A    between atoms: C_1  and  C_2
REMARK    2  A    between atoms: C_5  and  S_6
REMARK    3  A    between atoms: S_6  and  N_9
REMARK    4  A    between atoms: N_9  and  C_10
REMARK    5  A    between atoms: C_10  and  C_11
REMARK    6  A    between atoms: C_10  and  C_24
REMARK    7  A    between atoms: C_11  and  C_12
REMARK                            x       y       z     vdW  Elec       q    Type
REMARK                         _______ _______ _______ _____ _____    ______ ____
ROOT
ATOM      1  C   UNL     1       2.997   5.422  20.176  0.00  0.00    +0.000 C 
ENDROOT
BRANCH   1   2
ATOM      2  C   UNL     1       2.071   4.369  19.683  0.00  0.00    +0.000 A 
ATOM      3  C   UNL     1       1.272   3.454  20.333  0.00  0.00    +0.000 A 
ATOM      4  C   UNL     1       0.634   2.701  19.320  0.00  0.00    +0.000 A 
ATOM      5  C   UNL     1       1.082   3.210  18.123  0.00  0.00    +0.000 A 
ATOM      6  O   UNL     1       1.967   4.217  18.333  0.00  0.00    +0.000 OA
ENDBRANCH   1   2
BRANCH   1   7
ATOM      7  N   UNL     1       4.055   5.697  19.160  0.00  0.00    +0.000 NA
ATOM      8  H   UNL     1       3.645   5.752  18.226  0.00  0.00    +0.000 HD
BRANCH   7   9
ATOM      9  S   UNL     1       5.402   4.648  19.145  0.00  0.00    +0.000 S 
ATOM     10  O   UNL     1       4.985   3.354  19.637  0.00  0.00    +0.000 OA
ATOM     11  O   UNL     1       6.495   5.376  19.758  0.00  0.00    +0.000 OA
BRANCH   9  16
ATOM     12  C   UNL     1       6.794   4.429  13.230  0.00  0.00    +0.000 C 
ATOM     13  C   UNL     1       6.460   4.438  14.693  0.00  0.00    +0.000 A 
ATOM     14  C   UNL     1       7.433   4.762  15.647  0.00  0.00    +0.000 A 
ATOM     15  C   UNL     1       7.108   4.804  17.004  0.00  0.00    +0.000 A 
ATOM     16  C   UNL     1       5.801   4.524  17.414  0.00  0.00    +0.000 A 
ATOM     17  C   UNL     1       4.834   4.145  16.480  0.00  0.00    +0.000 A 
ATOM     18  C   UNL     1       5.163   4.119  15.121  0.00  0.00    +0.000 A 
ENDBRANCH   9  16
ENDBRANCH   7   9
ENDBRANCH   1   7
BRANCH   1  19
ATOM     19  C   UNL     1       2.234   6.719  20.468  0.00  0.00    +0.000 C 
BRANCH  19  20
ATOM     20  C   UNL     1       2.232   7.631  19.253  0.00  0.00    +0.000 C 
ATOM     21  O   UNL     1       3.057   7.463  18.355  0.00  0.00    +0.000 OA
ATOM     22  N   UNL     1       1.256   8.617  19.184  0.00  0.00    +0.000 N 
ATOM     23  C   UNL     1       1.186   9.474  17.998  0.00  0.00    +0.000 C 
ATOM     24  C   UNL     1       1.736  10.868  18.300  0.00  0.00    +0.000 C 
ATOM     25  C   UNL     1       1.073  11.456  19.550  0.00  0.00    +0.000 C 
ATOM     26  C   UNL     1       1.167  10.486  20.730  0.00  0.00    +0.000 C 
ATOM     27  C   UNL     1       0.547   9.151  20.345  0.00  0.00    +0.000 C 
ATOM     28  O   UNL     1      -0.312  11.727  19.264  0.00  0.00    +0.000 OA
ATOM     29  C   UNL     1      -0.560  13.002  19.853  0.00  0.00    +0.000 C 
ATOM     30  C   UNL     1       0.758  13.707  19.696  0.00  0.00    +0.000 C 
ATOM     31  O   UNL     1       1.726  12.681  19.921  0.00  0.00    +0.000 OA
ENDBRANCH  19  20
ENDBRANCH   1  19
TORSDOF 6
ENDMDL
MODEL 6
REMARK VINA RESULT:      -7.7      2.060      3.062
REMARK  Name = 
REMARK  7 active torsions:
REMARK  status: ('A' for Active; 'I' for Inactive)
REMARK    1  A    between atoms: C_1  and  C_2
REMARK    2  A    between atoms: C_5  and  S_6
REMARK    3  A    between atoms: S_6  and  N_9
REMARK    4  A    between atoms: N_9  and  C_10
REMARK    5  A    between atoms: C_10  and  C_11
REMARK    6  A    between atoms: C_10  and  C_24
REMARK    7  A    between atoms: C_11  and  C_12
REMARK                            x       y       z     vdW  Elec       q    Type
REMARK                         _______ _______ _______ _____ _____    ______ ____
ROOT
ATOM      1  C   UNL     1       3.101   5.510  20.084  0.00  0.00    +0.000 C 
ENDROOT
BRANCH   1   2
ATOM      2  C   UNL     1       2.206   4.475  19.503  0.00  0.00    +0.000 A 
ATOM      3  C   UNL     1       1.806   4.208  18.212  0.00  0.00    +0.000 A 
ATOM      4  C   UNL     1       0.927   3.104  18.294  0.00  0.00    +0.000 A 
ATOM      5  C   UNL     1       0.853   2.769  19.626  0.00  0.00    +0.000 A 
ATOM      6  O   UNL     1       1.618   3.606  20.373  0.00  0.00    +0.000 OA
ENDBRANCH   1   2
BRANCH   1   7
ATOM      7  N   UNL     1       4.203   5.834  19.133  0.00  0.00    +0.000 NA
ATOM      8  H   UNL     1       3.829   5.988  18.195  0.00  0.00    +0.000 HD
BRANCH   7   9
ATOM      9  S   UNL     1       5.513   4.742  19.066  0.00  0.00    +0.000 S 
ATOM     10  O   UNL     1       5.071   3.460  19.570  0.00  0.00    +0.000 OA
ATOM     11  O   UNL     1       6.651   5.431  19.642  0.00  0.00    +0.000 OA
BRANCH   9  16
ATOM     12  C   UNL     1       6.644   4.085  13.128  0.00  0.00    +0.000 C 
ATOM     13  C   UNL     1       6.350   4.291  14.586  0.00  0.00    +0.000 A 
ATOM     14  C   UNL     1       5.114   3.914  15.126  0.00  0.00    +0.000 A 
ATOM     15  C   UNL     1       4.859   4.074  16.489  0.00  0.00    +0.000 A 
ATOM     16  C   UNL     1       5.845   4.610  17.322  0.00  0.00    +0.000 A 
ATOM     17  C   UNL     1       7.062   5.041  16.789  0.00  0.00    +0.000 A 
ATOM     18  C   UNL     1       7.316   4.866  15.424  0.00  0.00    +0.000 A 
ENDBRANCH   9  16
ENDBRANCH   7   9
ENDBRANCH   1   7
BRANCH   1  19
ATOM     19  C   UNL     1       2.316   6.789  20.398  0.00  0.00    +0.000 C 
BRANCH  19  20
ATOM     20  C   UNL     1       2.279   7.709  19.190  0.00  0.00    +0.000 C 
ATOM     21  O   UNL     1       3.094   7.565  18.279  0.00  0.00    +0.000 OA
ATOM     22  N   UNL     1       1.283   8.678  19.143  0.00  0.00    +0.000 N 
ATOM     23  C   UNL     1       1.180   9.543  17.965  0.00  0.00    +0.000 C 
ATOM     24  C   UNL     1       1.708  10.944  18.271  0.00  0.00    +0.000 C 
ATOM     25  C   UNL     1       1.053  11.510  19.535  0.00  0.00    +0.000 C 
ATOM     26  C   UNL     1       1.182  10.532  20.705  0.00  0.00    +0.000 C 
ATOM     27  C   UNL     1       0.582   9.190  20.319  0.00  0.00    +0.000 C 
ATOM     28  O   UNL     1      -0.342  11.757  19.271  0.00  0.00    +0.000 OA
ATOM     29  C   UNL     1      -0.604  13.022  19.875  0.00  0.00    +0.000 C 
ATOM     30  C   UNL     1       0.698  13.753  19.704  0.00  0.00    +0.000 C 
ATOM     31  O   UNL     1       1.688  12.744  19.906  0.00  0.00    +0.000 OA
ENDBRANCH  19  20
ENDBRANCH   1  19
TORSDOF 6
ENDMDL
MODEL 7
REMARK VINA RESULT:      -7.6      4.412      7.535
REMARK  Name = 
REMARK  7 active torsions:
REMARK  status: ('A' for Active; 'I' for Inactive)
REMARK    1  A    between atoms: C_1  and  C_2
REMARK    2  A    between atoms: C_5  and  S_6
REMARK    3  A    between atoms: S_6  and  N_9
REMARK    4  A    between atoms: N_9  and  C_10
REMARK    5  A    between atoms: C_10  and  C_11
REMARK    6  A    between atoms: C_10  and  C_24
REMARK    7  A    between atoms: C_11  and  C_12
REMARK                            x       y       z     vdW  Elec       q    Type
REMARK                         _______ _______ _______ _____ _____    ______ ____
ROOT
ATOM      1  C   UNL     1      -1.551  11.526  19.580  0.00  0.00    +0.000 C 
ENDROOT
BRANCH   1   2
ATOM      2  C   UNL     1      -2.284  11.206  18.326  0.00  0.00    +0.000 A 
ATOM      3  C   UNL     1      -3.562  11.488  17.897  0.00  0.00    +0.000 A 
ATOM      4  C   UNL     1      -3.686  10.898  16.618  0.00  0.00    +0.000 A 
ATOM      5  C   UNL     1      -2.475  10.301  16.351  0.00  0.00    +0.000 A 
ATOM      6  O   UNL     1      -1.619  10.472  17.390  0.00  0.00    +0.000 OA
ENDBRANCH   1   2
BRANCH   1   7
ATOM      7  N   UNL     1      -0.129  11.090  19.473  0.00  0.00    +0.000 NA
ATOM      8  H   UNL     1       0.064  10.732  18.536  0.00  0.00    +0.000 HD
BRANCH   7   9
ATOM      9  S   UNL     1       0.430   9.983  20.647  0.00  0.00    +0.000 S 
ATOM     10  O   UNL     1      -0.711   9.303  21.219  0.00  0.00    +0.000 OA
ATOM     11  O   UNL     1       1.375  10.705  21.473  0.00  0.00    +0.000 OA
BRANCH   9  16
ATOM     12  C   UNL     1       3.871   6.072  17.512  0.00  0.00    +0.000 C 
ATOM     13  C   UNL     1       2.983   7.017  18.268  0.00  0.00    +0.000 A 
ATOM     14  C   UNL     1       2.587   6.731  19.580  0.00  0.00    +0.000 A 
ATOM     15  C   UNL     1       1.791   7.630  20.292  0.00  0.00    +0.000 A 
ATOM     16  C   UNL     1       1.390   8.828  19.692  0.00  0.00    +0.000 A 
ATOM     17  C   UNL     1       1.731   9.101  18.365  0.00  0.00    +0.000 A 
ATOM     18  C   UNL     1       2.540   8.202  17.663  0.00  0.00    +0.000 A 
ENDBRANCH   9  16
ENDBRANCH   7   9
ENDBRANCH   1   7
BRANCH   1  19
ATOM     19  C   UNL     1      -1.594  13.033  19.860  0.00  0.00    +0.000 C 
BRANCH  19  20
ATOM     20  C   UNL     1      -1.801  13.301  21.340  0.00  0.00    +0.000 C 
ATOM     21  O   UNL     1      -0.931  12.984  22.152  0.00  0.00    +0.000 OA
ATOM     22  N   UNL     1      -2.973  13.940  21.727  0.00  0.00    +0.000 N 
ATOM     23  C   UNL     1      -3.177  14.270  23.140  0.00  0.00    +0.000 C 
ATOM     24  C   UNL     1      -4.183  13.314  23.781  0.00  0.00    +0.000 C 
ATOM     25  C   UNL     1      -5.470  13.240  22.953  0.00  0.00    +0.000 C 
ATOM     26  C   UNL     1      -5.162  12.920  21.488  0.00  0.00    +0.000 C 
ATOM     27  C   UNL     1      -4.198  13.955  20.930  0.00  0.00    +0.000 C 
ATOM     28  O   UNL     1      -6.153  14.505  23.032  0.00  0.00    +0.000 OA
ATOM     29  C   UNL     1      -7.527  14.164  23.203  0.00  0.00    +0.000 C 
ATOM     30  C   UNL     1      -7.460  12.893  24.004  0.00  0.00    +0.000 C 
ATOM     31  O   UNL     1      -6.326  12.209  23.469  0.00  0.00    +0.000 OA
ENDBRANCH  19  20
ENDBRANCH   1  19
TORSDOF 6
ENDMDL
MODEL 8
REMARK VINA RESULT:      -7.5      1.952      2.711
REMARK  Name = 
REMARK  7 active torsions:
REMARK  status: ('A' for Active; 'I' for Inactive)
REMARK    1  A    between atoms: C_1  and  C_2
REMARK    2  A    between atoms: C_5  and  S_6
REMARK    3  A    between atoms: S_6  and  N_9
REMARK    4  A    between atoms: N_9  and  C_10
REMARK    5  A    between atoms: C_10  and  C_11
REMARK    6  A    between atoms: C_10  and  C_24
REMARK    7  A    between atoms: C_11  and  C_12
REMARK                            x       y       z     vdW  Elec       q    Type
REMARK                         _______ _______ _______ _____ _____    ______ ____
ROOT
ATOM      1  C   UNL     1       2.734   5.933  19.550  0.00  0.00    +0.000 C 
ENDROOT
BRANCH   1   2
ATOM      2  C   UNL     1       2.096   4.707  20.098  0.00  0.00    +0.000 A 
ATOM      3  C   UNL     1       2.208   4.061  21.308  0.00  0.00    +0.000 A 
ATOM      4  C   UNL     1       1.362   2.930  21.229  0.00  0.00    +0.000 A 
ATOM      5  C   UNL     1       0.789   2.965  19.980  0.00  0.00    +0.000 A 
ATOM      6  O   UNL     1       1.238   4.036  19.277  0.00  0.00    +0.000 OA
ENDBRANCH   1   2
BRANCH   1   7
ATOM      7  N   UNL     1       3.499   5.608  18.311  0.00  0.00    +0.000 NA
ATOM      8  H   UNL     1       2.884   5.189  17.613  0.00  0.00    +0.000 HD
BRANCH   7   9
ATOM      9  S   UNL     1       4.904   4.656  18.498  0.00  0.00    +0.000 S 
ATOM     10  O   UNL     1       4.503   3.291  18.762  0.00  0.00    +0.000 OA
ATOM     11  O   UNL     1       5.772   5.380  19.403  0.00  0.00    +0.000 OA
BRANCH   9  16
ATOM     12  C   UNL     1       7.549   4.761  13.024  0.00  0.00    +0.000 C 
ATOM     13  C   UNL     1       6.879   4.777  14.367  0.00  0.00    +0.000 A 
ATOM     14  C   UNL     1       5.602   4.226  14.536  0.00  0.00    +0.000 A 
ATOM     15  C   UNL     1       4.998   4.212  15.794  0.00  0.00    +0.000 A 
ATOM     16  C   UNL     1       5.673   4.747  16.895  0.00  0.00    +0.000 A 
ATOM     17  C   UNL     1       6.923   5.349  16.732  0.00  0.00    +0.000 A 
ATOM     18  C   UNL     1       7.528   5.349  15.471  0.00  0.00    +0.000 A 
ENDBRANCH   9  16
ENDBRANCH   7   9
ENDBRANCH   1   7
BRANCH   1  19
ATOM     19  C   UNL     1       1.676   6.993  19.222  0.00  0.00    +0.000 C 
BRANCH  19  20
ATOM     20  C   UNL     1       1.432   7.899  20.416  0.00  0.00    +0.000 C 
ATOM     21  O   UNL     1       1.323   7.418  21.544  0.00  0.00    +0.000 OA
ATOM     22  N   UNL     1       1.375   9.269  20.189  0.00  0.00    +0.000 N 
ATOM     23  C   UNL     1       1.203  10.177  21.326  0.00  0.00    +0.000 C 
ATOM     24  C   UNL     1      -0.224  10.723  21.375  0.00  0.00    +0.000 C 
ATOM     25  C   UNL     1      -0.629  11.315  20.022  0.00  0.00    +0.000 C 
ATOM     26  C   UNL     1      -0.389  10.312  18.890  0.00  0.00    +0.000 C 
ATOM     27  C   UNL     1       1.066   9.873  18.895  0.00  0.00    +0.000 C 
ATOM     28  O   UNL     1       0.147  12.503  19.777  0.00  0.00    +0.000 OA
ATOM     29  C   UNL     1      -0.787  13.441  19.247  0.00  0.00    +0.000 C 
ATOM     30  C   UNL     1      -2.063  13.082  19.956  0.00  0.00    +0.000 C 
ATOM     31  O   UNL     1      -2.024  11.657  20.033  0.00  0.00    +0.000 OA
ENDBRANCH  19  20
ENDBRANCH   1  19
TORSDOF 6
ENDMDL
MODEL 9
REMARK VINA RESULT:      -7.5      2.378      3.332
REMARK  Name = 
REMARK  7 active torsions:
REMARK  status: ('A' for Active; 'I' for Inactive)
REMARK    1  A    between atoms: C_1  and  C_2
REMARK    2  A    between atoms: C_5  and  S_6
REMARK    3  A    between atoms: S_6  and  N_9
REMARK    4  A    between atoms: N_9  and  C_10
REMARK    5  A    between atoms: C_10  and  C_11
REMARK    6  A    between atoms: C_10  and  C_24
REMARK    7  A    between atoms: C_11  and  C_12
REMARK                            x       y       z     vdW  Elec       q    Type
REMARK                         _______ _______ _______ _____ _____    ______ ____
ROOT
ATOM      1  C   UNL     1       3.541   5.137  19.520  0.00  0.00    +0.000 C 
ENDROOT
BRANCH   1   2
ATOM      2  C   UNL     1       2.568   4.083  19.130  0.00  0.00    +0.000 A 
ATOM      3  C   UNL     1       1.246   3.870  19.454  0.00  0.00    +0.000 A 
ATOM      4  C   UNL     1       0.864   2.684  18.786  0.00  0.00    +0.000 A 
ATOM      5  C   UNL     1       1.975   2.256  18.098  0.00  0.00    +0.000 A 
ATOM      6  O   UNL     1       3.021   3.093  18.310  0.00  0.00    +0.000 OA
ENDBRANCH   1   2
BRANCH   1   7
ATOM      7  N   UNL     1       4.217   5.689  18.311  0.00  0.00    +0.000 NA
ATOM      8  H   UNL     1       3.714   5.415  17.465  0.00  0.00    +0.000 HD
BRANCH   7   9
ATOM      9  S   UNL     1       5.881   5.352  18.133  0.00  0.00    +0.000 S 
ATOM     10  O   UNL     1       6.211   4.213  18.961  0.00  0.00    +0.000 OA
ATOM     11  O   UNL     1       6.573   6.617  18.274  0.00  0.00    +0.000 OA
BRANCH   9  16
ATOM     12  C   UNL     1       6.360   3.604  12.330  0.00  0.00    +0.000 C 
ATOM     13  C   UNL     1       6.227   4.077  13.748  0.00  0.00    +0.000 A 
ATOM     14  C   UNL     1       5.043   3.865  14.465  0.00  0.00    +0.000 A 
ATOM     15  C   UNL     1       4.938   4.275  15.795  0.00  0.00    +0.000 A 
ATOM     16  C   UNL     1       6.024   4.899  16.418  0.00  0.00    +0.000 A 
ATOM     17  C   UNL     1       7.191   5.166  15.699  0.00  0.00    +0.000 A 
ATOM     18  C   UNL     1       7.294   4.741  14.370  0.00  0.00    +0.000 A 
ENDBRANCH   9  16
ENDBRANCH   7   9
ENDBRANCH   1   7
BRANCH   1  19
ATOM     19  C   UNL     1       2.835   6.275  20.265  0.00  0.00    +0.000 C 
BRANCH  19  20
ATOM     20  C   UNL     1       2.432   7.381  19.304  0.00  0.00    +0.000 C 
ATOM     21  O   UNL     1       3.069   7.557  18.265  0.00  0.00    +0.000 OA
ATOM     22  N   UNL     1       1.316   8.144  19.625  0.00  0.00    +0.000 N 
ATOM     23  C   UNL     1       0.863   9.179  18.691  0.00  0.00    +0.000 C 
ATOM     24  C   UNL     1       1.231  10.571  19.202  0.00  0.00    +0.000 C 
ATOM     25  C   UNL     1       0.757  10.766  20.646  0.00  0.00    +0.000 C 
ATOM     26  C   UNL     1       1.250   9.629  21.544  0.00  0.00    +0.000 C 
ATOM     27  C   UNL     1       0.788   8.295  20.979  0.00  0.00    +0.000 C 
ATOM     28  O   UNL     1      -0.683  10.801  20.667  0.00  0.00    +0.000 OA
ATOM     29  C   UNL     1      -1.006  11.863  21.561  0.00  0.00    +0.000 C 
ATOM     30  C   UNL     1       0.119  12.837  21.346  0.00  0.00    +0.000 C 
ATOM     31  O   UNL     1       1.265  12.004  21.167  0.00  0.00    +0.000 OA
ENDBRANCH  19  20
ENDBRANCH   1  19
TORSDOF 6
ENDMDL
