MODEL 1
REMARK VINA RESULT:      -7.7      0.000      0.000
REMARK  Name = 
REMARK  4 active torsions:
REMARK  status: ('A' for Active; 'I' for Inactive)
REMARK    1  A    between atoms: C_2  and  C_3
REMARK    2  A    between atoms: C_3  and  N_4
REMARK    3  A    between atoms: C_5  and  C_6
REMARK    4  A    between atoms: N_20  and  C_21
REMARK                            x       y       z     vdW  Elec       q    Type
REMARK                         _______ _______ _______ _____ _____    ______ ____
ROOT
ATOM      1  N   UNL     1       3.276   4.715  18.469  0.00  0.00    +0.000 N 
ATOM      2  C   UNL     1       4.465   4.096  18.126  0.00  0.00    +0.000 A 
ATOM      3  N   UNL     1       4.707   3.099  18.975  0.00  0.00    +0.000 NA
ATOM      4  C   UNL     1       3.691   3.111  19.892  0.00  0.00    +0.000 A 
ATOM      5  C   UNL     1       3.423   2.306  21.004  0.00  0.00    +0.000 A 
ATOM      6  C   UNL     1       2.261   2.586  21.733  0.00  0.00    +0.000 A 
ATOM      7  C   UNL     1       1.431   3.623  21.317  0.00  0.00    +0.000 A 
ATOM      8  N   UNL     1       1.640   4.412  20.240  0.00  0.00    +0.000 NA
ATOM      9  C   UNL     1       2.783   4.111  19.595  0.00  0.00    +0.000 A 
ENDROOT
BRANCH   2  10
ATOM     10  C   UNL     1       5.322   4.403  16.964  0.00  0.00    +0.000 A 
ATOM     11  C   UNL     1       6.590   4.986  17.082  0.00  0.00    +0.000 A 
ATOM     12  C   UNL     1       7.366   5.271  15.952  0.00  0.00    +0.000 A 
ATOM     13  C   UNL     1       6.898   4.935  14.686  0.00  0.00    +0.000 A 
ATOM     14 CL   UNL     1       7.874   5.245  13.305  0.00  0.00    +0.000 Cl
ATOM     15  C   UNL     1       5.655   4.329  14.541  0.00  0.00    +0.000 A 
ATOM     16  C   UNL     1       4.871   4.069  15.673  0.00  0.00    +0.000 A 
ENDBRANCH   2  10
BRANCH   1  17
ATOM     17  C   UNL     1       2.525   5.726  17.747  0.00  0.00    +0.000 C 
BRANCH  17  19
ATOM     18  O   UNL     1       3.378   7.916  18.048  0.00  0.00    +0.000 OA
ATOM     19  C   UNL     1       2.540   7.089  18.405  0.00  0.00    +0.000 C 
ATOM     20  N   UNL     1       1.634   7.261  19.438  0.00  0.00    +0.000 N 
ATOM     21  H   UNL     1       1.135   6.442  19.771  0.00  0.00    +0.000 HD
BRANCH  20  22
ATOM     22  C   UNL     1       1.373   8.464  20.126  0.00  0.00    +0.000 A 
ATOM     23  C   UNL     1       1.074   9.663  19.489  0.00  0.00    +0.000 A 
ATOM     24  C   UNL     1       0.827  10.782  20.268  0.00  0.00    +0.000 A 
ATOM     25  N   UNL     1       0.860  10.782  21.616  0.00  0.00    +0.000 NA
ATOM     26  C   UNL     1       1.144   9.606  22.212  0.00  0.00    +0.000 A 
ATOM     27  C   UNL     1       1.394   8.432  21.521  0.00  0.00    +0.000 A 
ENDBRANCH  20  22
ENDBRANCH  17  19
ENDBRANCH   1  17
TORSDOF 4
ENDMDL
MODEL 2
REMARK VINA RESULT:      -7.7      3.086      7.045
REMARK  Name = 
REMARK  4 active torsions:
REMARK  status: ('A' for Active; 'I' for Inactive)
REMARK    1  A    between atoms: C_2  and  C_3
REMARK    2  A    between atoms: C_3  and  N_4
REMARK    3  A    between atoms: C_5  and  C_6
REMARK    4  A    between atoms: N_20  and  C_21
REMARK                            x       y       z     vdW  Elec       q    Type
REMARK                         _______ _______ _______ _____ _____    ______ ____
ROOT
ATOM      1  N   UNL     1       3.603   5.364  18.173  0.00  0.00    +0.000 N 
ATOM      2  C   UNL     1       2.415   5.945  18.582  0.00  0.00    +0.000 A 
ATOM      3  N   UNL     1       1.550   4.993  18.924  0.00  0.00    +0.000 NA
ATOM      4  C   UNL     1       2.171   3.796  18.687  0.00  0.00    +0.000 A 
ATOM      5  C   UNL     1       1.751   2.473  18.856  0.00  0.00    +0.000 A 
ATOM      6  C   UNL     1       2.663   1.464  18.526  0.00  0.00    +0.000 A 
ATOM      7  C   UNL     1       3.930   1.816  18.070  0.00  0.00    +0.000 A 
ATOM      8  N   UNL     1       4.385   3.079  17.911  0.00  0.00    +0.000 NA
ATOM      9  C   UNL     1       3.456   4.003  18.220  0.00  0.00    +0.000 A 
ENDROOT
BRANCH   2  10
ATOM     10  C   UNL     1       2.133   7.388  18.714  0.00  0.00    +0.000 A 
ATOM     11  C   UNL     1       2.253   8.291  17.651  0.00  0.00    +0.000 A 
ATOM     12  C   UNL     1       1.986   9.655  17.824  0.00  0.00    +0.000 A 
ATOM     13  C   UNL     1       1.554  10.127  19.057  0.00  0.00    +0.000 A 
ATOM     14 CL   UNL     1       1.183  11.794  19.251  0.00  0.00    +0.000 Cl
ATOM     15  C   UNL     1       1.398   9.248  20.125  0.00  0.00    +0.000 A 
ATOM     16  C   UNL     1       1.690   7.888  19.954  0.00  0.00    +0.000 A 
ENDBRANCH   2  10
BRANCH   1  17
ATOM     17  C   UNL     1       4.877   5.990  17.874  0.00  0.00    +0.000 C 
BRANCH  17  19
ATOM     18  O   UNL     1       4.972   7.004  15.735  0.00  0.00    +0.000 OA
ATOM     19  C   UNL     1       5.226   6.002  16.401  0.00  0.00    +0.000 C 
ATOM     20  N   UNL     1       5.741   4.817  15.903  0.00  0.00    +0.000 N 
ATOM     21  H   UNL     1       5.717   4.000  16.505  0.00  0.00    +0.000 HD
BRANCH  20  22
ATOM     22  C   UNL     1       6.248   4.609  14.603  0.00  0.00    +0.000 A 
ATOM     23  C   UNL     1       7.387   5.240  14.114  0.00  0.00    +0.000 A 
ATOM     24  C   UNL     1       7.798   4.954  12.823  0.00  0.00    +0.000 A 
ATOM     25  N   UNL     1       7.157   4.097  12.002  0.00  0.00    +0.000 NA
ATOM     26  C   UNL     1       6.060   3.492  12.500  0.00  0.00    +0.000 A 
ATOM     27  C   UNL     1       5.578   3.703  13.781  0.00  0.00    +0.000 A 
ENDBRANCH  20  22
ENDBRANCH  17  19
ENDBRANCH   1  17
TORSDOF 4
ENDMDL
MODEL 3
REMARK VINA RESULT:      -7.5      1.075      1.427
REMARK  Name = 
REMARK  4 active torsions:
REMARK  status: ('A' for Active; 'I' for Inactive)
REMARK    1  A    between atoms: C_2  and  C_3
REMARK    2  A    between atoms: C_3  and  N_4
REMARK    3  A    between atoms: C_5  and  C_6
REMARK    4  A    between atoms: N_20  and  C_21
REMARK                            x       y       z     vdW  Elec       q    Type
REMARK                         _______ _______ _______ _____ _____    ______ ____
ROOT
ATOM      1  N   UNL     1       3.849   4.741  18.634  0.00  0.00    +0.000 N 
ATOM      2  C   UNL     1       4.215   3.876  17.616  0.00  0.00    +0.000 A 
ATOM      3  N   UNL     1       3.576   2.718  17.767  0.00  0.00    +0.000 NA
ATOM      4  C   UNL     1       2.834   2.827  18.913  0.00  0.00    +0.000 A 
ATOM      5  C   UNL     1       1.975   1.933  19.561  0.00  0.00    +0.000 A 
ATOM      6  C   UNL     1       1.348   2.381  20.729  0.00  0.00    +0.000 A 
ATOM      7  C   UNL     1       1.589   3.677  21.177  0.00  0.00    +0.000 A 
ATOM      8  N   UNL     1       2.395   4.579  20.573  0.00  0.00    +0.000 NA
ATOM      9  C   UNL     1       2.987   4.083  19.470  0.00  0.00    +0.000 A 
ENDROOT
BRANCH   2  10
ATOM     10  C   UNL     1       5.105   4.174  16.477  0.00  0.00    +0.000 A 
ATOM     11  C   UNL     1       4.679   4.136  15.144  0.00  0.00    +0.000 A 
ATOM     12  C   UNL     1       5.560   4.415  14.092  0.00  0.00    +0.000 A 
ATOM     13  C   UNL     1       6.874   4.777  14.365  0.00  0.00    +0.000 A 
ATOM     14 CL   UNL     1       7.939   5.164  13.072  0.00  0.00    +0.000 Cl
ATOM     15  C   UNL     1       7.318   4.852  15.681  0.00  0.00    +0.000 A 
ATOM     16  C   UNL     1       6.439   4.547  16.729  0.00  0.00    +0.000 A 
ENDBRANCH   2  10
BRANCH   1  17
ATOM     17  C   UNL     1       4.148   6.152  18.792  0.00  0.00    +0.000 C 
BRANCH  17  19
ATOM     18  O   UNL     1       2.315   7.221  17.736  0.00  0.00    +0.000 OA
ATOM     19  C   UNL     1       2.924   7.042  18.790  0.00  0.00    +0.000 C 
ATOM     20  N   UNL     1       2.636   7.660  19.996  0.00  0.00    +0.000 N 
ATOM     21  H   UNL     1       3.324   7.592  20.739  0.00  0.00    +0.000 HD
BRANCH  20  22
ATOM     22  C   UNL     1       1.495   8.438  20.283  0.00  0.00    +0.000 A 
ATOM     23  C   UNL     1       1.040   9.464  19.463  0.00  0.00    +0.000 A 
ATOM     24  C   UNL     1      -0.098  10.157  19.841  0.00  0.00    +0.000 A 
ATOM     25  N   UNL     1      -0.798   9.899  20.965  0.00  0.00    +0.000 NA
ATOM     26  C   UNL     1      -0.342   8.894  21.741  0.00  0.00    +0.000 A 
ATOM     27  C   UNL     1       0.778   8.137  21.442  0.00  0.00    +0.000 A 
ENDBRANCH  20  22
ENDBRANCH  17  19
ENDBRANCH   1  17
TORSDOF 4
ENDMDL
MODEL 4
REMARK VINA RESULT:      -7.4      1.205      1.282
REMARK  Name = 
REMARK  4 active torsions:
REMARK  status: ('A' for Active; 'I' for Inactive)
REMARK    1  A    between atoms: C_2  and  C_3
REMARK    2  A    between atoms: C_3  and  N_4
REMARK    3  A    between atoms: C_5  and  C_6
REMARK    4  A    between atoms: N_20  and  C_21
REMARK                            x       y       z     vdW  Elec       q    Type
REMARK                         _______ _______ _______ _____ _____    ______ ____
ROOT
ATOM      1  N   UNL     1       3.906   4.569  18.694  0.00  0.00    +0.000 N 
ATOM      2  C   UNL     1       4.179   3.829  17.556  0.00  0.00    +0.000 A 
ATOM      3  N   UNL     1       3.387   2.760  17.522  0.00  0.00    +0.000 NA
ATOM      4  C   UNL     1       2.637   2.791  18.667  0.00  0.00    +0.000 A 
ATOM      5  C   UNL     1       1.650   1.934  19.164  0.00  0.00    +0.000 A 
ATOM      6  C   UNL     1       1.059   2.278  20.385  0.00  0.00    +0.000 A 
ATOM      7  C   UNL     1       1.460   3.445  21.030  0.00  0.00    +0.000 A 
ATOM      8  N   UNL     1       2.393   4.310  20.577  0.00  0.00    +0.000 NA
ATOM      9  C   UNL     1       2.942   3.914  19.414  0.00  0.00    +0.000 A 
ENDROOT
BRANCH   2  10
ATOM     10  C   UNL     1       5.129   4.174  16.481  0.00  0.00    +0.000 A 
ATOM     11  C   UNL     1       6.464   4.521  16.722  0.00  0.00    +0.000 A 
ATOM     12  C   UNL     1       7.330   4.852  15.673  0.00  0.00    +0.000 A 
ATOM     13  C   UNL     1       6.879   4.799  14.359  0.00  0.00    +0.000 A 
ATOM     14 CL   UNL     1       7.959   5.162  13.071  0.00  0.00    +0.000 Cl
ATOM     15  C   UNL     1       5.566   4.430  14.086  0.00  0.00    +0.000 A 
ATOM     16  C   UNL     1       4.696   4.124  15.142  0.00  0.00    +0.000 A 
ENDBRANCH   2  10
BRANCH   1  17
ATOM     17  C   UNL     1       4.386   5.885  19.071  0.00  0.00    +0.000 C 
BRANCH  17  19
ATOM     18  O   UNL     1       3.420   7.492  17.622  0.00  0.00    +0.000 OA
ATOM     19  C   UNL     1       3.420   7.006  18.752  0.00  0.00    +0.000 C 
ATOM     20  N   UNL     1       2.655   7.452  19.817  0.00  0.00    +0.000 N 
ATOM     21  H   UNL     1       2.887   7.109  20.744  0.00  0.00    +0.000 HD
BRANCH  20  22
ATOM     22  C   UNL     1       1.609   8.397  19.754  0.00  0.00    +0.000 A 
ATOM     23  C   UNL     1       1.299   9.123  18.609  0.00  0.00    +0.000 A 
ATOM     24  C   UNL     1       0.244  10.019  18.661  0.00  0.00    +0.000 A 
ATOM     25  N   UNL     1      -0.507  10.235  19.761  0.00  0.00    +0.000 NA
ATOM     26  C   UNL     1      -0.192   9.513  20.856  0.00  0.00    +0.000 A 
ATOM     27  C   UNL     1       0.836   8.586  20.900  0.00  0.00    +0.000 A 
ENDBRANCH  20  22
ENDBRANCH  17  19
ENDBRANCH   1  17
TORSDOF 4
ENDMDL
MODEL 5
REMARK VINA RESULT:      -7.4      1.060      1.393
REMARK  Name = 
REMARK  4 active torsions:
REMARK  status: ('A' for Active; 'I' for Inactive)
REMARK    1  A    between atoms: C_2  and  C_3
REMARK    2  A    between atoms: C_3  and  N_4
REMARK    3  A    between atoms: C_5  and  C_6
REMARK    4  A    between atoms: N_20  and  C_21
REMARK                            x       y       z     vdW  Elec       q    Type
REMARK                         _______ _______ _______ _____ _____    ______ ____
ROOT
ATOM      1  N   UNL     1       3.875   4.753  18.704  0.00  0.00    +0.000 N 
ATOM      2  C   UNL     1       4.287   3.898  17.697  0.00  0.00    +0.000 A 
ATOM      3  N   UNL     1       3.675   2.724  17.833  0.00  0.00    +0.000 NA
ATOM      4  C   UNL     1       2.903   2.813  18.960  0.00  0.00    +0.000 A 
ATOM      5  C   UNL     1       2.052   1.898  19.588  0.00  0.00    +0.000 A 
ATOM      6  C   UNL     1       1.385   2.330  20.741  0.00  0.00    +0.000 A 
ATOM      7  C   UNL     1       1.582   3.631  21.193  0.00  0.00    +0.000 A 
ATOM      8  N   UNL     1       2.378   4.554  20.608  0.00  0.00    +0.000 NA
ATOM      9  C   UNL     1       3.010   4.073  19.520  0.00  0.00    +0.000 A 
ENDROOT
BRANCH   2  10
ATOM     10  C   UNL     1       5.196   4.218  16.579  0.00  0.00    +0.000 A 
ATOM     11  C   UNL     1       6.541   4.562  16.761  0.00  0.00    +0.000 A 
ATOM     12  C   UNL     1       7.366   4.869  15.672  0.00  0.00    +0.000 A 
ATOM     13  C   UNL     1       6.864   4.794  14.378  0.00  0.00    +0.000 A 
ATOM     14 CL   UNL     1       7.893   5.127  13.042  0.00  0.00    +0.000 Cl
ATOM     15  C   UNL     1       5.539   4.427  14.164  0.00  0.00    +0.000 A 
ATOM     16  C   UNL     1       4.711   4.145  15.259  0.00  0.00    +0.000 A 
ENDBRANCH   2  10
BRANCH   1  17
ATOM     17  C   UNL     1       4.132   6.171  18.868  0.00  0.00    +0.000 C 
BRANCH  17  19
ATOM     18  O   UNL     1       2.238   7.143  17.827  0.00  0.00    +0.000 OA
ATOM     19  C   UNL     1       2.883   7.026  18.868  0.00  0.00    +0.000 C 
ATOM     20  N   UNL     1       2.614   7.686  20.055  0.00  0.00    +0.000 N 
ATOM     21  H   UNL     1       3.327   7.669  20.778  0.00  0.00    +0.000 HD
BRANCH  20  22
ATOM     22  C   UNL     1       1.460   8.443  20.346  0.00  0.00    +0.000 A 
ATOM     23  C   UNL     1       0.659   8.223  21.462  0.00  0.00    +0.000 A 
ATOM     24  C   UNL     1      -0.447   9.034  21.651  0.00  0.00    +0.000 A 
ATOM     25  N   UNL     1      -0.801  10.031  20.814  0.00  0.00    +0.000 NA
ATOM     26  C   UNL     1      -0.005  10.231  19.744  0.00  0.00    +0.000 A 
ATOM     27  C   UNL     1       1.128   9.481  19.475  0.00  0.00    +0.000 A 
ENDBRANCH  20  22
ENDBRANCH  17  19
ENDBRANCH   1  17
TORSDOF 4
ENDMDL
MODEL 6
REMARK VINA RESULT:      -7.4      3.023      6.950
REMARK  Name = 
REMARK  4 active torsions:
REMARK  status: ('A' for Active; 'I' for Inactive)
REMARK    1  A    between atoms: C_2  and  C_3
REMARK    2  A    between atoms: C_3  and  N_4
REMARK    3  A    between atoms: C_5  and  C_6
REMARK    4  A    between atoms: N_20  and  C_21
REMARK                            x       y       z     vdW  Elec       q    Type
REMARK                         _______ _______ _______ _____ _____    ______ ____
ROOT
ATOM      1  N   UNL     1       3.525   5.310  18.341  0.00  0.00    +0.000 N 
ATOM      2  C   UNL     1       2.350   5.890  18.787  0.00  0.00    +0.000 A 
ATOM      3  N   UNL     1       1.506   4.937  19.178  0.00  0.00    +0.000 NA
ATOM      4  C   UNL     1       2.126   3.741  18.937  0.00  0.00    +0.000 A 
ATOM      5  C   UNL     1       1.722   2.418  19.143  0.00  0.00    +0.000 A 
ATOM      6  C   UNL     1       2.629   1.410  18.795  0.00  0.00    +0.000 A 
ATOM      7  C   UNL     1       3.874   1.762  18.283  0.00  0.00    +0.000 A 
ATOM      8  N   UNL     1       4.313   3.026  18.086  0.00  0.00    +0.000 NA
ATOM      9  C   UNL     1       3.390   3.949  18.416  0.00  0.00    +0.000 A 
ENDROOT
BRANCH   2  10
ATOM     10  C   UNL     1       2.063   7.332  18.907  0.00  0.00    +0.000 A 
ATOM     11  C   UNL     1       1.712   7.945  20.117  0.00  0.00    +0.000 A 
ATOM     12  C   UNL     1       1.437   9.316  20.183  0.00  0.00    +0.000 A 
ATOM     13  C   UNL     1       1.551  10.103  19.043  0.00  0.00    +0.000 A 
ATOM     14 CL   UNL     1       1.258  11.794  19.140  0.00  0.00    +0.000 Cl
ATOM     15  C   UNL     1       1.926   9.528  17.833  0.00  0.00    +0.000 A 
ATOM     16  C   UNL     1       2.176   8.150  17.766  0.00  0.00    +0.000 A 
ENDBRANCH   2  10
BRANCH   1  17
ATOM     17  C   UNL     1       4.782   5.939  17.983  0.00  0.00    +0.000 C 
BRANCH  17  19
ATOM     18  O   UNL     1       4.761   6.904  15.819  0.00  0.00    +0.000 OA
ATOM     19  C   UNL     1       5.074   5.927  16.498  0.00  0.00    +0.000 C 
ATOM     20  N   UNL     1       5.611   4.749  16.007  0.00  0.00    +0.000 N 
ATOM     21  H   UNL     1       5.638   3.946  16.628  0.00  0.00    +0.000 HD
BRANCH  20  22
ATOM     22  C   UNL     1       6.075   4.527  14.694  0.00  0.00    +0.000 A 
ATOM     23  C   UNL     1       5.421   3.711  13.776  0.00  0.00    +0.000 A 
ATOM     24  C   UNL     1       5.965   3.573  12.510  0.00  0.00    +0.000 A 
ATOM     25  N   UNL     1       7.099   4.183  12.107  0.00  0.00    +0.000 NA
ATOM     26  C   UNL     1       7.711   4.975  13.011  0.00  0.00    +0.000 A 
ATOM     27  C   UNL     1       7.239   5.186  14.296  0.00  0.00    +0.000 A 
ENDBRANCH  20  22
ENDBRANCH  17  19
ENDBRANCH   1  17
TORSDOF 4
ENDMDL
MODEL 7
REMARK VINA RESULT:      -7.3      2.249      6.314
REMARK  Name = 
REMARK  4 active torsions:
REMARK  status: ('A' for Active; 'I' for Inactive)
REMARK    1  A    between atoms: C_2  and  C_3
REMARK    2  A    between atoms: C_3  and  N_4
REMARK    3  A    between atoms: C_5  and  C_6
REMARK    4  A    between atoms: N_20  and  C_21
REMARK                            x       y       z     vdW  Elec       q    Type
REMARK                         _______ _______ _______ _____ _____    ______ ____
ROOT
ATOM      1  N   UNL     1       1.989   7.629  19.148  0.00  0.00    +0.000 N 
ATOM      2  C   UNL     1       1.922   6.496  19.941  0.00  0.00    +0.000 A 
ATOM      3  N   UNL     1       1.343   6.800  21.100  0.00  0.00    +0.000 NA
ATOM      4  C   UNL     1       1.081   8.143  21.067  0.00  0.00    +0.000 A 
ATOM      5  C   UNL     1       0.491   9.006  21.996  0.00  0.00    +0.000 A 
ATOM      6  C   UNL     1       0.355  10.349  21.627  0.00  0.00    +0.000 A 
ATOM      7  C   UNL     1       0.791  10.756  20.369  0.00  0.00    +0.000 A 
ATOM      8  N   UNL     1       1.348   9.955  19.434  0.00  0.00    +0.000 NA
ATOM      9  C   UNL     1       1.473   8.682  19.856  0.00  0.00    +0.000 A 
ENDROOT
BRANCH   2  10
ATOM     10  C   UNL     1       2.339   5.129  19.571  0.00  0.00    +0.000 A 
ATOM     11  C   UNL     1       1.617   4.324  18.681  0.00  0.00    +0.000 A 
ATOM     12  C   UNL     1       2.043   3.029  18.366  0.00  0.00    +0.000 A 
ATOM     13  C   UNL     1       3.223   2.534  18.908  0.00  0.00    +0.000 A 
ATOM     14 CL   UNL     1       3.766   0.959  18.482  0.00  0.00    +0.000 Cl
ATOM     15  C   UNL     1       3.976   3.322  19.774  0.00  0.00    +0.000 A 
ATOM     16  C   UNL     1       3.533   4.609  20.105  0.00  0.00    +0.000 A 
ENDBRANCH   2  10
BRANCH   1  17
ATOM     17  C   UNL     1       2.374   7.754  17.755  0.00  0.00    +0.000 C 
BRANCH  17  19
ATOM     18  O   UNL     1       4.683   8.286  17.702  0.00  0.00    +0.000 OA
ATOM     19  C   UNL     1       3.828   7.428  17.488  0.00  0.00    +0.000 C 
ATOM     20  N   UNL     1       4.065   6.180  16.934  0.00  0.00    +0.000 N 
ATOM     21  H   UNL     1       3.264   5.642  16.619  0.00  0.00    +0.000 HD
BRANCH  20  22
ATOM     22  C   UNL     1       5.328   5.597  16.702  0.00  0.00    +0.000 A 
ATOM     23  C   UNL     1       6.217   5.263  17.718  0.00  0.00    +0.000 A 
ATOM     24  C   UNL     1       7.429   4.687  17.373  0.00  0.00    +0.000 A 
ATOM     25  N   UNL     1       7.805   4.429  16.104  0.00  0.00    +0.000 NA
ATOM     26  C   UNL     1       6.924   4.755  15.136  0.00  0.00    +0.000 A 
ATOM     27  C   UNL     1       5.685   5.323  15.381  0.00  0.00    +0.000 A 
ENDBRANCH  20  22
ENDBRANCH  17  19
ENDBRANCH   1  17
TORSDOF 4
ENDMDL
MODEL 8
REMARK VINA RESULT:      -7.2      0.757      1.249
REMARK  Name = 
REMARK  4 active torsions:
REMARK  status: ('A' for Active; 'I' for Inactive)
REMARK    1  A    between atoms: C_2  and  C_3
REMARK    2  A    between atoms: C_3  and  N_4
REMARK    3  A    between atoms: C_5  and  C_6
REMARK    4  A    between atoms: N_20  and  C_21
REMARK                            x       y       z     vdW  Elec       q    Type
REMARK                         _______ _______ _______ _____ _____    ______ ____
ROOT
ATOM      1  N   UNL     1       3.170   4.758  18.426  0.00  0.00    +0.000 N 
ATOM      2  C   UNL     1       4.389   4.176  18.125  0.00  0.00    +0.000 A 
ATOM      3  N   UNL     1       4.642   3.201  18.997  0.00  0.00    +0.000 NA
ATOM      4  C   UNL     1       3.602   3.193  19.887  0.00  0.00    +0.000 A 
ATOM      5  C   UNL     1       3.333   2.397  21.005  0.00  0.00    +0.000 A 
ATOM      6  C   UNL     1       2.143   2.647  21.698  0.00  0.00    +0.000 A 
ATOM      7  C   UNL     1       1.289   3.648  21.243  0.00  0.00    +0.000 A 
ATOM      8  N   UNL     1       1.499   4.426  20.159  0.00  0.00    +0.000 NA
ATOM      9  C   UNL     1       2.669   4.155  19.549  0.00  0.00    +0.000 A 
ENDROOT
BRANCH   2  10
ATOM     10  C   UNL     1       5.266   4.494  16.981  0.00  0.00    +0.000 A 
ATOM     11  C   UNL     1       6.353   5.372  17.072  0.00  0.00    +0.000 A 
ATOM     12  C   UNL     1       7.153   5.654  15.958  0.00  0.00    +0.000 A 
ATOM     13  C   UNL     1       6.899   5.027  14.744  0.00  0.00    +0.000 A 
ATOM     14 CL   UNL     1       7.912   5.342  13.392  0.00  0.00    +0.000 Cl
ATOM     15  C   UNL     1       5.843   4.128  14.631  0.00  0.00    +0.000 A 
ATOM     16  C   UNL     1       5.030   3.867  15.742  0.00  0.00    +0.000 A 
ENDBRANCH   2  10
BRANCH   1  17
ATOM     17  C   UNL     1       2.404   5.730  17.668  0.00  0.00    +0.000 C 
BRANCH  17  19
ATOM     18  O   UNL     1       3.727   7.665  18.021  0.00  0.00    +0.000 OA
ATOM     19  C   UNL     1       2.609   7.160  18.120  0.00  0.00    +0.000 C 
ATOM     20  N   UNL     1       1.504   7.766  18.695  0.00  0.00    +0.000 N 
ATOM     21  H   UNL     1       0.699   7.183  18.902  0.00  0.00    +0.000 HD
BRANCH  20  22
ATOM     22  C   UNL     1       1.403   9.117  19.086  0.00  0.00    +0.000 A 
ATOM     23  C   UNL     1       0.991   9.521  20.352  0.00  0.00    +0.000 A 
ATOM     24  C   UNL     1       0.937  10.877  20.628  0.00  0.00    +0.000 A 
ATOM     25  N   UNL     1       1.259  11.839  19.739  0.00  0.00    +0.000 NA
ATOM     26  C   UNL     1       1.663  11.424  18.521  0.00  0.00    +0.000 A 
ATOM     27  C   UNL     1       1.761  10.092  18.154  0.00  0.00    +0.000 A 
ENDBRANCH  20  22
ENDBRANCH  17  19
ENDBRANCH   1  17
TORSDOF 4
ENDMDL
MODEL 9
REMARK VINA RESULT:      -7.2      1.232      1.863
REMARK  Name = 
REMARK  4 active torsions:
REMARK  status: ('A' for Active; 'I' for Inactive)
REMARK    1  A    between atoms: C_2  and  C_3
REMARK    2  A    between atoms: C_3  and  N_4
REMARK    3  A    between atoms: C_5  and  C_6
REMARK    4  A    between atoms: N_20  and  C_21
REMARK                            x       y       z     vdW  Elec       q    Type
REMARK                         _______ _______ _______ _____ _____    ______ ____
ROOT
ATOM      1  N   UNL     1       3.802   4.622  18.509  0.00  0.00    +0.000 N 
ATOM      2  C   UNL     1       4.046   3.881  17.366  0.00  0.00    +0.000 A 
ATOM      3  N   UNL     1       3.207   2.849  17.319  0.00  0.00    +0.000 NA
ATOM      4  C   UNL     1       2.454   2.904  18.462  0.00  0.00    +0.000 A 
ATOM      5  C   UNL     1       1.427   2.088  18.947  0.00  0.00    +0.000 A 
ATOM      6  C   UNL     1       0.846   2.449  20.169  0.00  0.00    +0.000 A 
ATOM      7  C   UNL     1       1.297   3.590  20.826  0.00  0.00    +0.000 A 
ATOM      8  N   UNL     1       2.271   4.417  20.384  0.00  0.00    +0.000 NA
ATOM      9  C   UNL     1       2.807   4.005  19.219  0.00  0.00    +0.000 A 
ENDROOT
BRANCH   2  10
ATOM     10  C   UNL     1       5.016   4.192  16.298  0.00  0.00    +0.000 A 
ATOM     11  C   UNL     1       4.718   4.070  14.935  0.00  0.00    +0.000 A 
ATOM     12  C   UNL     1       5.672   4.365  13.954  0.00  0.00    +0.000 A 
ATOM     13  C   UNL     1       6.929   4.828  14.325  0.00  0.00    +0.000 A 
ATOM     14 CL   UNL     1       8.082   5.233  13.116  0.00  0.00    +0.000 Cl
ATOM     15  C   UNL     1       7.245   4.986  15.671  0.00  0.00    +0.000 A 
ATOM     16  C   UNL     1       6.295   4.666  16.650  0.00  0.00    +0.000 A 
ENDBRANCH   2  10
BRANCH   1  17
ATOM     17  C   UNL     1       4.340   5.912  18.900  0.00  0.00    +0.000 C 
BRANCH  17  19
ATOM     18  O   UNL     1       3.425   7.646  17.568  0.00  0.00    +0.000 OA
ATOM     19  C   UNL     1       3.397   7.070  18.655  0.00  0.00    +0.000 C 
ATOM     20  N   UNL     1       2.618   7.442  19.739  0.00  0.00    +0.000 N 
ATOM     21  H   UNL     1       2.827   7.021  20.639  0.00  0.00    +0.000 HD
BRANCH  20  22
ATOM     22  C   UNL     1       1.587   8.405  19.734  0.00  0.00    +0.000 A 
ATOM     23  C   UNL     1       0.810   8.702  20.849  0.00  0.00    +0.000 A 
ATOM     24  C   UNL     1      -0.171   9.673  20.730  0.00  0.00    +0.000 A 
ATOM     25  N   UNL     1      -0.423  10.353  19.593  0.00  0.00    +0.000 NA
ATOM     26  C   UNL     1       0.349  10.053  18.528  0.00  0.00    +0.000 A 
ATOM     27  C   UNL     1       1.360   9.108  18.550  0.00  0.00    +0.000 A 
ENDBRANCH  20  22
ENDBRANCH  17  19
ENDBRANCH   1  17
TORSDOF 4
ENDMDL
