MODEL 1
REMARK VINA RESULT:      -5.9      0.000      0.000
REMARK  Name = 
REMARK  4 active torsions:
REMARK  status: ('A' for Active; 'I' for Inactive)
REMARK    1  A    between atoms: C_1  and  C_2
REMARK    2  A    between atoms: C_2  and  S_3
REMARK    3  A    between atoms: S_3  and  C_4
REMARK    4  A    between atoms: C_6  and  C_7
REMARK                            x       y       z     vdW  Elec       q    Type
REMARK                         _______ _______ _______ _____ _____    ______ ____
ROOT
ATOM      1  C   UNL     1       5.091   3.995  17.712  0.00  0.00    +0.000 A 
ATOM      2  C   UNL     1       5.084   3.740  16.392  0.00  0.00    +0.000 A 
ATOM      3  C   UNL     1       6.229   4.287  15.601  0.00  0.00    +0.000 A 
ATOM      4  C   UNL     1       6.249   3.989  14.122  0.00  0.00    +0.000 C 
ATOM      5  N   UNL     1       7.209   4.983  16.091  0.00  0.00    +0.000 NA
ATOM      6  C   UNL     1       7.187   5.217  17.434  0.00  0.00    +0.000 A 
ATOM      7  N   UNL     1       8.062   5.865  18.169  0.00  0.00    +0.000 NA
ATOM      8  C   UNL     1       7.556   5.770  19.426  0.00  0.00    +0.000 A 
ATOM      9  N   UNL     1       6.403   5.114  19.543  0.00  0.00    +0.000 NA
ATOM     10  N   UNL     1       6.151   4.739  18.258  0.00  0.00    +0.000 N 
ENDROOT
BRANCH   1  11
ATOM     11  S   UNL     1       3.849   3.305  18.715  0.00  0.00    +0.000 S 
BRANCH  11  13
ATOM     12  C   UNL     1       1.531   4.327  17.705  0.00  0.00    +0.000 C 
ATOM     13  C   UNL     1       2.462   3.133  17.551  0.00  0.00    +0.000 C 
ENDBRANCH  11  13
ENDBRANCH   1  11
TORSDOF 2
ENDMDL
MODEL 2
REMARK VINA RESULT:      -5.8      1.733      3.658
REMARK  Name = 
REMARK  4 active torsions:
REMARK  status: ('A' for Active; 'I' for Inactive)
REMARK    1  A    between atoms: C_1  and  C_2
REMARK    2  A    between atoms: C_2  and  S_3
REMARK    3  A    between atoms: S_3  and  C_4
REMARK    4  A    between atoms: C_6  and  C_7
REMARK                            x       y       z     vdW  Elec       q    Type
REMARK                         _______ _______ _______ _____ _____    ______ ____
ROOT
ATOM      1  C   UNL     1       5.995   4.491  16.269  0.00  0.00    +0.000 A 
ATOM      2  C   UNL     1       4.751   3.983  16.270  0.00  0.00    +0.000 A 
ATOM      3  C   UNL     1       4.062   3.910  17.594  0.00  0.00    +0.000 A 
ATOM      4  C   UNL     1       2.655   3.364  17.609  0.00  0.00    +0.000 C 
ATOM      5  N   UNL     1       4.574   4.291  18.724  0.00  0.00    +0.000 NA
ATOM      6  C   UNL     1       5.836   4.808  18.685  0.00  0.00    +0.000 A 
ATOM      7  N   UNL     1       6.560   5.281  19.673  0.00  0.00    +0.000 NA
ATOM      8  C   UNL     1       7.708   5.679  19.066  0.00  0.00    +0.000 A 
ATOM      9  N   UNL     1       7.772   5.476  17.751  0.00  0.00    +0.000 NA
ATOM     10  N   UNL     1       6.560   4.917  17.484  0.00  0.00    +0.000 N 
ENDROOT
BRANCH   1  11
ATOM     11  S   UNL     1       6.823   4.705  14.753  0.00  0.00    +0.000 S 
BRANCH  11  13
ATOM     12  C   UNL     1       6.468   3.536  12.315  0.00  0.00    +0.000 C 
ATOM     13  C   UNL     1       5.698   3.889  13.580  0.00  0.00    +0.000 C 
ENDBRANCH  11  13
ENDBRANCH   1  11
TORSDOF 2
ENDMDL
MODEL 3
REMARK VINA RESULT:      -5.7      0.797      1.095
REMARK  Name = 
REMARK  4 active torsions:
REMARK  status: ('A' for Active; 'I' for Inactive)
REMARK    1  A    between atoms: C_1  and  C_2
REMARK    2  A    between atoms: C_2  and  S_3
REMARK    3  A    between atoms: S_3  and  C_4
REMARK    4  A    between atoms: C_6  and  C_7
REMARK                            x       y       z     vdW  Elec       q    Type
REMARK                         _______ _______ _______ _____ _____    ______ ____
ROOT
ATOM      1  C   UNL     1       4.729   4.491  17.475  0.00  0.00    +0.000 A 
ATOM      2  C   UNL     1       4.874   4.203  16.171  0.00  0.00    +0.000 A 
ATOM      3  C   UNL     1       6.263   4.272  15.622  0.00  0.00    +0.000 A 
ATOM      4  C   UNL     1       6.446   3.928  14.164  0.00  0.00    +0.000 C 
ATOM      5  N   UNL     1       7.319   4.591  16.305  0.00  0.00    +0.000 NA
ATOM      6  C   UNL     1       7.138   4.871  17.627  0.00  0.00    +0.000 A 
ATOM      7  N   UNL     1       8.036   5.193  18.530  0.00  0.00    +0.000 NA
ATOM      8  C   UNL     1       7.309   5.335  19.668  0.00  0.00    +0.000 A 
ATOM      9  N   UNL     1       5.996   5.139  19.549  0.00  0.00    +0.000 NA
ATOM     10  N   UNL     1       5.867   4.828  18.230  0.00  0.00    +0.000 N 
ENDROOT
BRANCH   1  11
ATOM     11  S   UNL     1       3.161   4.331  18.211  0.00  0.00    +0.000 S 
BRANCH  11  13
ATOM     12  C   UNL     1       3.374   1.623  18.450  0.00  0.00    +0.000 C 
ATOM     13  C   UNL     1       2.635   2.684  17.647  0.00  0.00    +0.000 C 
ENDBRANCH  11  13
ENDBRANCH   1  11
TORSDOF 2
ENDMDL
MODEL 4
REMARK VINA RESULT:      -5.7      1.580      3.230
REMARK  Name = 
REMARK  4 active torsions:
REMARK  status: ('A' for Active; 'I' for Inactive)
REMARK    1  A    between atoms: C_1  and  C_2
REMARK    2  A    between atoms: C_2  and  S_3
REMARK    3  A    between atoms: S_3  and  C_4
REMARK    4  A    between atoms: C_6  and  C_7
REMARK                            x       y       z     vdW  Elec       q    Type
REMARK                         _______ _______ _______ _____ _____    ______ ____
ROOT
ATOM      1  C   UNL     1       5.843   4.842  17.781  0.00  0.00    +0.000 A 
ATOM      2  C   UNL     1       6.458   5.879  18.374  0.00  0.00    +0.000 A 
ATOM      3  C   UNL     1       7.375   6.690  17.517  0.00  0.00    +0.000 A 
ATOM      4  C   UNL     1       8.055   7.873  18.162  0.00  0.00    +0.000 C 
ATOM      5  N   UNL     1       7.619   6.463  16.263  0.00  0.00    +0.000 NA
ATOM      6  C   UNL     1       6.974   5.406  15.691  0.00  0.00    +0.000 A 
ATOM      7  N   UNL     1       7.029   4.985  14.448  0.00  0.00    +0.000 NA
ATOM      8  C   UNL     1       6.178   3.926  14.432  0.00  0.00    +0.000 A 
ATOM      9  N   UNL     1       5.591   3.632  15.590  0.00  0.00    +0.000 NA
ATOM     10  N   UNL     1       6.090   4.589  16.420  0.00  0.00    +0.000 N 
ENDROOT
BRANCH   1  11
ATOM     11  S   UNL     1       4.681   3.914  18.685  0.00  0.00    +0.000 S 
BRANCH  11  13
ATOM     12  C   UNL     1       2.236   3.500  17.552  0.00  0.00    +0.000 C 
ATOM     13  C   UNL     1       3.102   4.616  18.119  0.00  0.00    +0.000 C 
ENDBRANCH  11  13
ENDBRANCH   1  11
TORSDOF 2
ENDMDL
MODEL 5
REMARK VINA RESULT:      -5.6      1.535      3.275
REMARK  Name = 
REMARK  4 active torsions:
REMARK  status: ('A' for Active; 'I' for Inactive)
REMARK    1  A    between atoms: C_1  and  C_2
REMARK    2  A    between atoms: C_2  and  S_3
REMARK    3  A    between atoms: S_3  and  C_4
REMARK    4  A    between atoms: C_6  and  C_7
REMARK                            x       y       z     vdW  Elec       q    Type
REMARK                         _______ _______ _______ _____ _____    ______ ____
ROOT
ATOM      1  C   UNL     1       5.054   4.180  17.196  0.00  0.00    +0.000 A 
ATOM      2  C   UNL     1       5.613   4.569  18.354  0.00  0.00    +0.000 A 
ATOM      3  C   UNL     1       6.966   5.198  18.265  0.00  0.00    +0.000 A 
ATOM      4  C   UNL     1       7.597   5.662  19.555  0.00  0.00    +0.000 C 
ATOM      5  N   UNL     1       7.629   5.386  17.166  0.00  0.00    +0.000 NA
ATOM      6  C   UNL     1       7.031   4.986  16.008  0.00  0.00    +0.000 A 
ATOM      7  N   UNL     1       7.476   5.085  14.776  0.00  0.00    +0.000 NA
ATOM      8  C   UNL     1       6.472   4.555  14.030  0.00  0.00    +0.000 A 
ATOM      9  N   UNL     1       5.416   4.108  14.708  0.00  0.00    +0.000 NA
ATOM     10  N   UNL     1       5.758   4.387  15.996  0.00  0.00    +0.000 N 
ENDROOT
BRANCH   1  11
ATOM     11  S   UNL     1       3.439   3.535  17.207  0.00  0.00    +0.000 S 
BRANCH  11  13
ATOM     12  C   UNL     1       2.235   2.063  19.162  0.00  0.00    +0.000 C 
ATOM     13  C   UNL     1       3.564   2.197  18.432  0.00  0.00    +0.000 C 
ENDBRANCH  11  13
ENDBRANCH   1  11
TORSDOF 2
ENDMDL
MODEL 6
REMARK VINA RESULT:      -5.5      1.407      3.204
REMARK  Name = 
REMARK  4 active torsions:
REMARK  status: ('A' for Active; 'I' for Inactive)
REMARK    1  A    between atoms: C_1  and  C_2
REMARK    2  A    between atoms: C_2  and  S_3
REMARK    3  A    between atoms: S_3  and  C_4
REMARK    4  A    between atoms: C_6  and  C_7
REMARK                            x       y       z     vdW  Elec       q    Type
REMARK                         _______ _______ _______ _____ _____    ______ ____
ROOT
ATOM      1  C   UNL     1       5.166   4.138  17.308  0.00  0.00    +0.000 A 
ATOM      2  C   UNL     1       5.762   4.550  18.440  0.00  0.00    +0.000 A 
ATOM      3  C   UNL     1       7.085   5.229  18.289  0.00  0.00    +0.000 A 
ATOM      4  C   UNL     1       7.755   5.720  19.549  0.00  0.00    +0.000 C 
ATOM      5  N   UNL     1       7.691   5.440  17.161  0.00  0.00    +0.000 NA
ATOM      6  C   UNL     1       7.056   5.014  16.031  0.00  0.00    +0.000 A 
ATOM      7  N   UNL     1       7.441   5.127  14.781  0.00  0.00    +0.000 NA
ATOM      8  C   UNL     1       6.425   4.558  14.081  0.00  0.00    +0.000 A 
ATOM      9  N   UNL     1       5.418   4.073  14.806  0.00  0.00    +0.000 NA
ATOM     10  N   UNL     1       5.807   4.368  16.077  0.00  0.00    +0.000 N 
ENDROOT
BRANCH   1  11
ATOM     11  S   UNL     1       3.578   3.433  17.392  0.00  0.00    +0.000 S 
BRANCH  11  13
ATOM     12  C   UNL     1       2.282   5.707  18.160  0.00  0.00    +0.000 C 
ATOM     13  C   UNL     1       2.800   4.392  18.727  0.00  0.00    +0.000 C 
ENDBRANCH  11  13
ENDBRANCH   1  11
TORSDOF 2
ENDMDL
MODEL 7
REMARK VINA RESULT:      -5.5      1.048      1.048
REMARK  Name = 
REMARK  4 active torsions:
REMARK  status: ('A' for Active; 'I' for Inactive)
REMARK    1  A    between atoms: C_1  and  C_2
REMARK    2  A    between atoms: C_2  and  S_3
REMARK    3  A    between atoms: S_3  and  C_4
REMARK    4  A    between atoms: C_6  and  C_7
REMARK                            x       y       z     vdW  Elec       q    Type
REMARK                         _______ _______ _______ _____ _____    ______ ____
ROOT
ATOM      1  C   UNL     1       5.148   4.270  17.086  0.00  0.00    +0.000 A 
ATOM      2  C   UNL     1       5.057   3.783  15.837  0.00  0.00    +0.000 A 
ATOM      3  C   UNL     1       5.987   4.366  14.823  0.00  0.00    +0.000 A 
ATOM      4  C   UNL     1       5.913   3.812  13.421  0.00  0.00    +0.000 C 
ATOM      5  N   UNL     1       6.858   5.298  15.060  0.00  0.00    +0.000 NA
ATOM      6  C   UNL     1       6.929   5.766  16.339  0.00  0.00    +0.000 A 
ATOM      7  N   UNL     1       7.732   6.678  16.837  0.00  0.00    +0.000 NA
ATOM      8  C   UNL     1       7.385   6.727  18.149  0.00  0.00    +0.000 A 
ATOM      9  N   UNL     1       6.399   5.913  18.522  0.00  0.00    +0.000 NA
ATOM     10  N   UNL     1       6.094   5.274  17.359  0.00  0.00    +0.000 N 
ENDROOT
BRANCH   1  11
ATOM     11  S   UNL     1       4.172   3.570  18.344  0.00  0.00    +0.000 S 
BRANCH  11  13
ATOM     12  C   UNL     1       1.447   3.483  18.313  0.00  0.00    +0.000 C 
ATOM     13  C   UNL     1       2.650   3.127  17.452  0.00  0.00    +0.000 C 
ENDBRANCH  11  13
ENDBRANCH   1  11
TORSDOF 2
ENDMDL
MODEL 8
REMARK VINA RESULT:      -5.5      2.306      4.654
REMARK  Name = 
REMARK  4 active torsions:
REMARK  status: ('A' for Active; 'I' for Inactive)
REMARK    1  A    between atoms: C_1  and  C_2
REMARK    2  A    between atoms: C_2  and  S_3
REMARK    3  A    between atoms: S_3  and  C_4
REMARK    4  A    between atoms: C_6  and  C_7
REMARK                            x       y       z     vdW  Elec       q    Type
REMARK                         _______ _______ _______ _____ _____    ______ ____
ROOT
ATOM      1  C   UNL     1       6.637   5.505  17.843  0.00  0.00    +0.000 A 
ATOM      2  C   UNL     1       5.718   4.998  18.681  0.00  0.00    +0.000 A 
ATOM      3  C   UNL     1       4.739   4.033  18.094  0.00  0.00    +0.000 A 
ATOM      4  C   UNL     1       3.714   3.437  19.028  0.00  0.00    +0.000 C 
ATOM      5  N   UNL     1       4.713   3.661  16.851  0.00  0.00    +0.000 NA
ATOM      6  C   UNL     1       5.664   4.189  16.029  0.00  0.00    +0.000 A 
ATOM      7  N   UNL     1       5.866   3.959  14.752  0.00  0.00    +0.000 NA
ATOM      8  C   UNL     1       6.948   4.724  14.457  0.00  0.00    +0.000 A 
ATOM      9  N   UNL     1       7.445   5.444  15.461  0.00  0.00    +0.000 NA
ATOM     10  N   UNL     1       6.627   5.103  16.495  0.00  0.00    +0.000 N 
ENDROOT
BRANCH   1  11
ATOM     11  S   UNL     1       7.874   6.554  18.473  0.00  0.00    +0.000 S 
BRANCH  11  13
ATOM     12  C   UNL     1       8.410   9.212  18.187  0.00  0.00    +0.000 C 
ATOM     13  C   UNL     1       7.552   8.108  17.586  0.00  0.00    +0.000 C 
ENDBRANCH  11  13
ENDBRANCH   1  11
TORSDOF 2
ENDMDL
MODEL 9
REMARK VINA RESULT:      -5.4      2.197      3.316
REMARK  Name = 
REMARK  4 active torsions:
REMARK  status: ('A' for Active; 'I' for Inactive)
REMARK    1  A    between atoms: C_1  and  C_2
REMARK    2  A    between atoms: C_2  and  S_3
REMARK    3  A    between atoms: S_3  and  C_4
REMARK    4  A    between atoms: C_6  and  C_7
REMARK                            x       y       z     vdW  Elec       q    Type
REMARK                         _______ _______ _______ _____ _____    ______ ____
ROOT
ATOM      1  C   UNL     1       3.904   4.216  17.416  0.00  0.00    +0.000 A 
ATOM      2  C   UNL     1       3.206   5.250  17.914  0.00  0.00    +0.000 A 
ATOM      3  C   UNL     1       3.653   6.616  17.504  0.00  0.00    +0.000 A 
ATOM      4  C   UNL     1       2.865   7.788  18.037  0.00  0.00    +0.000 C 
ATOM      5  N   UNL     1       4.654   6.868  16.718  0.00  0.00    +0.000 NA
ATOM      6  C   UNL     1       5.336   5.795  16.225  0.00  0.00    +0.000 A 
ATOM      7  N   UNL     1       6.359   5.780  15.401  0.00  0.00    +0.000 NA
ATOM      8  C   UNL     1       6.614   4.457  15.232  0.00  0.00    +0.000 A 
ATOM      9  N   UNL     1       5.828   3.621  15.909  0.00  0.00    +0.000 NA
ATOM     10  N   UNL     1       4.985   4.473  16.554  0.00  0.00    +0.000 N 
ENDROOT
BRANCH   1  11
ATOM     11  S   UNL     1       3.381   2.593  17.763  0.00  0.00    +0.000 S 
BRANCH  11  13
ATOM     12  C   UNL     1       0.877   2.418  18.829  0.00  0.00    +0.000 C 
ATOM     13  C   UNL     1       2.292   2.837  19.199  0.00  0.00    +0.000 C 
ENDBRANCH  11  13
ENDBRANCH   1  11
TORSDOF 2
ENDMDL
