MODEL 1
REMARK VINA RESULT:      -7.6      0.000      0.000
REMARK  Name = 
REMARK  7 active torsions:
REMARK  status: ('A' for Active; 'I' for Inactive)
REMARK    1  A    between atoms: C_1  and  C_2
REMARK    2  A    between atoms: C_5  and  C_6
REMARK    3  A    between atoms: N_11  and  C_12
REMARK    4  A    between atoms: C_15  and  C_16
REMARK    5  A    between atoms: C_16  and  C_17
REMARK    6  A    between atoms: C_16  and  C_18
REMARK    7  A    between atoms: C_16  and  C_19
REMARK                            x       y       z     vdW  Elec       q    Type
REMARK                         _______ _______ _______ _____ _____    ______ ____
ROOT
ATOM      1  C   UNL     1       2.595   6.657  18.834  0.00  0.00    +0.000 C 
ATOM      2  O   UNL     1       2.668   7.364  17.827  0.00  0.00    +0.000 OA
ATOM      3  N   UNL     1       2.179   7.155  20.062  0.00  0.00    +0.000 N 
ATOM      4  C   UNL     1       1.612   8.398  20.268  0.00  0.00    +0.000 C 
ATOM      5  N   UNL     1       1.316   9.151  19.262  0.00  0.00    +0.000 NA
ATOM      6  N   UNL     1       1.400   8.762  21.580  0.00  0.00    +0.000 N 
ATOM      7  H   UNL     1       2.204   6.559  20.871  0.00  0.00    +0.000 HD
ATOM      8  H   UNL     1       1.601   8.679  18.391  0.00  0.00    +0.000 HD
ATOM      9  H   UNL     1       2.214   8.677  22.176  0.00  0.00    +0.000 HD
ENDROOT
BRANCH   1  14
ATOM     10  C   UNL     1       3.959   1.031  18.274  0.00  0.00    +0.000 C 
ATOM     11  C   UNL     1       3.631   2.488  18.430  0.00  0.00    +0.000 A 
ATOM     12  C   UNL     1       2.594   3.062  17.693  0.00  0.00    +0.000 A 
ATOM     13  C   UNL     1       2.294   4.417  17.844  0.00  0.00    +0.000 A 
ATOM     14  C   UNL     1       3.021   5.230  18.728  0.00  0.00    +0.000 A 
ATOM     15  C   UNL     1       4.057   4.656  19.472  0.00  0.00    +0.000 A 
ATOM     16  C   UNL     1       4.358   3.292  19.319  0.00  0.00    +0.000 A 
ENDBRANCH   1  14
BRANCH   6  17
ATOM     17  C   UNL     1       0.572   9.855  21.939  0.00  0.00    +0.000 A 
ATOM     18  C   UNL     1      -0.432   9.691  22.893  0.00  0.00    +0.000 A 
ATOM     19  C   UNL     1      -1.293  10.735  23.236  0.00  0.00    +0.000 A 
ATOM     20  C   UNL     1      -1.196  11.998  22.635  0.00  0.00    +0.000 A 
ATOM     21  C   UNL     1      -0.174  12.166  21.680  0.00  0.00    +0.000 A 
ATOM     22  C   UNL     1       0.701  11.113  21.339  0.00  0.00    +0.000 A 
BRANCH  20  23
ATOM     23  C   UNL     1      -2.166  13.138  22.992  0.00  0.00    +0.000 C 
ATOM     24  C   UNL     1      -1.533  14.209  23.914  0.00  0.00    +0.000 C 
ATOM     25  C   UNL     1      -2.631  13.860  21.711  0.00  0.00    +0.000 C 
ATOM     26  C   UNL     1      -3.401  12.583  23.733  0.00  0.00    +0.000 C 
ENDBRANCH  20  23
ENDBRANCH   6  17
TORSDOF 3
ENDMDL
MODEL 2
REMARK VINA RESULT:      -7.6      7.191     10.880
REMARK  Name = 
REMARK  7 active torsions:
REMARK  status: ('A' for Active; 'I' for Inactive)
REMARK    1  A    between atoms: C_1  and  C_2
REMARK    2  A    between atoms: C_5  and  C_6
REMARK    3  A    between atoms: N_11  and  C_12
REMARK    4  A    between atoms: C_15  and  C_16
REMARK    5  A    between atoms: C_16  and  C_17
REMARK    6  A    between atoms: C_16  and  C_18
REMARK    7  A    between atoms: C_16  and  C_19
REMARK                            x       y       z     vdW  Elec       q    Type
REMARK                         _______ _______ _______ _____ _____    ______ ____
ROOT
ATOM      1  C   UNL     1       9.685  10.868  18.503  0.00  0.00    +0.000 C 
ATOM      2  O   UNL     1      10.233  10.415  19.510  0.00  0.00    +0.000 OA
ATOM      3  N   UNL     1       8.815  10.111  17.728  0.00  0.00    +0.000 N 
ATOM      4  C   UNL     1       8.302   8.877  18.079  0.00  0.00    +0.000 C 
ATOM      5  N   UNL     1       8.521   8.394  19.256  0.00  0.00    +0.000 NA
ATOM      6  N   UNL     1       7.570   8.223  17.111  0.00  0.00    +0.000 N 
ATOM      7  H   UNL     1       8.447  10.499  16.876  0.00  0.00    +0.000 HD
ATOM      8  H   UNL     1       9.121   9.046  19.783  0.00  0.00    +0.000 HD
ATOM      9  H   UNL     1       8.039   8.134  16.219  0.00  0.00    +0.000 HD
ENDROOT
BRANCH   1  14
ATOM     10  C   UNL     1      11.283  16.195  16.802  0.00  0.00    +0.000 C 
ATOM     11  C   UNL     1      10.846  14.828  17.247  0.00  0.00    +0.000 A 
ATOM     12  C   UNL     1      11.592  13.701  16.902  0.00  0.00    +0.000 A 
ATOM     13  C   UNL     1      11.179  12.434  17.320  0.00  0.00    +0.000 A 
ATOM     14  C   UNL     1      10.015  12.262  18.085  0.00  0.00    +0.000 A 
ATOM     15  C   UNL     1       9.269  13.392  18.437  0.00  0.00    +0.000 A 
ATOM     16  C   UNL     1       9.685  14.666  18.016  0.00  0.00    +0.000 A 
ENDBRANCH   1  14
BRANCH   6  17
ATOM     17  C   UNL     1       6.746   7.109  17.409  0.00  0.00    +0.000 A 
ATOM     18  C   UNL     1       5.380   7.153  17.131  0.00  0.00    +0.000 A 
ATOM     19  C   UNL     1       4.534   6.090  17.451  0.00  0.00    +0.000 A 
ATOM     20  C   UNL     1       5.012   4.929  18.075  0.00  0.00    +0.000 A 
ATOM     21  C   UNL     1       6.394   4.882  18.346  0.00  0.00    +0.000 A 
ATOM     22  C   UNL     1       7.250   5.952  18.014  0.00  0.00    +0.000 A 
BRANCH  20  23
ATOM     23  C   UNL     1       4.071   3.772  18.457  0.00  0.00    +0.000 C 
ATOM     24  C   UNL     1       4.601   2.923  19.639  0.00  0.00    +0.000 C 
ATOM     25  C   UNL     1       2.694   4.325  18.876  0.00  0.00    +0.000 C 
ATOM     26  C   UNL     1       3.885   2.812  17.263  0.00  0.00    +0.000 C 
ENDBRANCH  20  23
ENDBRANCH   6  17
TORSDOF 3
ENDMDL
MODEL 3
REMARK VINA RESULT:      -7.6      7.237     10.889
REMARK  Name = 
REMARK  7 active torsions:
REMARK  status: ('A' for Active; 'I' for Inactive)
REMARK    1  A    between atoms: C_1  and  C_2
REMARK    2  A    between atoms: C_5  and  C_6
REMARK    3  A    between atoms: N_11  and  C_12
REMARK    4  A    between atoms: C_15  and  C_16
REMARK    5  A    between atoms: C_16  and  C_17
REMARK    6  A    between atoms: C_16  and  C_18
REMARK    7  A    between atoms: C_16  and  C_19
REMARK                            x       y       z     vdW  Elec       q    Type
REMARK                         _______ _______ _______ _____ _____    ______ ____
ROOT
ATOM      1  C   UNL     1       9.805  10.944  18.575  0.00  0.00    +0.000 C 
ATOM      2  O   UNL     1      10.265  10.547  19.647  0.00  0.00    +0.000 OA
ATOM      3  N   UNL     1       8.988  10.151  17.779  0.00  0.00    +0.000 N 
ATOM      4  C   UNL     1       8.428   8.947  18.162  0.00  0.00    +0.000 C 
ATOM      5  N   UNL     1       8.545   8.535  19.380  0.00  0.00    +0.000 NA
ATOM      6  N   UNL     1       7.764   8.243  17.180  0.00  0.00    +0.000 N 
ATOM      7  H   UNL     1       8.695  10.490  16.879  0.00  0.00    +0.000 HD
ATOM      8  H   UNL     1       9.112   9.211  19.913  0.00  0.00    +0.000 HD
ATOM      9  H   UNL     1       8.302   8.094  16.335  0.00  0.00    +0.000 HD
ENDROOT
BRANCH   1  14
ATOM     10  C   UNL     1      10.997  16.354  16.803  0.00  0.00    +0.000 C 
ATOM     11  C   UNL     1      10.714  14.950  17.255  0.00  0.00    +0.000 A 
ATOM     12  C   UNL     1       9.613  14.676  18.067  0.00  0.00    +0.000 A 
ATOM     13  C   UNL     1       9.356  13.368  18.482  0.00  0.00    +0.000 A 
ATOM     14  C   UNL     1      10.191  12.306  18.101  0.00  0.00    +0.000 A 
ATOM     15  C   UNL     1      11.292  12.576  17.281  0.00  0.00    +0.000 A 
ATOM     16  C   UNL     1      11.550  13.893  16.865  0.00  0.00    +0.000 A 
ENDBRANCH   1  14
BRANCH   6  17
ATOM     17  C   UNL     1       6.901   7.159  17.477  0.00  0.00    +0.000 A 
ATOM     18  C   UNL     1       5.545   7.236  17.161  0.00  0.00    +0.000 A 
ATOM     19  C   UNL     1       4.660   6.204  17.480  0.00  0.00    +0.000 A 
ATOM     20  C   UNL     1       5.088   5.044  18.139  0.00  0.00    +0.000 A 
ATOM     21  C   UNL     1       6.460   4.963  18.448  0.00  0.00    +0.000 A 
ATOM     22  C   UNL     1       7.356   6.002  18.118  0.00  0.00    +0.000 A 
BRANCH  20  23
ATOM     23  C   UNL     1       4.105   3.922  18.518  0.00  0.00    +0.000 C 
ATOM     24  C   UNL     1       4.659   2.970  19.607  0.00  0.00    +0.000 C 
ATOM     25  C   UNL     1       2.797   4.526  19.068  0.00  0.00    +0.000 C 
ATOM     26  C   UNL     1       3.778   3.052  17.286  0.00  0.00    +0.000 C 
ENDBRANCH  20  23
ENDBRANCH   6  17
TORSDOF 3
ENDMDL
MODEL 4
REMARK VINA RESULT:      -7.5      0.442      1.090
REMARK  Name = 
REMARK  7 active torsions:
REMARK  status: ('A' for Active; 'I' for Inactive)
REMARK    1  A    between atoms: C_1  and  C_2
REMARK    2  A    between atoms: C_5  and  C_6
REMARK    3  A    between atoms: N_11  and  C_12
REMARK    4  A    between atoms: C_15  and  C_16
REMARK    5  A    between atoms: C_16  and  C_17
REMARK    6  A    between atoms: C_16  and  C_18
REMARK    7  A    between atoms: C_16  and  C_19
REMARK                            x       y       z     vdW  Elec       q    Type
REMARK                         _______ _______ _______ _____ _____    ______ ____
ROOT
ATOM      1  C   UNL     1       2.435   7.020  18.838  0.00  0.00    +0.000 C 
ATOM      2  O   UNL     1       2.546   7.751  17.852  0.00  0.00    +0.000 OA
ATOM      3  N   UNL     1       1.977   7.490  20.062  0.00  0.00    +0.000 N 
ATOM      4  C   UNL     1       1.407   8.730  20.278  0.00  0.00    +0.000 C 
ATOM      5  N   UNL     1       1.149   9.508  19.280  0.00  0.00    +0.000 NA
ATOM      6  N   UNL     1       1.149   9.063  21.590  0.00  0.00    +0.000 N 
ATOM      7  H   UNL     1       1.972   6.874  20.858  0.00  0.00    +0.000 HD
ATOM      8  H   UNL     1       1.464   9.056  18.409  0.00  0.00    +0.000 HD
ATOM      9  H   UNL     1       1.941   8.961  22.213  0.00  0.00    +0.000 HD
ENDROOT
BRANCH   1  14
ATOM     10  C   UNL     1       3.776   1.389  18.266  0.00  0.00    +0.000 C 
ATOM     11  C   UNL     1       3.455   2.848  18.420  0.00  0.00    +0.000 A 
ATOM     12  C   UNL     1       2.286   3.377  17.872  0.00  0.00    +0.000 A 
ATOM     13  C   UNL     1       1.994   4.734  18.020  0.00  0.00    +0.000 A 
ATOM     14  C   UNL     1       2.861   5.594  18.713  0.00  0.00    +0.000 A 
ATOM     15  C   UNL     1       4.030   5.066  19.269  0.00  0.00    +0.000 A 
ATOM     16  C   UNL     1       4.323   3.700  19.118  0.00  0.00    +0.000 A 
ENDBRANCH   1  14
BRANCH   6  17
ATOM     17  C   UNL     1       0.312  10.151  21.945  0.00  0.00    +0.000 A 
ATOM     18  C   UNL     1       0.510  11.404  21.367  0.00  0.00    +0.000 A 
ATOM     19  C   UNL     1      -0.268  12.507  21.727  0.00  0.00    +0.000 A 
ATOM     20  C   UNL     1      -1.280  12.411  22.691  0.00  0.00    +0.000 A 
ATOM     21  C   UNL     1      -1.486  11.142  23.267  0.00  0.00    +0.000 A 
ATOM     22  C   UNL     1      -0.705  10.026  22.897  0.00  0.00    +0.000 A 
BRANCH  20  23
ATOM     23  C   UNL     1      -2.114  13.635  23.109  0.00  0.00    +0.000 C 
ATOM     24  C   UNL     1      -1.355  14.592  24.061  0.00  0.00    +0.000 C 
ATOM     25  C   UNL     1      -2.513  14.455  21.866  0.00  0.00    +0.000 C 
ATOM     26  C   UNL     1      -3.393  13.189  23.849  0.00  0.00    +0.000 C 
ENDBRANCH  20  23
ENDBRANCH   6  17
TORSDOF 3
ENDMDL
MODEL 5
REMARK VINA RESULT:      -7.4      0.542      1.046
REMARK  Name = 
REMARK  7 active torsions:
REMARK  status: ('A' for Active; 'I' for Inactive)
REMARK    1  A    between atoms: C_1  and  C_2
REMARK    2  A    between atoms: C_5  and  C_6
REMARK    3  A    between atoms: N_11  and  C_12
REMARK    4  A    between atoms: C_15  and  C_16
REMARK    5  A    between atoms: C_16  and  C_17
REMARK    6  A    between atoms: C_16  and  C_18
REMARK    7  A    between atoms: C_16  and  C_19
REMARK                            x       y       z     vdW  Elec       q    Type
REMARK                         _______ _______ _______ _____ _____    ______ ____
ROOT
ATOM      1  C   UNL     1       2.289   7.148  18.758  0.00  0.00    +0.000 C 
ATOM      2  O   UNL     1       2.299   7.860  17.752  0.00  0.00    +0.000 OA
ATOM      3  N   UNL     1       1.926   7.635  20.007  0.00  0.00    +0.000 N 
ATOM      4  C   UNL     1       1.346   8.866  20.246  0.00  0.00    +0.000 C 
ATOM      5  N   UNL     1       0.986   9.616  19.259  0.00  0.00    +0.000 NA
ATOM      6  N   UNL     1       1.192   9.222  21.569  0.00  0.00    +0.000 N 
ATOM      7  H   UNL     1       2.002   7.036  20.812  0.00  0.00    +0.000 HD
ATOM      8  H   UNL     1       1.236   9.153  18.373  0.00  0.00    +0.000 HD
ATOM      9  H   UNL     1       2.036   9.150  22.123  0.00  0.00    +0.000 HD
ENDROOT
BRANCH   1  14
ATOM     10  C   UNL     1       3.721   1.546  18.134  0.00  0.00    +0.000 C 
ATOM     11  C   UNL     1       3.376   2.998  18.303  0.00  0.00    +0.000 A 
ATOM     12  C   UNL     1       2.239   3.530  17.695  0.00  0.00    +0.000 A 
ATOM     13  C   UNL     1       1.924   4.880  17.858  0.00  0.00    +0.000 A 
ATOM     14  C   UNL     1       2.736   5.730  18.625  0.00  0.00    +0.000 A 
ATOM     15  C   UNL     1       3.874   5.198  19.241  0.00  0.00    +0.000 A 
ATOM     16  C   UNL     1       4.189   3.839  19.076  0.00  0.00    +0.000 A 
ENDBRANCH   1  14
BRANCH   6  17
ATOM     17  C   UNL     1       0.363  10.298  21.973  0.00  0.00    +0.000 A 
ATOM     18  C   UNL     1      -0.675  10.081  22.878  0.00  0.00    +0.000 A 
ATOM     19  C   UNL     1      -1.538  11.110  23.262  0.00  0.00    +0.000 A 
ATOM     20  C   UNL     1      -1.408  12.409  22.753  0.00  0.00    +0.000 A 
ATOM     21  C   UNL     1      -0.352  12.629  21.846  0.00  0.00    +0.000 A 
ATOM     22  C   UNL     1       0.524  11.591  21.465  0.00  0.00    +0.000 A 
BRANCH  20  23
ATOM     23  C   UNL     1      -2.380  13.533  23.153  0.00  0.00    +0.000 C 
ATOM     24  C   UNL     1      -3.617  13.020  23.931  0.00  0.00    +0.000 C 
ATOM     25  C   UNL     1      -1.664  14.554  24.062  0.00  0.00    +0.000 C 
ATOM     26  C   UNL     1      -2.909  14.261  21.899  0.00  0.00    +0.000 C 
ENDBRANCH  20  23
ENDBRANCH   6  17
TORSDOF 3
ENDMDL
MODEL 6
REMARK VINA RESULT:      -7.4      2.223      2.704
REMARK  Name = 
REMARK  7 active torsions:
REMARK  status: ('A' for Active; 'I' for Inactive)
REMARK    1  A    between atoms: C_1  and  C_2
REMARK    2  A    between atoms: C_5  and  C_6
REMARK    3  A    between atoms: N_11  and  C_12
REMARK    4  A    between atoms: C_15  and  C_16
REMARK    5  A    between atoms: C_16  and  C_17
REMARK    6  A    between atoms: C_16  and  C_18
REMARK    7  A    between atoms: C_16  and  C_19
REMARK                            x       y       z     vdW  Elec       q    Type
REMARK                         _______ _______ _______ _____ _____    ______ ____
ROOT
ATOM      1  C   UNL     1       3.075   6.420  18.685  0.00  0.00    +0.000 C 
ATOM      2  O   UNL     1       2.966   5.866  19.780  0.00  0.00    +0.000 OA
ATOM      3  N   UNL     1       2.433   7.617  18.392  0.00  0.00    +0.000 N 
ATOM      4  C   UNL     1       1.790   8.423  19.312  0.00  0.00    +0.000 C 
ATOM      5  N   UNL     1       1.858   8.152  20.572  0.00  0.00    +0.000 NA
ATOM      6  N   UNL     1       1.092   9.496  18.800  0.00  0.00    +0.000 N 
ATOM      7  H   UNL     1       2.493   7.996  17.462  0.00  0.00    +0.000 HD
ATOM      8  H   UNL     1       2.402   7.286  20.703  0.00  0.00    +0.000 HD
ATOM      9  H   UNL     1       0.436   9.259  18.067  0.00  0.00    +0.000 HD
ENDROOT
BRANCH   1  14
ATOM     10  C   UNL     1       6.241   4.084  14.402  0.00  0.00    +0.000 C 
ATOM     11  C   UNL     1       5.423   4.664  15.520  0.00  0.00    +0.000 A 
ATOM     12  C   UNL     1       5.343   6.046  15.694  0.00  0.00    +0.000 A 
ATOM     13  C   UNL     1       4.580   6.577  16.736  0.00  0.00    +0.000 A 
ATOM     14  C   UNL     1       3.885   5.745  17.628  0.00  0.00    +0.000 A 
ATOM     15  C   UNL     1       3.958   4.360  17.451  0.00  0.00    +0.000 A 
ATOM     16  C   UNL     1       4.727   3.826  16.403  0.00  0.00    +0.000 A 
ENDBRANCH   1  14
BRANCH   6  17
ATOM     17  C   UNL     1       0.637  10.562  19.616  0.00  0.00    +0.000 A 
ATOM     18  C   UNL     1      -0.629  10.507  20.198  0.00  0.00    +0.000 A 
ATOM     19  C   UNL     1      -1.126  11.559  20.971  0.00  0.00    +0.000 A 
ATOM     20  C   UNL     1      -0.380  12.724  21.194  0.00  0.00    +0.000 A 
ATOM     21  C   UNL     1       0.903  12.774  20.615  0.00  0.00    +0.000 A 
ATOM     22  C   UNL     1       1.407  11.708  19.842  0.00  0.00    +0.000 A 
BRANCH  20  23
ATOM     23  C   UNL     1      -0.942  13.896  22.020  0.00  0.00    +0.000 C 
ATOM     24  C   UNL     1      -1.487  13.459  23.402  0.00  0.00    +0.000 C 
ATOM     25  C   UNL     1       0.162  14.941  22.278  0.00  0.00    +0.000 C 
ATOM     26  C   UNL     1      -2.110  14.572  21.271  0.00  0.00    +0.000 C 
ENDBRANCH  20  23
ENDBRANCH   6  17
TORSDOF 3
ENDMDL
MODEL 7
REMARK VINA RESULT:      -7.4      0.150      1.015
REMARK  Name = 
REMARK  7 active torsions:
REMARK  status: ('A' for Active; 'I' for Inactive)
REMARK    1  A    between atoms: C_1  and  C_2
REMARK    2  A    between atoms: C_5  and  C_6
REMARK    3  A    between atoms: N_11  and  C_12
REMARK    4  A    between atoms: C_15  and  C_16
REMARK    5  A    between atoms: C_16  and  C_17
REMARK    6  A    between atoms: C_16  and  C_18
REMARK    7  A    between atoms: C_16  and  C_19
REMARK                            x       y       z     vdW  Elec       q    Type
REMARK                         _______ _______ _______ _____ _____    ______ ____
ROOT
ATOM      1  C   UNL     1       2.551   6.599  18.818  0.00  0.00    +0.000 C 
ATOM      2  O   UNL     1       2.779   7.349  17.866  0.00  0.00    +0.000 OA
ATOM      3  N   UNL     1       2.067   7.070  20.032  0.00  0.00    +0.000 N 
ATOM      4  C   UNL     1       1.594   8.348  20.262  0.00  0.00    +0.000 C 
ATOM      5  N   UNL     1       1.460   9.176  19.281  0.00  0.00    +0.000 NA
ATOM      6  N   UNL     1       1.292   8.661  21.570  0.00  0.00    +0.000 N 
ATOM      7  H   UNL     1       1.964   6.432  20.804  0.00  0.00    +0.000 HD
ATOM      8  H   UNL     1       1.783   8.726  18.412  0.00  0.00    +0.000 HD
ATOM      9  H   UNL     1       2.036   8.470  22.229  0.00  0.00    +0.000 HD
ENDROOT
BRANCH   1  14
ATOM     10  C   UNL     1       4.051   1.000  18.352  0.00  0.00    +0.000 C 
ATOM     11  C   UNL     1       3.640   2.440  18.462  0.00  0.00    +0.000 A 
ATOM     12  C   UNL     1       4.343   3.315  19.291  0.00  0.00    +0.000 A 
ATOM     13  C   UNL     1       3.955   4.652  19.387  0.00  0.00    +0.000 A 
ATOM     14  C   UNL     1       2.858   5.147  18.664  0.00  0.00    +0.000 A 
ATOM     15  C   UNL     1       2.155   4.274  17.828  0.00  0.00    +0.000 A 
ATOM     16  C   UNL     1       2.546   2.928  17.732  0.00  0.00    +0.000 A 
ENDBRANCH   1  14
BRANCH   6  17
ATOM     17  C   UNL     1       0.533   9.806  21.919  0.00  0.00    +0.000 A 
ATOM     18  C   UNL     1      -0.471   9.714  22.881  0.00  0.00    +0.000 A 
ATOM     19  C   UNL     1      -1.266  10.812  23.216  0.00  0.00    +0.000 A 
ATOM     20  C   UNL     1      -1.099  12.059  22.598  0.00  0.00    +0.000 A 
ATOM     21  C   UNL     1      -0.076  12.153  21.634  0.00  0.00    +0.000 A 
ATOM     22  C   UNL     1       0.733  11.046  21.302  0.00  0.00    +0.000 A 
BRANCH  20  23
ATOM     23  C   UNL     1      -1.997  13.259  22.946  0.00  0.00    +0.000 C 
ATOM     24  C   UNL     1      -1.305  14.288  23.874  0.00  0.00    +0.000 C 
ATOM     25  C   UNL     1      -2.401  14.010  21.660  0.00  0.00    +0.000 C 
ATOM     26  C   UNL     1      -3.273  12.786  23.674  0.00  0.00    +0.000 C 
ENDBRANCH  20  23
ENDBRANCH   6  17
TORSDOF 3
ENDMDL
MODEL 8
REMARK VINA RESULT:      -7.4      1.956      9.666
REMARK  Name = 
REMARK  7 active torsions:
REMARK  status: ('A' for Active; 'I' for Inactive)
REMARK    1  A    between atoms: C_1  and  C_2
REMARK    2  A    between atoms: C_5  and  C_6
REMARK    3  A    between atoms: N_11  and  C_12
REMARK    4  A    between atoms: C_15  and  C_16
REMARK    5  A    between atoms: C_16  and  C_17
REMARK    6  A    between atoms: C_16  and  C_18
REMARK    7  A    between atoms: C_16  and  C_19
REMARK                            x       y       z     vdW  Elec       q    Type
REMARK                         _______ _______ _______ _____ _____    ______ ____
ROOT
ATOM      1  C   UNL     1      -0.468  10.738  22.183  0.00  0.00    +0.000 C 
ATOM      2  O   UNL     1       0.069  10.471  23.260  0.00  0.00    +0.000 OA
ATOM      3  N   UNL     1      -0.005  10.226  20.977  0.00  0.00    +0.000 N 
ATOM      4  C   UNL     1       0.940   9.227  20.846  0.00  0.00    +0.000 C 
ATOM      5  N   UNL     1       1.376   8.603  21.889  0.00  0.00    +0.000 NA
ATOM      6  N   UNL     1       1.370   8.958  19.563  0.00  0.00    +0.000 N 
ATOM      7  H   UNL     1      -0.428  10.528  20.116  0.00  0.00    +0.000 HD
ATOM      8  H   UNL     1       0.936   9.004  22.730  0.00  0.00    +0.000 HD
ATOM      9  H   UNL     1       1.688   9.771  19.049  0.00  0.00    +0.000 HD
ENDROOT
BRANCH   1  14
ATOM     10  C   UNL     1      -5.073  14.279  22.457  0.00  0.00    +0.000 C 
ATOM     11  C   UNL     1      -3.876  13.377  22.364  0.00  0.00    +0.000 A 
ATOM     12  C   UNL     1      -3.474  12.620  23.465  0.00  0.00    +0.000 A 
ATOM     13  C   UNL     1      -2.360  11.784  23.371  0.00  0.00    +0.000 A 
ATOM     14  C   UNL     1      -1.621  11.686  22.182  0.00  0.00    +0.000 A 
ATOM     15  C   UNL     1      -2.025  12.439  21.074  0.00  0.00    +0.000 A 
ATOM     16  C   UNL     1      -3.146  13.281  21.171  0.00  0.00    +0.000 A 
ENDBRANCH   1  14
BRANCH   6  17
ATOM     17  C   UNL     1       2.099   7.787  19.238  0.00  0.00    +0.000 A 
ATOM     18  C   UNL     1       2.875   7.744  18.080  0.00  0.00    +0.000 A 
ATOM     19  C   UNL     1       3.570   6.591  17.708  0.00  0.00    +0.000 A 
ATOM     20  C   UNL     1       3.517   5.419  18.475  0.00  0.00    +0.000 A 
ATOM     21  C   UNL     1       2.742   5.468  19.650  0.00  0.00    +0.000 A 
ATOM     22  C   UNL     1       2.047   6.635  20.030  0.00  0.00    +0.000 A 
BRANCH  20  23
ATOM     23  C   UNL     1       4.258   4.140  18.045  0.00  0.00    +0.000 C 
ATOM     24  C   UNL     1       5.521   4.425  17.196  0.00  0.00    +0.000 C 
ATOM     25  C   UNL     1       4.717   3.351  19.288  0.00  0.00    +0.000 C 
ATOM     26  C   UNL     1       3.337   3.244  17.192  0.00  0.00    +0.000 C 
ENDBRANCH  20  23
ENDBRANCH   6  17
TORSDOF 3
ENDMDL
MODEL 9
REMARK VINA RESULT:      -7.3      2.512      3.253
REMARK  Name = 
REMARK  7 active torsions:
REMARK  status: ('A' for Active; 'I' for Inactive)
REMARK    1  A    between atoms: C_1  and  C_2
REMARK    2  A    between atoms: C_5  and  C_6
REMARK    3  A    between atoms: N_11  and  C_12
REMARK    4  A    between atoms: C_15  and  C_16
REMARK    5  A    between atoms: C_16  and  C_17
REMARK    6  A    between atoms: C_16  and  C_18
REMARK    7  A    between atoms: C_16  and  C_19
REMARK                            x       y       z     vdW  Elec       q    Type
REMARK                         _______ _______ _______ _____ _____    ______ ____
ROOT
ATOM      1  C   UNL     1       2.791   6.832  18.453  0.00  0.00    +0.000 C 
ATOM      2  O   UNL     1       2.531   6.395  19.576  0.00  0.00    +0.000 OA
ATOM      3  N   UNL     1       2.261   8.025  17.979  0.00  0.00    +0.000 N 
ATOM      4  C   UNL     1       1.573   8.950  18.742  0.00  0.00    +0.000 C 
ATOM      5  N   UNL     1       1.488   8.802  20.021  0.00  0.00    +0.000 NA
ATOM      6  N   UNL     1       1.002  10.002  18.056  0.00  0.00    +0.000 N 
ATOM      7  H   UNL     1       2.443   8.306  17.031  0.00  0.00    +0.000 HD
ATOM      8  H   UNL     1       1.960   7.927  20.293  0.00  0.00    +0.000 HD
ATOM      9  H   UNL     1       0.416   9.726  17.279  0.00  0.00    +0.000 HD
ENDROOT
BRANCH   1  14
ATOM     10  C   UNL     1       6.260   3.925  14.800  0.00  0.00    +0.000 C 
ATOM     11  C   UNL     1       5.360   4.653  15.757  0.00  0.00    +0.000 A 
ATOM     12  C   UNL     1       5.376   6.047  15.821  0.00  0.00    +0.000 A 
ATOM     13  C   UNL     1       4.537   6.717  16.713  0.00  0.00    +0.000 A 
ATOM     14  C   UNL     1       3.667   6.014  17.562  0.00  0.00    +0.000 A 
ATOM     15  C   UNL     1       3.644   4.617  17.495  0.00  0.00    +0.000 A 
ATOM     16  C   UNL     1       4.490   3.945  16.598  0.00  0.00    +0.000 A 
ENDBRANCH   1  14
BRANCH   6  17
ATOM     17  C   UNL     1       0.528  11.165  18.713  0.00  0.00    +0.000 A 
ATOM     18  C   UNL     1      -0.803  11.246  19.121  0.00  0.00    +0.000 A 
ATOM     19  C   UNL     1      -1.313  12.394  19.730  0.00  0.00    +0.000 A 
ATOM     20  C   UNL     1      -0.515  13.524  19.956  0.00  0.00    +0.000 A 
ATOM     21  C   UNL     1       0.832  13.437  19.554  0.00  0.00    +0.000 A 
ATOM     22  C   UNL     1       1.349  12.274  18.945  0.00  0.00    +0.000 A 
BRANCH  20  23
ATOM     23  C   UNL     1      -1.088  14.800  20.599  0.00  0.00    +0.000 C 
ATOM     24  C   UNL     1      -2.605  14.705  20.894  0.00  0.00    +0.000 C 
ATOM     25  C   UNL     1      -0.382  15.081  21.941  0.00  0.00    +0.000 C 
ATOM     26  C   UNL     1      -0.888  16.012  19.663  0.00  0.00    +0.000 C 
ENDBRANCH  20  23
ENDBRANCH   6  17
TORSDOF 3
ENDMDL
