MODEL 1
REMARK VINA RESULT:      -7.5      0.000      0.000
REMARK  Name = 
REMARK  4 active torsions:
REMARK  status: ('A' for Active; 'I' for Inactive)
REMARK    1  A    between atoms: C_1  and  C_2
REMARK    2  A    between atoms: C_2  and  N_3
REMARK    3  A    between atoms: N_5  and  S_6
REMARK    4  A    between atoms: S_6  and  C_9
REMARK                            x       y       z     vdW  Elec       q    Type
REMARK                         _______ _______ _______ _____ _____    ______ ____
ROOT
ATOM      1  S   UNL     1       5.145   5.516  16.111  0.00  0.00    +0.000 S 
ATOM      2  O   UNL     1       5.138   6.717  15.311  0.00  0.00    +0.000 OA
ATOM      3  O   UNL     1       4.670   4.258  15.568  0.00  0.00    +0.000 OA
ENDROOT
BRANCH   1   4
ATOM      4  C   UNL     1       4.069   5.814  17.442  0.00  0.00    +0.000 A 
ATOM      5  C   UNL     1       3.657   7.079  17.825  0.00  0.00    +0.000 A 
ATOM      6  N   UNL     1       2.817   6.953  18.893  0.00  0.00    +0.000 N 
ATOM      7  C   UNL     1       2.655   5.623  19.208  0.00  0.00    +0.000 A 
ATOM      8  C   UNL     1       1.873   5.045  20.219  0.00  0.00    +0.000 A 
ATOM      9  C   UNL     1       1.886   3.655  20.342  0.00  0.00    +0.000 A 
ATOM     10  C   UNL     1       2.654   2.877  19.484  0.00  0.00    +0.000 A 
ATOM     11  C   UNL     1       3.418   3.473  18.477  0.00  0.00    +0.000 A 
ATOM     12  F   UNL     1       4.118   2.672  17.662  0.00  0.00    +0.000 F 
ATOM     13  C   UNL     1       3.438   4.874  18.316  0.00  0.00    +0.000 A 
ATOM     14  H   UNL     1       2.375   7.719  19.383  0.00  0.00    +0.000 HD
ENDBRANCH   1   4
BRANCH   1  17
ATOM     15  N   UNL     1       7.680   6.698  18.162  0.00  0.00    +0.000 N 
ATOM     16  C   UNL     1       7.570   6.414  16.770  0.00  0.00    +0.000 C 
ATOM     17  N   UNL     1       6.706   5.242  16.691  0.00  0.00    +0.000 NA
ATOM     18  C   UNL     1       6.807   4.527  17.997  0.00  0.00    +0.000 C 
ATOM     19  C   UNL     1       7.335   5.605  18.929  0.00  0.00    +0.000 C 
ATOM     20  O   UNL     1       7.445   5.507  20.141  0.00  0.00    +0.000 OA
BRANCH  15  22
ATOM     21  C   UNL     1       8.052   9.111  17.763  0.00  0.00    +0.000 C 
ATOM     22  C   UNL     1       8.292   7.912  18.663  0.00  0.00    +0.000 C 
ENDBRANCH  15  22
ENDBRANCH   1  17
TORSDOF 3
ENDMDL
MODEL 2
REMARK VINA RESULT:      -7.5      2.268      3.494
REMARK  Name = 
REMARK  4 active torsions:
REMARK  status: ('A' for Active; 'I' for Inactive)
REMARK    1  A    between atoms: C_1  and  C_2
REMARK    2  A    between atoms: C_2  and  N_3
REMARK    3  A    between atoms: N_5  and  S_6
REMARK    4  A    between atoms: S_6  and  C_9
REMARK                            x       y       z     vdW  Elec       q    Type
REMARK                         _______ _______ _______ _____ _____    ______ ____
ROOT
ATOM      1  S   UNL     1       5.748   5.339  18.374  0.00  0.00    +0.000 S 
ATOM      2  O   UNL     1       6.155   4.986  19.712  0.00  0.00    +0.000 OA
ATOM      3  O   UNL     1       5.959   6.678  17.861  0.00  0.00    +0.000 OA
ENDROOT
BRANCH   1   4
ATOM      4  C   UNL     1       4.020   5.157  18.329  0.00  0.00    +0.000 A 
ATOM      5  C   UNL     1       3.156   6.160  17.927  0.00  0.00    +0.000 A 
ATOM      6  N   UNL     1       1.879   5.685  18.005  0.00  0.00    +0.000 N 
ATOM      7  C   UNL     1       1.890   4.377  18.436  0.00  0.00    +0.000 A 
ATOM      8  C   UNL     1       0.810   3.507  18.642  0.00  0.00    +0.000 A 
ATOM      9  C   UNL     1       1.087   2.217  19.098  0.00  0.00    +0.000 A 
ATOM     10  C   UNL     1       2.397   1.818  19.338  0.00  0.00    +0.000 A 
ATOM     11  C   UNL     1       3.460   2.699  19.116  0.00  0.00    +0.000 A 
ATOM     12  F   UNL     1       4.702   2.252  19.339  0.00  0.00    +0.000 F 
ATOM     13  C   UNL     1       3.228   4.012  18.658  0.00  0.00    +0.000 A 
ATOM     14  H   UNL     1       1.044   6.209  17.781  0.00  0.00    +0.000 HD
ENDBRANCH   1   4
BRANCH   1  17
ATOM     15  N   UNL     1       6.002   4.418  15.039  0.00  0.00    +0.000 N 
ATOM     16  C   UNL     1       5.586   3.757  16.231  0.00  0.00    +0.000 C 
ATOM     17  N   UNL     1       6.462   4.274  17.275  0.00  0.00    +0.000 NA
ATOM     18  C   UNL     1       7.711   4.751  16.613  0.00  0.00    +0.000 C 
ATOM     19  C   UNL     1       7.272   4.941  15.170  0.00  0.00    +0.000 C 
ATOM     20  O   UNL     1       7.939   5.454  14.285  0.00  0.00    +0.000 OA
BRANCH  15  22
ATOM     21  C   UNL     1       5.915   3.442  12.769  0.00  0.00    +0.000 C 
ATOM     22  C   UNL     1       5.254   4.337  13.802  0.00  0.00    +0.000 C 
ENDBRANCH  15  22
ENDBRANCH   1  17
TORSDOF 3
ENDMDL
MODEL 3
REMARK VINA RESULT:      -7.4      2.807      4.133
REMARK  Name = 
REMARK  4 active torsions:
REMARK  status: ('A' for Active; 'I' for Inactive)
REMARK    1  A    between atoms: C_1  and  C_2
REMARK    2  A    between atoms: C_2  and  N_3
REMARK    3  A    between atoms: N_5  and  S_6
REMARK    4  A    between atoms: S_6  and  C_9
REMARK                            x       y       z     vdW  Elec       q    Type
REMARK                         _______ _______ _______ _____ _____    ______ ____
ROOT
ATOM      1  S   UNL     1       5.247   4.859  17.416  0.00  0.00    +0.000 S 
ATOM      2  O   UNL     1       5.950   5.373  18.565  0.00  0.00    +0.000 OA
ATOM      3  O   UNL     1       4.475   5.739  16.560  0.00  0.00    +0.000 OA
ENDROOT
BRANCH   1   4
ATOM      4  C   UNL     1       4.059   3.749  18.030  0.00  0.00    +0.000 A 
ATOM      5  C   UNL     1       3.963   2.429  17.625  0.00  0.00    +0.000 A 
ATOM      6  N   UNL     1       2.935   1.844  18.304  0.00  0.00    +0.000 N 
ATOM      7  C   UNL     1       2.362   2.754  19.164  0.00  0.00    +0.000 A 
ATOM      8  C   UNL     1       1.294   2.574  20.055  0.00  0.00    +0.000 A 
ATOM      9  C   UNL     1       0.889   3.669  20.819  0.00  0.00    +0.000 A 
ATOM     10  C   UNL     1       1.532   4.896  20.694  0.00  0.00    +0.000 A 
ATOM     11  C   UNL     1       2.601   5.050  19.806  0.00  0.00    +0.000 A 
ATOM     12  F   UNL     1       3.199   6.247  19.746  0.00  0.00    +0.000 F 
ATOM     13  C   UNL     1       3.043   3.972  19.012  0.00  0.00    +0.000 A 
ATOM     14  H   UNL     1       2.633   0.885  18.198  0.00  0.00    +0.000 HD
ENDBRANCH   1   4
BRANCH   1  17
ATOM     15  N   UNL     1       6.154   4.153  14.143  0.00  0.00    +0.000 N 
ATOM     16  C   UNL     1       5.753   3.367  15.262  0.00  0.00    +0.000 C 
ATOM     17  N   UNL     1       6.334   4.035  16.420  0.00  0.00    +0.000 NA
ATOM     18  C   UNL     1       7.509   4.819  15.939  0.00  0.00    +0.000 C 
ATOM     19  C   UNL     1       7.234   4.955  14.450  0.00  0.00    +0.000 C 
ATOM     20  O   UNL     1       7.869   5.645  13.669  0.00  0.00    +0.000 OA
BRANCH  15  22
ATOM     21  C   UNL     1       6.385   2.900  12.023  0.00  0.00    +0.000 C 
ATOM     22  C   UNL     1       5.619   3.945  12.813  0.00  0.00    +0.000 C 
ENDBRANCH  15  22
ENDBRANCH   1  17
TORSDOF 3
ENDMDL
MODEL 4
REMARK VINA RESULT:      -7.3      2.456      3.367
REMARK  Name = 
REMARK  4 active torsions:
REMARK  status: ('A' for Active; 'I' for Inactive)
REMARK    1  A    between atoms: C_1  and  C_2
REMARK    2  A    between atoms: C_2  and  N_3
REMARK    3  A    between atoms: N_5  and  S_6
REMARK    4  A    between atoms: S_6  and  C_9
REMARK                            x       y       z     vdW  Elec       q    Type
REMARK                         _______ _______ _______ _____ _____    ______ ____
ROOT
ATOM      1  S   UNL     1       3.551   4.391  17.959  0.00  0.00    +0.000 S 
ATOM      2  O   UNL     1       2.475   4.014  17.075  0.00  0.00    +0.000 OA
ATOM      3  O   UNL     1       4.290   3.389  18.702  0.00  0.00    +0.000 OA
ENDROOT
BRANCH   1   4
ATOM      4  C   UNL     1       2.835   5.369  19.205  0.00  0.00    +0.000 A 
ATOM      5  C   UNL     1       2.648   4.935  20.506  0.00  0.00    +0.000 A 
ATOM      6  N   UNL     1       2.072   5.946  21.218  0.00  0.00    +0.000 N 
ATOM      7  C   UNL     1       1.891   7.046  20.410  0.00  0.00    +0.000 A 
ATOM      8  C   UNL     1       1.349   8.299  20.733  0.00  0.00    +0.000 A 
ATOM      9  C   UNL     1       1.264   9.255  19.721  0.00  0.00    +0.000 A 
ATOM     10  C   UNL     1       1.706   8.965  18.435  0.00  0.00    +0.000 A 
ATOM     11  C   UNL     1       2.251   7.713  18.137  0.00  0.00    +0.000 A 
ATOM     12  F   UNL     1       2.685   7.499  16.888  0.00  0.00    +0.000 F 
ATOM     13  C   UNL     1       2.356   6.715  19.127  0.00  0.00    +0.000 A 
ATOM     14  H   UNL     1       1.814   5.901  22.194  0.00  0.00    +0.000 HD
ENDBRANCH   1   4
BRANCH   1  17
ATOM     15  N   UNL     1       6.772   5.677  17.955  0.00  0.00    +0.000 N 
ATOM     16  C   UNL     1       5.467   6.246  17.888  0.00  0.00    +0.000 C 
ATOM     17  N   UNL     1       4.684   5.302  17.101  0.00  0.00    +0.000 NA
ATOM     18  C   UNL     1       5.637   4.533  16.249  0.00  0.00    +0.000 C 
ATOM     19  C   UNL     1       6.963   4.735  16.966  0.00  0.00    +0.000 C 
ATOM     20  O   UNL     1       8.011   4.168  16.698  0.00  0.00    +0.000 OA
BRANCH  15  22
ATOM     21  C   UNL     1       8.236   7.611  18.440  0.00  0.00    +0.000 C 
ATOM     22  C   UNL     1       7.808   6.205  18.819  0.00  0.00    +0.000 C 
ENDBRANCH  15  22
ENDBRANCH   1  17
TORSDOF 3
ENDMDL
MODEL 5
REMARK VINA RESULT:      -7.3      2.713      5.012
REMARK  Name = 
REMARK  4 active torsions:
REMARK  status: ('A' for Active; 'I' for Inactive)
REMARK    1  A    between atoms: C_1  and  C_2
REMARK    2  A    between atoms: C_2  and  N_3
REMARK    3  A    between atoms: N_5  and  S_6
REMARK    4  A    between atoms: S_6  and  C_9
REMARK                            x       y       z     vdW  Elec       q    Type
REMARK                         _______ _______ _______ _____ _____    ______ ____
ROOT
ATOM      1  S   UNL     1       5.351   4.351  18.441  0.00  0.00    +0.000 S 
ATOM      2  O   UNL     1       5.559   4.534  19.857  0.00  0.00    +0.000 OA
ATOM      3  O   UNL     1       6.473   4.163  17.542  0.00  0.00    +0.000 OA
ENDROOT
BRANCH   1   4
ATOM      4  C   UNL     1       4.615   5.817  17.866  0.00  0.00    +0.000 A 
ATOM      5  C   UNL     1       4.947   6.420  16.665  0.00  0.00    +0.000 A 
ATOM      6  N   UNL     1       4.181   7.540  16.519  0.00  0.00    +0.000 N 
ATOM      7  C   UNL     1       3.337   7.675  17.598  0.00  0.00    +0.000 A 
ATOM      8  C   UNL     1       2.379   8.667  17.850  0.00  0.00    +0.000 A 
ATOM      9  C   UNL     1       1.649   8.586  19.036  0.00  0.00    +0.000 A 
ATOM     10  C   UNL     1       1.872   7.549  19.934  0.00  0.00    +0.000 A 
ATOM     11  C   UNL     1       2.826   6.564  19.659  0.00  0.00    +0.000 A 
ATOM     12  F   UNL     1       2.980   5.574  20.548  0.00  0.00    +0.000 F 
ATOM     13  C   UNL     1       3.589   6.606  18.474  0.00  0.00    +0.000 A 
ATOM     14  H   UNL     1       4.223   8.179  15.738  0.00  0.00    +0.000 HD
ENDBRANCH   1   4
BRANCH   1  17
ATOM     15  N   UNL     1       2.305   2.934  19.307  0.00  0.00    +0.000 N 
ATOM     16  C   UNL     1       3.665   2.514  19.391  0.00  0.00    +0.000 C 
ATOM     17  N   UNL     1       4.301   3.052  18.195  0.00  0.00    +0.000 NA
ATOM     18  C   UNL     1       3.232   3.255  17.174  0.00  0.00    +0.000 C 
ATOM     19  C   UNL     1       1.967   3.293  18.018  0.00  0.00    +0.000 C 
ATOM     20  O   UNL     1       0.851   3.577  17.615  0.00  0.00    +0.000 OA
BRANCH  15  22
ATOM     21  C   UNL     1       2.058   2.665  21.752  0.00  0.00    +0.000 C 
ATOM     22  C   UNL     1       1.372   2.778  20.403  0.00  0.00    +0.000 C 
ENDBRANCH  15  22
ENDBRANCH   1  17
TORSDOF 3
ENDMDL
MODEL 6
REMARK VINA RESULT:      -7.2      2.814      4.072
REMARK  Name = 
REMARK  4 active torsions:
REMARK  status: ('A' for Active; 'I' for Inactive)
REMARK    1  A    between atoms: C_1  and  C_2
REMARK    2  A    between atoms: C_2  and  N_3
REMARK    3  A    between atoms: N_5  and  S_6
REMARK    4  A    between atoms: S_6  and  C_9
REMARK                            x       y       z     vdW  Elec       q    Type
REMARK                         _______ _______ _______ _____ _____    ______ ____
ROOT
ATOM      1  S   UNL     1       5.069   4.838  17.610  0.00  0.00    +0.000 S 
ATOM      2  O   UNL     1       5.732   5.946  18.253  0.00  0.00    +0.000 OA
ATOM      3  O   UNL     1       3.881   5.048  16.805  0.00  0.00    +0.000 OA
ENDROOT
BRANCH   1   4
ATOM      4  C   UNL     1       4.513   3.798  18.886  0.00  0.00    +0.000 A 
ATOM      5  C   UNL     1       5.264   2.758  19.407  0.00  0.00    +0.000 A 
ATOM      6  N   UNL     1       4.536   2.154  20.391  0.00  0.00    +0.000 N 
ATOM      7  C   UNL     1       3.325   2.790  20.538  0.00  0.00    +0.000 A 
ATOM      8  C   UNL     1       2.284   2.510  21.435  0.00  0.00    +0.000 A 
ATOM      9  C   UNL     1       1.139   3.305  21.378  0.00  0.00    +0.000 A 
ATOM     10  C   UNL     1       1.043   4.341  20.455  0.00  0.00    +0.000 A 
ATOM     11  C   UNL     1       2.097   4.609  19.577  0.00  0.00    +0.000 A 
ATOM     12  F   UNL     1       1.960   5.636  18.727  0.00  0.00    +0.000 F 
ATOM     13  C   UNL     1       3.272   3.831  19.596  0.00  0.00    +0.000 A 
ATOM     14  H   UNL     1       4.837   1.357  20.935  0.00  0.00    +0.000 HD
ENDBRANCH   1   4
BRANCH   1  17
ATOM     15  N   UNL     1       6.058   4.129  14.361  0.00  0.00    +0.000 N 
ATOM     16  C   UNL     1       5.625   3.345  15.469  0.00  0.00    +0.000 C 
ATOM     17  N   UNL     1       6.177   4.010  16.642  0.00  0.00    +0.000 NA
ATOM     18  C   UNL     1       7.369   4.789  16.193  0.00  0.00    +0.000 C 
ATOM     19  C   UNL     1       7.133   4.927  14.697  0.00  0.00    +0.000 C 
ATOM     20  O   UNL     1       7.792   5.613  13.933  0.00  0.00    +0.000 OA
BRANCH  15  22
ATOM     21  C   UNL     1       6.427   2.990  12.198  0.00  0.00    +0.000 C 
ATOM     22  C   UNL     1       5.557   3.924  13.018  0.00  0.00    +0.000 C 
ENDBRANCH  15  22
ENDBRANCH   1  17
TORSDOF 3
ENDMDL
MODEL 7
REMARK VINA RESULT:      -7.1      2.861      3.549
REMARK  Name = 
REMARK  4 active torsions:
REMARK  status: ('A' for Active; 'I' for Inactive)
REMARK    1  A    between atoms: C_1  and  C_2
REMARK    2  A    between atoms: C_2  and  N_3
REMARK    3  A    between atoms: N_5  and  S_6
REMARK    4  A    between atoms: S_6  and  C_9
REMARK                            x       y       z     vdW  Elec       q    Type
REMARK                         _______ _______ _______ _____ _____    ______ ____
ROOT
ATOM      1  S   UNL     1       3.507   5.751  18.382  0.00  0.00    +0.000 S 
ATOM      2  O   UNL     1       2.497   4.810  17.962  0.00  0.00    +0.000 OA
ATOM      3  O   UNL     1       4.133   5.638  19.685  0.00  0.00    +0.000 OA
ENDROOT
BRANCH   1   4
ATOM      4  C   UNL     1       2.728   7.303  18.442  0.00  0.00    +0.000 A 
ATOM      5  C   UNL     1       2.812   8.240  17.427  0.00  0.00    +0.000 A 
ATOM      6  N   UNL     1       2.084   9.336  17.792  0.00  0.00    +0.000 N 
ATOM      7  C   UNL     1       1.508   9.127  19.024  0.00  0.00    +0.000 A 
ATOM      8  C   UNL     1       0.675   9.979  19.764  0.00  0.00    +0.000 A 
ATOM      9  C   UNL     1       0.224   9.535  21.007  0.00  0.00    +0.000 A 
ATOM     10  C   UNL     1       0.594   8.285  21.488  0.00  0.00    +0.000 A 
ATOM     11  C   UNL     1       1.417   7.447  20.730  0.00  0.00    +0.000 A 
ATOM     12  F   UNL     1       1.720   6.243  21.232  0.00  0.00    +0.000 F 
ATOM     13  C   UNL     1       1.900   7.854  19.469  0.00  0.00    +0.000 A 
ATOM     14  H   UNL     1       1.980  10.178  17.243  0.00  0.00    +0.000 HD
ENDBRANCH   1   4
BRANCH   1  17
ATOM     15  N   UNL     1       6.879   6.360  17.844  0.00  0.00    +0.000 N 
ATOM     16  C   UNL     1       5.668   6.909  17.330  0.00  0.00    +0.000 C 
ATOM     17  N   UNL     1       4.750   5.781  17.241  0.00  0.00    +0.000 NA
ATOM     18  C   UNL     1       5.576   4.542  17.134  0.00  0.00    +0.000 C 
ATOM     19  C   UNL     1       6.924   4.992  17.676  0.00  0.00    +0.000 C 
ATOM     20  O   UNL     1       7.877   4.265  17.905  0.00  0.00    +0.000 OA
BRANCH  15  22
ATOM     21  C   UNL     1       7.934   8.593  17.705  0.00  0.00    +0.000 C 
ATOM     22  C   UNL     1       7.988   7.187  18.274  0.00  0.00    +0.000 C 
ENDBRANCH  15  22
ENDBRANCH   1  17
TORSDOF 3
ENDMDL
MODEL 8
REMARK VINA RESULT:      -7.0      1.548      2.089
REMARK  Name = 
REMARK  4 active torsions:
REMARK  status: ('A' for Active; 'I' for Inactive)
REMARK    1  A    between atoms: C_1  and  C_2
REMARK    2  A    between atoms: C_2  and  N_3
REMARK    3  A    between atoms: N_5  and  S_6
REMARK    4  A    between atoms: S_6  and  C_9
REMARK                            x       y       z     vdW  Elec       q    Type
REMARK                         _______ _______ _______ _____ _____    ______ ____
ROOT
ATOM      1  S   UNL     1       5.283   5.226  16.040  0.00  0.00    +0.000 S 
ATOM      2  O   UNL     1       4.914   6.612  15.881  0.00  0.00    +0.000 OA
ATOM      3  O   UNL     1       5.178   4.296  14.933  0.00  0.00    +0.000 OA
ENDROOT
BRANCH   1   4
ATOM      4  C   UNL     1       4.195   4.567  17.225  0.00  0.00    +0.000 A 
ATOM      5  C   UNL     1       3.929   3.215  17.351  0.00  0.00    +0.000 A 
ATOM      6  N   UNL     1       3.043   3.044  18.375  0.00  0.00    +0.000 N 
ATOM      7  C   UNL     1       2.735   4.262  18.937  0.00  0.00    +0.000 A 
ATOM      8  C   UNL     1       1.883   4.546  20.014  0.00  0.00    +0.000 A 
ATOM      9  C   UNL     1       1.727   5.881  20.390  0.00  0.00    +0.000 A 
ATOM     10  C   UNL     1       2.400   6.890  19.711  0.00  0.00    +0.000 A 
ATOM     11  C   UNL     1       3.252   6.584  18.646  0.00  0.00    +0.000 A 
ATOM     12  F   UNL     1       3.895   7.594  18.046  0.00  0.00    +0.000 F 
ATOM     13  C   UNL     1       3.439   5.250  18.229  0.00  0.00    +0.000 A 
ATOM     14  H   UNL     1       2.667   2.157  18.681  0.00  0.00    +0.000 HD
ENDBRANCH   1   4
BRANCH   1  17
ATOM     15  N   UNL     1       7.668   6.676  18.099  0.00  0.00    +0.000 N 
ATOM     16  C   UNL     1       7.585   6.400  16.704  0.00  0.00    +0.000 C 
ATOM     17  N   UNL     1       6.869   5.134  16.611  0.00  0.00    +0.000 NA
ATOM     18  C   UNL     1       7.062   4.417  17.906  0.00  0.00    +0.000 C 
ATOM     19  C   UNL     1       7.462   5.538  18.852  0.00  0.00    +0.000 C 
ATOM     20  O   UNL     1       7.589   5.437  20.062  0.00  0.00    +0.000 OA
BRANCH  15  22
ATOM     21  C   UNL     1       7.969   9.084  17.624  0.00  0.00    +0.000 C 
ATOM     22  C   UNL     1       8.132   7.947  18.616  0.00  0.00    +0.000 C 
ENDBRANCH  15  22
ENDBRANCH   1  17
TORSDOF 3
ENDMDL
MODEL 9
REMARK VINA RESULT:      -7.0      2.358      3.679
REMARK  Name = 
REMARK  4 active torsions:
REMARK  status: ('A' for Active; 'I' for Inactive)
REMARK    1  A    between atoms: C_1  and  C_2
REMARK    2  A    between atoms: C_2  and  N_3
REMARK    3  A    between atoms: N_5  and  S_6
REMARK    4  A    between atoms: S_6  and  C_9
REMARK                            x       y       z     vdW  Elec       q    Type
REMARK                         _______ _______ _______ _____ _____    ______ ____
ROOT
ATOM      1  S   UNL     1       3.922   3.972  18.155  0.00  0.00    +0.000 S 
ATOM      2  O   UNL     1       3.361   4.211  16.848  0.00  0.00    +0.000 OA
ATOM      3  O   UNL     1       3.797   2.676  18.793  0.00  0.00    +0.000 OA
ENDROOT
BRANCH   1   4
ATOM      4  C   UNL     1       3.088   5.039  19.243  0.00  0.00    +0.000 A 
ATOM      5  C   UNL     1       2.720   4.685  20.530  0.00  0.00    +0.000 A 
ATOM      6  N   UNL     1       2.094   5.752  21.107  0.00  0.00    +0.000 N 
ATOM      7  C   UNL     1       2.060   6.809  20.227  0.00  0.00    +0.000 A 
ATOM      8  C   UNL     1       1.528   8.094  20.411  0.00  0.00    +0.000 A 
ATOM      9  C   UNL     1       1.609   8.994  19.348  0.00  0.00    +0.000 A 
ATOM     10  C   UNL     1       2.201   8.619  18.147  0.00  0.00    +0.000 A 
ATOM     11  C   UNL     1       2.735   7.336  17.988  0.00  0.00    +0.000 A 
ATOM     12  F   UNL     1       3.317   7.039  16.819  0.00  0.00    +0.000 F 
ATOM     13  C   UNL     1       2.674   6.392  19.034  0.00  0.00    +0.000 A 
ATOM     14  H   UNL     1       1.712   5.770  22.043  0.00  0.00    +0.000 HD
ENDBRANCH   1   4
BRANCH   1  17
ATOM     15  N   UNL     1       6.571   5.094  16.216  0.00  0.00    +0.000 N 
ATOM     16  C   UNL     1       6.306   3.906  16.958  0.00  0.00    +0.000 C 
ATOM     17  N   UNL     1       5.567   4.352  18.133  0.00  0.00    +0.000 NA
ATOM     18  C   UNL     1       5.914   5.785  18.361  0.00  0.00    +0.000 C 
ATOM     19  C   UNL     1       6.447   6.220  17.005  0.00  0.00    +0.000 C 
ATOM     20  O   UNL     1       6.726   7.363  16.683  0.00  0.00    +0.000 OA
BRANCH  15  22
ATOM     21  C   UNL     1       6.349   4.146  13.943  0.00  0.00    +0.000 C 
ATOM     22  C   UNL     1       7.114   5.069  14.874  0.00  0.00    +0.000 C 
ENDBRANCH  15  22
ENDBRANCH   1  17
TORSDOF 3
ENDMDL
