MODEL 1
REMARK VINA RESULT:      -9.2      0.000      0.000
REMARK  Name = 
REMARK  4 active torsions:
REMARK  status: ('A' for Active; 'I' for Inactive)
REMARK    1  A    between atoms: C_1  and  C_2
REMARK    2  A    between atoms: C_2  and  C_3
REMARK    3  A    between atoms: N_6  and  C_7
REMARK    4  A    between atoms: C_7  and  C_8
REMARK                            x       y       z     vdW  Elec       q    Type
REMARK                         _______ _______ _______ _____ _____    ______ ____
ROOT
ATOM      1  C   UNL     1       7.501   6.414  17.668  0.00  0.00    +0.000 A 
ATOM      2  N   UNL     1       6.710   5.513  18.341  0.00  0.00    +0.000 NA
ATOM      3  C   UNL     1       6.108   4.461  17.705  0.00  0.00    +0.000 A 
ATOM      4  N   UNL     1       5.292   3.537  18.413  0.00  0.00    +0.000 N 
ATOM      5  C   UNL     1       6.321   4.335  16.338  0.00  0.00    +0.000 A 
ATOM      6  O   UNL     1       5.841   3.440  15.493  0.00  0.00    +0.000 OA
ATOM      7  C   UNL     1       6.292   3.783  14.298  0.00  0.00    +0.000 A 
ATOM      8  C   UNL     1       6.039   3.155  13.079  0.00  0.00    +0.000 A 
ATOM      9  C   UNL     1       6.616   3.712  11.919  0.00  0.00    +0.000 A 
ATOM     10  C   UNL     1       7.428   4.868  12.003  0.00  0.00    +0.000 A 
ATOM     11  C   UNL     1       7.668   5.484  13.244  0.00  0.00    +0.000 A 
ATOM     12  C   UNL     1       7.081   4.912  14.367  0.00  0.00    +0.000 A 
ATOM     13  C   UNL     1       7.094   5.257  15.688  0.00  0.00    +0.000 A 
ATOM     14  N   UNL     1       7.692   6.291  16.321  0.00  0.00    +0.000 NA
ATOM     15  H   UNL     1       5.053   2.636  17.972  0.00  0.00    +0.000 HD
ENDROOT
BRANCH   1  17
ATOM     16  C   UNL     1       7.954   8.863  17.712  0.00  0.00    +0.000 C 
ATOM     17  C   UNL     1       8.171   7.528  18.413  0.00  0.00    +0.000 C 
ENDBRANCH   1  17
BRANCH   4  18
ATOM     18  C   UNL     1       4.700   3.850  19.700  0.00  0.00    +0.000 C 
BRANCH  18  19
ATOM     19  C   UNL     1       3.231   3.529  19.663  0.00  0.00    +0.000 A 
ATOM     20  C   UNL     1       2.306   4.276  20.409  0.00  0.00    +0.000 A 
ATOM     21  C   UNL     1       0.946   3.965  20.329  0.00  0.00    +0.000 A 
ATOM     22  C   UNL     1       0.522   2.910  19.518  0.00  0.00    +0.000 A 
ATOM     23  C   UNL     1       1.468   2.182  18.794  0.00  0.00    +0.000 A 
ATOM     24  N   UNL     1       2.787   2.508  18.876  0.00  0.00    +0.000 NA
ENDBRANCH  18  19
ENDBRANCH   4  18
TORSDOF 3
ENDMDL
MODEL 2
REMARK VINA RESULT:      -8.9      1.227      1.467
REMARK  Name = 
REMARK  4 active torsions:
REMARK  status: ('A' for Active; 'I' for Inactive)
REMARK    1  A    between atoms: C_1  and  C_2
REMARK    2  A    between atoms: C_2  and  C_3
REMARK    3  A    between atoms: N_6  and  C_7
REMARK    4  A    between atoms: C_7  and  C_8
REMARK                            x       y       z     vdW  Elec       q    Type
REMARK                         _______ _______ _______ _____ _____    ______ ____
ROOT
ATOM      1  C   UNL     1       7.070   6.533  17.393  0.00  0.00    +0.000 A 
ATOM      2  N   UNL     1       5.851   6.123  17.878  0.00  0.00    +0.000 NA
ATOM      3  C   UNL     1       5.021   5.308  17.156  0.00  0.00    +0.000 A 
ATOM      4  N   UNL     1       3.762   4.892  17.669  0.00  0.00    +0.000 N 
ATOM      5  C   UNL     1       5.455   4.908  15.898  0.00  0.00    +0.000 A 
ATOM      6  O   UNL     1       4.843   4.158  14.999  0.00  0.00    +0.000 OA
ATOM      7  C   UNL     1       5.645   4.117  13.948  0.00  0.00    +0.000 A 
ATOM      8  C   UNL     1       5.426   3.466  12.734  0.00  0.00    +0.000 A 
ATOM      9  C   UNL     1       6.420   3.575  11.740  0.00  0.00    +0.000 A 
ATOM     10  C   UNL     1       7.599   4.321  11.979  0.00  0.00    +0.000 A 
ATOM     11  C   UNL     1       7.796   4.970  13.211  0.00  0.00    +0.000 A 
ATOM     12  C   UNL     1       6.795   4.845  14.168  0.00  0.00    +0.000 A 
ATOM     13  C   UNL     1       6.662   5.349  15.430  0.00  0.00    +0.000 A 
ATOM     14  N   UNL     1       7.481   6.148  16.149  0.00  0.00    +0.000 NA
ATOM     15  H   UNL     1       3.274   4.102  17.222  0.00  0.00    +0.000 HD
ENDROOT
BRANCH   1  17
ATOM     16  C   UNL     1       7.980   8.829  17.724  0.00  0.00    +0.000 C 
ATOM     17  C   UNL     1       7.962   7.393  18.235  0.00  0.00    +0.000 C 
ENDBRANCH   1  17
BRANCH   4  18
ATOM     18  C   UNL     1       3.088   5.597  18.743  0.00  0.00    +0.000 C 
BRANCH  18  19
ATOM     19  C   UNL     1       2.393   4.603  19.631  0.00  0.00    +0.000 A 
ATOM     20  C   UNL     1       1.339   3.811  19.147  0.00  0.00    +0.000 A 
ATOM     21  C   UNL     1       0.733   2.880  19.994  0.00  0.00    +0.000 A 
ATOM     22  C   UNL     1       1.174   2.752  21.313  0.00  0.00    +0.000 A 
ATOM     23  C   UNL     1       2.219   3.559  21.765  0.00  0.00    +0.000 A 
ATOM     24  N   UNL     1       2.804   4.453  20.922  0.00  0.00    +0.000 NA
ENDBRANCH  18  19
ENDBRANCH   4  18
TORSDOF 3
ENDMDL
MODEL 3
REMARK VINA RESULT:      -8.2      4.408      6.390
REMARK  Name = 
REMARK  4 active torsions:
REMARK  status: ('A' for Active; 'I' for Inactive)
REMARK    1  A    between atoms: C_1  and  C_2
REMARK    2  A    between atoms: C_2  and  C_3
REMARK    3  A    between atoms: N_6  and  C_7
REMARK    4  A    between atoms: C_7  and  C_8
REMARK                            x       y       z     vdW  Elec       q    Type
REMARK                         _______ _______ _______ _____ _____    ______ ____
ROOT
ATOM      1  C   UNL     1       1.712   4.174  20.094  0.00  0.00    +0.000 A 
ATOM      2  N   UNL     1       1.531   5.473  20.504  0.00  0.00    +0.000 NA
ATOM      3  C   UNL     1       2.120   6.526  19.858  0.00  0.00    +0.000 A 
ATOM      4  N   UNL     1       1.924   7.865  20.293  0.00  0.00    +0.000 N 
ATOM      5  C   UNL     1       2.924   6.234  18.762  0.00  0.00    +0.000 A 
ATOM      6  O   UNL     1       3.621   7.050  17.992  0.00  0.00    +0.000 OA
ATOM      7  C   UNL     1       4.261   6.281  17.127  0.00  0.00    +0.000 A 
ATOM      8  C   UNL     1       5.142   6.679  16.122  0.00  0.00    +0.000 A 
ATOM      9  C   UNL     1       5.726   5.676  15.322  0.00  0.00    +0.000 A 
ATOM     10  C   UNL     1       5.418   4.312  15.540  0.00  0.00    +0.000 A 
ATOM     11  C   UNL     1       4.527   3.934  16.561  0.00  0.00    +0.000 A 
ATOM     12  C   UNL     1       3.971   4.948  17.333  0.00  0.00    +0.000 A 
ATOM     13  C   UNL     1       3.106   4.931  18.389  0.00  0.00    +0.000 A 
ATOM     14  N   UNL     1       2.517   3.895  19.026  0.00  0.00    +0.000 NA
ATOM     15  H   UNL     1       2.174   8.641  19.661  0.00  0.00    +0.000 HD
ENDROOT
BRANCH   1  17
ATOM     16  C   UNL     1       1.913   2.446  21.877  0.00  0.00    +0.000 C 
ATOM     17  C   UNL     1       1.015   3.057  20.808  0.00  0.00    +0.000 C 
ENDBRANCH   1  17
BRANCH   4  18
ATOM     18  C   UNL     1       1.473   8.189  21.633  0.00  0.00    +0.000 C 
BRANCH  18  19
ATOM     19  C   UNL     1       0.546   9.371  21.572  0.00  0.00    +0.000 A 
ATOM     20  C   UNL     1      -0.005   9.923  22.741  0.00  0.00    +0.000 A 
ATOM     21  C   UNL     1      -0.842  11.037  22.647  0.00  0.00    +0.000 A 
ATOM     22  C   UNL     1      -1.131  11.585  21.396  0.00  0.00    +0.000 A 
ATOM     23  C   UNL     1      -0.574  11.009  20.253  0.00  0.00    +0.000 A 
ATOM     24  N   UNL     1       0.248   9.930  20.365  0.00  0.00    +0.000 NA
ENDBRANCH  18  19
ENDBRANCH   4  18
TORSDOF 3
ENDMDL
MODEL 4
REMARK VINA RESULT:      -8.2      4.442      6.421
REMARK  Name = 
REMARK  4 active torsions:
REMARK  status: ('A' for Active; 'I' for Inactive)
REMARK    1  A    between atoms: C_1  and  C_2
REMARK    2  A    between atoms: C_2  and  C_3
REMARK    3  A    between atoms: N_6  and  C_7
REMARK    4  A    between atoms: C_7  and  C_8
REMARK                            x       y       z     vdW  Elec       q    Type
REMARK                         _______ _______ _______ _____ _____    ______ ____
ROOT
ATOM      1  C   UNL     1       1.724   4.218  20.056  0.00  0.00    +0.000 A 
ATOM      2  N   UNL     1       1.551   5.526  20.439  0.00  0.00    +0.000 NA
ATOM      3  C   UNL     1       2.165   6.561  19.785  0.00  0.00    +0.000 A 
ATOM      4  N   UNL     1       1.978   7.910  20.193  0.00  0.00    +0.000 N 
ATOM      5  C   UNL     1       2.985   6.239  18.710  0.00  0.00    +0.000 A 
ATOM      6  O   UNL     1       3.707   7.032  17.939  0.00  0.00    +0.000 OA
ATOM      7  C   UNL     1       4.353   6.240  17.099  0.00  0.00    +0.000 A 
ATOM      8  C   UNL     1       5.257   6.609  16.104  0.00  0.00    +0.000 A 
ATOM      9  C   UNL     1       5.843   5.584  15.334  0.00  0.00    +0.000 A 
ATOM     10  C   UNL     1       5.514   4.228  15.570  0.00  0.00    +0.000 A 
ATOM     11  C   UNL     1       4.600   3.880  16.581  0.00  0.00    +0.000 A 
ATOM     12  C   UNL     1       4.043   4.915  17.324  0.00  0.00    +0.000 A 
ATOM     13  C   UNL     1       3.158   4.927  18.364  0.00  0.00    +0.000 A 
ATOM     14  N   UNL     1       2.545   3.910  19.008  0.00  0.00    +0.000 NA
ATOM     15  H   UNL     1       2.249   8.670  19.551  0.00  0.00    +0.000 HD
ENDROOT
BRANCH   1  17
ATOM     16  C   UNL     1       1.842   2.571  21.921  0.00  0.00    +0.000 C 
ATOM     17  C   UNL     1       1.000   3.123  20.777  0.00  0.00    +0.000 C 
ENDBRANCH   1  17
BRANCH   4  18
ATOM     18  C   UNL     1       1.506   8.264  21.518  0.00  0.00    +0.000 C 
BRANCH  18  19
ATOM     19  C   UNL     1       0.588   9.451  21.417  0.00  0.00    +0.000 A 
ATOM     20  C   UNL     1       0.074   9.868  20.179  0.00  0.00    +0.000 A 
ATOM     21  C   UNL     1      -0.796  10.960  20.128  0.00  0.00    +0.000 A 
ATOM     22  C   UNL     1      -1.137  11.631  21.305  0.00  0.00    +0.000 A 
ATOM     23  C   UNL     1      -0.604  11.195  22.519  0.00  0.00    +0.000 A 
ATOM     24  N   UNL     1       0.234  10.123  22.550  0.00  0.00    +0.000 NA
ENDBRANCH  18  19
ENDBRANCH   4  18
TORSDOF 3
ENDMDL
MODEL 5
REMARK VINA RESULT:      -8.2      2.455      7.060
REMARK  Name = 
REMARK  4 active torsions:
REMARK  status: ('A' for Active; 'I' for Inactive)
REMARK    1  A    between atoms: C_1  and  C_2
REMARK    2  A    between atoms: C_2  and  C_3
REMARK    3  A    between atoms: N_6  and  C_7
REMARK    4  A    between atoms: C_7  and  C_8
REMARK                            x       y       z     vdW  Elec       q    Type
REMARK                         _______ _______ _______ _____ _____    ______ ____
ROOT
ATOM      1  C   UNL     1       3.376   7.145  17.833  0.00  0.00    +0.000 A 
ATOM      2  N   UNL     1       4.410   6.542  17.158  0.00  0.00    +0.000 NA
ATOM      3  C   UNL     1       4.789   5.252  17.417  0.00  0.00    +0.000 A 
ATOM      4  N   UNL     1       5.861   4.640  16.713  0.00  0.00    +0.000 N 
ATOM      5  C   UNL     1       4.088   4.567  18.403  0.00  0.00    +0.000 A 
ATOM      6  O   UNL     1       4.268   3.341  18.861  0.00  0.00    +0.000 OA
ATOM      7  C   UNL     1       3.386   3.178  19.832  0.00  0.00    +0.000 A 
ATOM      8  C   UNL     1       3.200   2.053  20.636  0.00  0.00    +0.000 A 
ATOM      9  C   UNL     1       2.202   2.111  21.629  0.00  0.00    +0.000 A 
ATOM     10  C   UNL     1       1.417   3.277  21.793  0.00  0.00    +0.000 A 
ATOM     11  C   UNL     1       1.622   4.400  20.971  0.00  0.00    +0.000 A 
ATOM     12  C   UNL     1       2.617   4.310  20.004  0.00  0.00    +0.000 A 
ATOM     13  C   UNL     1       3.079   5.198  19.075  0.00  0.00    +0.000 A 
ATOM     14  N   UNL     1       2.703   6.469  18.811  0.00  0.00    +0.000 NA
ATOM     15  H   UNL     1       5.968   3.615  16.752  0.00  0.00    +0.000 HD
ENDROOT
BRANCH   1  17
ATOM     16  C   UNL     1       1.562   8.847  17.985  0.00  0.00    +0.000 C 
ATOM     17  C   UNL     1       2.971   8.546  17.488  0.00  0.00    +0.000 C 
ENDBRANCH   1  17
BRANCH   4  18
ATOM     18  C   UNL     1       6.872   5.409  16.013  0.00  0.00    +0.000 C 
BRANCH  18  19
ATOM     19  C   UNL     1       6.945   4.950  14.583  0.00  0.00    +0.000 A 
ATOM     20  C   UNL     1       6.099   3.937  14.103  0.00  0.00    +0.000 A 
ATOM     21  C   UNL     1       6.178   3.554  12.761  0.00  0.00    +0.000 A 
ATOM     22  C   UNL     1       7.100   4.174  11.915  0.00  0.00    +0.000 A 
ATOM     23  C   UNL     1       7.931   5.172  12.425  0.00  0.00    +0.000 A 
ATOM     24  N   UNL     1       7.832   5.540  13.732  0.00  0.00    +0.000 NA
ENDBRANCH  18  19
ENDBRANCH   4  18
TORSDOF 3
ENDMDL
MODEL 6
REMARK VINA RESULT:      -8.1      3.060      7.332
REMARK  Name = 
REMARK  4 active torsions:
REMARK  status: ('A' for Active; 'I' for Inactive)
REMARK    1  A    between atoms: C_1  and  C_2
REMARK    2  A    between atoms: C_2  and  C_3
REMARK    3  A    between atoms: N_6  and  C_7
REMARK    4  A    between atoms: C_7  and  C_8
REMARK                            x       y       z     vdW  Elec       q    Type
REMARK                         _______ _______ _______ _____ _____    ______ ____
ROOT
ATOM      1  C   UNL     1       3.510   4.069  19.634  0.00  0.00    +0.000 A 
ATOM      2  N   UNL     1       4.272   4.055  18.490  0.00  0.00    +0.000 NA
ATOM      3  C   UNL     1       4.360   5.144  17.665  0.00  0.00    +0.000 A 
ATOM      4  N   UNL     1       5.150   5.116  16.484  0.00  0.00    +0.000 N 
ATOM      5  C   UNL     1       3.640   6.277  18.024  0.00  0.00    +0.000 A 
ATOM      6  O   UNL     1       3.530   7.435  17.397  0.00  0.00    +0.000 OA
ATOM      7  C   UNL     1       2.688   8.162  18.113  0.00  0.00    +0.000 A 
ATOM      8  C   UNL     1       2.237   9.454  17.845  0.00  0.00    +0.000 A 
ATOM      9  C   UNL     1       1.319  10.031  18.746  0.00  0.00    +0.000 A 
ATOM     10  C   UNL     1       0.879   9.313  19.884  0.00  0.00    +0.000 A 
ATOM     11  C   UNL     1       1.348   8.011  20.133  0.00  0.00    +0.000 A 
ATOM     12  C   UNL     1       2.250   7.470  19.223  0.00  0.00    +0.000 A 
ATOM     13  C   UNL     1       2.872   6.257  19.155  0.00  0.00    +0.000 A 
ATOM     14  N   UNL     1       2.793   5.182  19.971  0.00  0.00    +0.000 NA
ATOM     15  H   UNL     1       5.390   6.004  16.018  0.00  0.00    +0.000 HD
ENDROOT
BRANCH   1  17
ATOM     16  C   UNL     1       2.335   2.965  21.533  0.00  0.00    +0.000 C 
ATOM     17  C   UNL     1       3.475   2.867  20.527  0.00  0.00    +0.000 C 
ENDBRANCH   1  17
BRANCH   4  18
ATOM     18  C   UNL     1       5.558   3.876  15.850  0.00  0.00    +0.000 C 
BRANCH  18  19
ATOM     19  C   UNL     1       6.252   4.187  14.553  0.00  0.00    +0.000 A 
ATOM     20  C   UNL     1       5.862   3.567  13.354  0.00  0.00    +0.000 A 
ATOM     21  C   UNL     1       6.514   3.899  12.164  0.00  0.00    +0.000 A 
ATOM     22  C   UNL     1       7.550   4.834  12.178  0.00  0.00    +0.000 A 
ATOM     23  C   UNL     1       7.919   5.427  13.387  0.00  0.00    +0.000 A 
ATOM     24  N   UNL     1       7.265   5.099  14.535  0.00  0.00    +0.000 NA
ENDBRANCH  18  19
ENDBRANCH   4  18
TORSDOF 3
ENDMDL
MODEL 7
REMARK VINA RESULT:      -8.0      2.328      2.683
REMARK  Name = 
REMARK  4 active torsions:
REMARK  status: ('A' for Active; 'I' for Inactive)
REMARK    1  A    between atoms: C_1  and  C_2
REMARK    2  A    between atoms: C_2  and  C_3
REMARK    3  A    between atoms: N_6  and  C_7
REMARK    4  A    between atoms: C_7  and  C_8
REMARK                            x       y       z     vdW  Elec       q    Type
REMARK                         _______ _______ _______ _____ _____    ______ ____
ROOT
ATOM      1  C   UNL     1       7.334   6.486  17.799  0.00  0.00    +0.000 A 
ATOM      2  N   UNL     1       6.208   5.984  18.406  0.00  0.00    +0.000 NA
ATOM      3  C   UNL     1       5.345   5.145  17.754  0.00  0.00    +0.000 A 
ATOM      4  N   UNL     1       4.184   4.634  18.395  0.00  0.00    +0.000 N 
ATOM      5  C   UNL     1       5.646   4.819  16.437  0.00  0.00    +0.000 A 
ATOM      6  O   UNL     1       4.974   4.064  15.586  0.00  0.00    +0.000 OA
ATOM      7  C   UNL     1       5.643   4.111  14.446  0.00  0.00    +0.000 A 
ATOM      8  C   UNL     1       5.316   3.491  13.240  0.00  0.00    +0.000 A 
ATOM      9  C   UNL     1       6.175   3.697  12.141  0.00  0.00    +0.000 A 
ATOM     10  C   UNL     1       7.329   4.506  12.270  0.00  0.00    +0.000 A 
ATOM     11  C   UNL     1       7.637   5.122  13.496  0.00  0.00    +0.000 A 
ATOM     12  C   UNL     1       6.768   4.901  14.559  0.00  0.00    +0.000 A 
ATOM     13  C   UNL     1       6.760   5.350  15.848  0.00  0.00    +0.000 A 
ATOM     14  N   UNL     1       7.613   6.172  16.498  0.00  0.00    +0.000 NA
ATOM     15  H   UNL     1       3.691   3.832  17.975  0.00  0.00    +0.000 HD
ENDROOT
BRANCH   1  17
ATOM     16  C   UNL     1       8.266   8.787  18.006  0.00  0.00    +0.000 C 
ATOM     17  C   UNL     1       8.271   7.369  18.564  0.00  0.00    +0.000 C 
ENDBRANCH   1  17
BRANCH   4  18
ATOM     18  C   UNL     1       3.606   5.257  19.570  0.00  0.00    +0.000 C 
BRANCH  18  19
ATOM     19  C   UNL     1       2.934   6.542  19.172  0.00  0.00    +0.000 A 
ATOM     20  C   UNL     1       3.014   7.025  17.856  0.00  0.00    +0.000 A 
ATOM     21  C   UNL     1       2.356   8.210  17.517  0.00  0.00    +0.000 A 
ATOM     22  C   UNL     1       1.634   8.906  18.489  0.00  0.00    +0.000 A 
ATOM     23  C   UNL     1       1.580   8.403  19.790  0.00  0.00    +0.000 A 
ATOM     24  N   UNL     1       2.219   7.242  20.099  0.00  0.00    +0.000 NA
ENDBRANCH  18  19
ENDBRANCH   4  18
TORSDOF 3
ENDMDL
MODEL 8
REMARK VINA RESULT:      -7.9      2.173      2.514
REMARK  Name = 
REMARK  4 active torsions:
REMARK  status: ('A' for Active; 'I' for Inactive)
REMARK    1  A    between atoms: C_1  and  C_2
REMARK    2  A    between atoms: C_2  and  C_3
REMARK    3  A    between atoms: N_6  and  C_7
REMARK    4  A    between atoms: C_7  and  C_8
REMARK                            x       y       z     vdW  Elec       q    Type
REMARK                         _______ _______ _______ _____ _____    ______ ____
ROOT
ATOM      1  C   UNL     1       7.321   6.500  17.803  0.00  0.00    +0.000 A 
ATOM      2  N   UNL     1       6.207   5.980  18.415  0.00  0.00    +0.000 NA
ATOM      3  C   UNL     1       5.355   5.126  17.766  0.00  0.00    +0.000 A 
ATOM      4  N   UNL     1       4.205   4.596  18.412  0.00  0.00    +0.000 N 
ATOM      5  C   UNL     1       5.657   4.804  16.449  0.00  0.00    +0.000 A 
ATOM      6  O   UNL     1       4.994   4.038  15.600  0.00  0.00    +0.000 OA
ATOM      7  C   UNL     1       5.658   4.096  14.458  0.00  0.00    +0.000 A 
ATOM      8  C   UNL     1       5.338   3.470  13.253  0.00  0.00    +0.000 A 
ATOM      9  C   UNL     1       6.189   3.690  12.151  0.00  0.00    +0.000 A 
ATOM     10  C   UNL     1       7.329   4.518  12.275  0.00  0.00    +0.000 A 
ATOM     11  C   UNL     1       7.631   5.140  13.500  0.00  0.00    +0.000 A 
ATOM     12  C   UNL     1       6.770   4.905  14.566  0.00  0.00    +0.000 A 
ATOM     13  C   UNL     1       6.759   5.354  15.856  0.00  0.00    +0.000 A 
ATOM     14  N   UNL     1       7.601   6.191  16.502  0.00  0.00    +0.000 NA
ATOM     15  H   UNL     1       3.724   3.784  17.994  0.00  0.00    +0.000 HD
ENDROOT
BRANCH   1  17
ATOM     16  C   UNL     1       8.225   8.814  17.998  0.00  0.00    +0.000 C 
ATOM     17  C   UNL     1       8.245   7.400  18.565  0.00  0.00    +0.000 C 
ENDBRANCH   1  17
BRANCH   4  18
ATOM     18  C   UNL     1       3.621   5.209  19.589  0.00  0.00    +0.000 C 
BRANCH  18  19
ATOM     19  C   UNL     1       2.926   6.482  19.193  0.00  0.00    +0.000 A 
ATOM     20  C   UNL     1       2.181   7.223  20.125  0.00  0.00    +0.000 A 
ATOM     21  C   UNL     1       1.571   8.414  19.727  0.00  0.00    +0.000 A 
ATOM     22  C   UNL     1       1.698   8.852  18.407  0.00  0.00    +0.000 A 
ATOM     23  C   UNL     1       2.439   8.090  17.503  0.00  0.00    +0.000 A 
ATOM     24  N   UNL     1       3.036   6.937  17.912  0.00  0.00    +0.000 NA
ENDBRANCH  18  19
ENDBRANCH   4  18
TORSDOF 3
ENDMDL
MODEL 9
REMARK VINA RESULT:      -7.8      1.871      6.510
REMARK  Name = 
REMARK  4 active torsions:
REMARK  status: ('A' for Active; 'I' for Inactive)
REMARK    1  A    between atoms: C_1  and  C_2
REMARK    2  A    between atoms: C_2  and  C_3
REMARK    3  A    between atoms: N_6  and  C_7
REMARK    4  A    between atoms: C_7  and  C_8
REMARK                            x       y       z     vdW  Elec       q    Type
REMARK                         _______ _______ _______ _____ _____    ______ ____
ROOT
ATOM      1  C   UNL     1       6.563   5.432  18.480  0.00  0.00    +0.000 A 
ATOM      2  N   UNL     1       6.462   5.290  17.116  0.00  0.00    +0.000 NA
ATOM      3  C   UNL     1       5.335   4.792  16.520  0.00  0.00    +0.000 A 
ATOM      4  N   UNL     1       5.244   4.650  15.109  0.00  0.00    +0.000 N 
ATOM      5  C   UNL     1       4.283   4.423  17.351  0.00  0.00    +0.000 A 
ATOM      6  O   UNL     1       3.113   3.896  17.040  0.00  0.00    +0.000 OA
ATOM      7  C   UNL     1       2.492   3.676  18.186  0.00  0.00    +0.000 A 
ATOM      8  C   UNL     1       1.232   3.110  18.378  0.00  0.00    +0.000 A 
ATOM      9  C   UNL     1       0.775   2.955  19.702  0.00  0.00    +0.000 A 
ATOM     10  C   UNL     1       1.576   3.367  20.794  0.00  0.00    +0.000 A 
ATOM     11  C   UNL     1       2.844   3.936  20.575  0.00  0.00    +0.000 A 
ATOM     12  C   UNL     1       3.266   4.071  19.257  0.00  0.00    +0.000 A 
ATOM     13  C   UNL     1       4.418   4.553  18.706  0.00  0.00    +0.000 A 
ATOM     14  N   UNL     1       5.530   5.052  19.289  0.00  0.00    +0.000 NA
ATOM     15  H   UNL     1       4.319   4.505  14.677  0.00  0.00    +0.000 HD
ENDROOT
BRANCH   1  17
ATOM     16  C   UNL     1       8.152   7.350  18.432  0.00  0.00    +0.000 C 
ATOM     17  C   UNL     1       7.801   6.018  19.084  0.00  0.00    +0.000 C 
ENDBRANCH   1  17
BRANCH   4  18
ATOM     18  C   UNL     1       6.416   4.606  14.255  0.00  0.00    +0.000 C 
BRANCH  18  19
ATOM     19  C   UNL     1       6.138   3.716  13.075  0.00  0.00    +0.000 A 
ATOM     20  C   UNL     1       4.833   3.549  12.584  0.00  0.00    +0.000 A 
ATOM     21  C   UNL     1       4.617   2.734  11.470  0.00  0.00    +0.000 A 
ATOM     22  C   UNL     1       5.696   2.088  10.862  0.00  0.00    +0.000 A 
ATOM     23  C   UNL     1       6.980   2.270  11.379  0.00  0.00    +0.000 A 
ATOM     24  N   UNL     1       7.172   3.076  12.459  0.00  0.00    +0.000 NA
ENDBRANCH  18  19
ENDBRANCH   4  18
TORSDOF 3
ENDMDL
