MODEL 1
REMARK VINA RESULT:      -9.5      0.000      0.000
REMARK  Name = 
REMARK  7 active torsions:
REMARK  status: ('A' for Active; 'I' for Inactive)
REMARK    1  A    between atoms: C_1  and  C_2
REMARK    2  A    between atoms: C_2  and  C_3
REMARK    3  A    between atoms: C_2  and  C_4
REMARK    4  A    between atoms: C_2  and  N_5
REMARK    5  A    between atoms: C_9  and  C_10
REMARK    6  A    between atoms: C_10  and  C_11
REMARK    7  A    between atoms: C_10  and  N_17
REMARK                            x       y       z     vdW  Elec       q    Type
REMARK                         _______ _______ _______ _____ _____    ______ ____
ROOT
ATOM      1  C   UNL     1       3.219   5.751  18.461  0.00  0.00    +0.000 C 
ENDROOT
BRANCH   1   2
ATOM      2  N   UNL     1       2.766   7.085  18.978  0.00  0.00    +0.000 NA
ATOM      3  C   UNL     1       1.709   7.066  20.018  0.00  0.00    +0.000 C 
ATOM      4  C   UNL     1       1.698   8.408  20.782  0.00  0.00    +0.000 C 
ATOM      5  C   UNL     1       1.236   9.401  19.794  0.00  0.00    +0.000 A 
ATOM      6  C   UNL     1       1.594   9.238  18.469  0.00  0.00    +0.000 A 
ATOM      7  N   UNL     1       0.777  10.074  17.739  0.00  0.00    +0.000 N 
ATOM      8  C   UNL     1      -0.102  10.739  18.590  0.00  0.00    +0.000 A 
ATOM      9  C   UNL     1      -1.188  11.581  18.316  0.00  0.00    +0.000 A 
ATOM     10  C   UNL     1      -1.976  12.010  19.396  0.00  0.00    +0.000 A 
ATOM     11  C   UNL     1      -1.663  11.660  20.706  0.00  0.00    +0.000 A 
ATOM     12  C   UNL     1      -0.557  10.852  20.971  0.00  0.00    +0.000 A 
ATOM     13  C   UNL     1       0.214  10.364  19.897  0.00  0.00    +0.000 A 
ATOM     14  C   UNL     1       2.528   8.152  17.954  0.00  0.00    +0.000 C 
ATOM     15  H   UNL     1       0.715  10.103  16.733  0.00  0.00    +0.000 HD
ENDBRANCH   1   2
BRANCH   1  16
ATOM     16  C   UNL     1       2.444   4.551  19.030  0.00  0.00    +0.000 A 
ATOM     17  C   UNL     1       1.666   3.724  18.202  0.00  0.00    +0.000 A 
ATOM     18  C   UNL     1       0.855   2.722  18.738  0.00  0.00    +0.000 A 
ATOM     19  C   UNL     1       0.797   2.532  20.115  0.00  0.00    +0.000 A 
ATOM     20  C   UNL     1       1.584   3.318  20.953  0.00  0.00    +0.000 A 
ATOM     21  C   UNL     1       2.420   4.302  20.414  0.00  0.00    +0.000 A 
ENDBRANCH   1  16
BRANCH   1  26
ATOM     22  N   UNL     1       5.723   5.331  17.647  0.00  0.00    +0.000 N 
ATOM     23  N   UNL     1       6.920   5.219  18.275  0.00  0.00    +0.000 NA
ATOM     24  N   UNL     1       6.677   5.274  19.563  0.00  0.00    +0.000 NA
ATOM     25  N   UNL     1       5.357   5.435  19.783  0.00  0.00    +0.000 NA
ATOM     26  C   UNL     1       4.741   5.533  18.610  0.00  0.00    +0.000 A 
BRANCH  22  28
ATOM     27  C   UNL     1       7.173   4.905  15.651  0.00  0.00    +0.000 C 
ATOM     28  C   UNL     1       5.725   5.160  16.184  0.00  0.00    +0.000 C 
ATOM     29  C   UNL     1       5.220   6.430  15.480  0.00  0.00    +0.000 C 
ATOM     30  C   UNL     1       4.910   3.938  15.754  0.00  0.00    +0.000 C 
ENDBRANCH  22  28
ENDBRANCH   1  26
TORSDOF 4
ENDMDL
MODEL 2
REMARK VINA RESULT:      -9.4      0.182      1.211
REMARK  Name = 
REMARK  7 active torsions:
REMARK  status: ('A' for Active; 'I' for Inactive)
REMARK    1  A    between atoms: C_1  and  C_2
REMARK    2  A    between atoms: C_2  and  C_3
REMARK    3  A    between atoms: C_2  and  C_4
REMARK    4  A    between atoms: C_2  and  N_5
REMARK    5  A    between atoms: C_9  and  C_10
REMARK    6  A    between atoms: C_10  and  C_11
REMARK    7  A    between atoms: C_10  and  N_17
REMARK                            x       y       z     vdW  Elec       q    Type
REMARK                         _______ _______ _______ _____ _____    ______ ____
ROOT
ATOM      1  C   UNL     1       3.197   5.719  18.483  0.00  0.00    +0.000 C 
ENDROOT
BRANCH   1   2
ATOM      2  N   UNL     1       2.775   7.061  19.007  0.00  0.00    +0.000 NA
ATOM      3  C   UNL     1       1.760   7.058  20.088  0.00  0.00    +0.000 C 
ATOM      4  C   UNL     1       1.790   8.406  20.842  0.00  0.00    +0.000 C 
ATOM      5  C   UNL     1       1.296   9.394  19.865  0.00  0.00    +0.000 A 
ATOM      6  C   UNL     1       1.600   9.219  18.528  0.00  0.00    +0.000 A 
ATOM      7  N   UNL     1       0.761  10.055  17.824  0.00  0.00    +0.000 N 
ATOM      8  C   UNL     1      -0.079  10.733  18.704  0.00  0.00    +0.000 A 
ATOM      9  C   UNL     1      -1.170  11.581  18.467  0.00  0.00    +0.000 A 
ATOM     10  C   UNL     1      -1.911  12.025  19.574  0.00  0.00    +0.000 A 
ATOM     11  C   UNL     1      -1.548  11.683  20.873  0.00  0.00    +0.000 A 
ATOM     12  C   UNL     1      -0.438  10.868  21.100  0.00  0.00    +0.000 A 
ATOM     13  C   UNL     1       0.285  10.366  20.000  0.00  0.00    +0.000 A 
ATOM     14  C   UNL     1       2.504   8.122  17.985  0.00  0.00    +0.000 C 
ATOM     15  H   UNL     1       0.658  10.077  16.821  0.00  0.00    +0.000 HD
ENDBRANCH   1   2
BRANCH   1  16
ATOM     16  C   UNL     1       2.363   4.539  19.009  0.00  0.00    +0.000 A 
ATOM     17  C   UNL     1       2.314   4.231  20.379  0.00  0.00    +0.000 A 
ATOM     18  C   UNL     1       1.671   3.080  20.839  0.00  0.00    +0.000 A 
ATOM     19  C   UNL     1       1.073   2.207  19.936  0.00  0.00    +0.000 A 
ATOM     20  C   UNL     1       1.082   2.507  18.576  0.00  0.00    +0.000 A 
ATOM     21  C   UNL     1       1.699   3.676  18.118  0.00  0.00    +0.000 A 
ENDBRANCH   1  16
BRANCH   1  26
ATOM     22  N   UNL     1       5.702   5.185  17.743  0.00  0.00    +0.000 N 
ATOM     23  N   UNL     1       6.878   5.040  18.404  0.00  0.00    +0.000 NA
ATOM     24  N   UNL     1       6.605   5.131  19.683  0.00  0.00    +0.000 NA
ATOM     25  N   UNL     1       5.287   5.348  19.865  0.00  0.00    +0.000 NA
ATOM     26  C   UNL     1       4.705   5.445  18.676  0.00  0.00    +0.000 A 
BRANCH  22  28
ATOM     27  C   UNL     1       5.209   6.249  15.532  0.00  0.00    +0.000 C 
ATOM     28  C   UNL     1       5.734   4.984  16.284  0.00  0.00    +0.000 C 
ATOM     29  C   UNL     1       4.820   3.820  15.868  0.00  0.00    +0.000 C 
ATOM     30  C   UNL     1       7.160   4.766  15.772  0.00  0.00    +0.000 C 
ENDBRANCH  22  28
ENDBRANCH   1  26
TORSDOF 4
ENDMDL
MODEL 3
REMARK VINA RESULT:      -8.6      2.253      8.385
REMARK  Name = 
REMARK  7 active torsions:
REMARK  status: ('A' for Active; 'I' for Inactive)
REMARK    1  A    between atoms: C_1  and  C_2
REMARK    2  A    between atoms: C_2  and  C_3
REMARK    3  A    between atoms: C_2  and  C_4
REMARK    4  A    between atoms: C_2  and  N_5
REMARK    5  A    between atoms: C_9  and  C_10
REMARK    6  A    between atoms: C_10  and  C_11
REMARK    7  A    between atoms: C_10  and  N_17
REMARK                            x       y       z     vdW  Elec       q    Type
REMARK                         _______ _______ _______ _____ _____    ______ ____
ROOT
ATOM      1  C   UNL     1       0.078  10.246  20.043  0.00  0.00    +0.000 C 
ENDROOT
BRANCH   1   2
ATOM      2  N   UNL     1       1.208   9.320  19.699  0.00  0.00    +0.000 NA
ATOM      3  C   UNL     1       1.279   8.859  18.291  0.00  0.00    +0.000 C 
ATOM      4  C   UNL     1       2.701   8.345  17.977  0.00  0.00    +0.000 C 
ATOM      5  C   UNL     1       2.845   7.118  18.781  0.00  0.00    +0.000 A 
ATOM      6  C   UNL     1       2.226   7.055  20.016  0.00  0.00    +0.000 A 
ATOM      7  N   UNL     1       2.232   5.728  20.387  0.00  0.00    +0.000 N 
ATOM      8  C   UNL     1       2.824   4.959  19.389  0.00  0.00    +0.000 A 
ATOM      9  C   UNL     1       2.947   3.570  19.247  0.00  0.00    +0.000 A 
ATOM     10  C   UNL     1       3.496   3.076  18.052  0.00  0.00    +0.000 A 
ATOM     11  C   UNL     1       3.957   3.935  17.059  0.00  0.00    +0.000 A 
ATOM     12  C   UNL     1       3.865   5.317  17.226  0.00  0.00    +0.000 A 
ATOM     13  C   UNL     1       3.265   5.831  18.393  0.00  0.00    +0.000 A 
ATOM     14  C   UNL     1       1.480   8.209  20.667  0.00  0.00    +0.000 C 
ATOM     15  H   UNL     1       1.755   5.339  21.187  0.00  0.00    +0.000 HD
ENDBRANCH   1   2
BRANCH   1  16
ATOM     16  C   UNL     1      -0.911  10.498  18.894  0.00  0.00    +0.000 A 
ATOM     17  C   UNL     1      -0.904  11.705  18.174  0.00  0.00    +0.000 A 
ATOM     18  C   UNL     1      -1.889  11.987  17.226  0.00  0.00    +0.000 A 
ATOM     19  C   UNL     1      -2.910  11.073  16.987  0.00  0.00    +0.000 A 
ATOM     20  C   UNL     1      -2.921   9.857  17.664  0.00  0.00    +0.000 A 
ATOM     21  C   UNL     1      -1.916   9.560  18.592  0.00  0.00    +0.000 A 
ENDBRANCH   1  16
BRANCH   1  26
ATOM     22  N   UNL     1      -0.025  12.406  21.602  0.00  0.00    +0.000 N 
ATOM     23  N   UNL     1       0.801  13.460  21.822  0.00  0.00    +0.000 NA
ATOM     24  N   UNL     1       1.806  13.332  20.989  0.00  0.00    +0.000 NA
ATOM     25  N   UNL     1       1.659  12.214  20.249  0.00  0.00    +0.000 NA
ATOM     26  C   UNL     1       0.560  11.584  20.646  0.00  0.00    +0.000 A 
BRANCH  22  28
ATOM     27  C   UNL     1      -1.368  13.588  23.353  0.00  0.00    +0.000 C 
ATOM     28  C   UNL     1      -1.303  12.404  22.334  0.00  0.00    +0.000 C 
ATOM     29  C   UNL     1      -1.467  11.115  23.154  0.00  0.00    +0.000 C 
ATOM     30  C   UNL     1      -2.495  12.608  21.395  0.00  0.00    +0.000 C 
ENDBRANCH  22  28
ENDBRANCH   1  26
TORSDOF 4
ENDMDL
MODEL 4
REMARK VINA RESULT:      -8.6      1.662      4.194
REMARK  Name = 
REMARK  7 active torsions:
REMARK  status: ('A' for Active; 'I' for Inactive)
REMARK    1  A    between atoms: C_1  and  C_2
REMARK    2  A    between atoms: C_2  and  C_3
REMARK    3  A    between atoms: C_2  and  C_4
REMARK    4  A    between atoms: C_2  and  N_5
REMARK    5  A    between atoms: C_9  and  C_10
REMARK    6  A    between atoms: C_10  and  C_11
REMARK    7  A    between atoms: C_10  and  N_17
REMARK                            x       y       z     vdW  Elec       q    Type
REMARK                         _______ _______ _______ _____ _____    ______ ____
ROOT
ATOM      1  C   UNL     1       4.550   5.372  18.737  0.00  0.00    +0.000 C 
ENDROOT
BRANCH   1   2
ATOM      2  N   UNL     1       3.326   6.240  18.781  0.00  0.00    +0.000 NA
ATOM      3  C   UNL     1       3.367   7.479  17.967  0.00  0.00    +0.000 C 
ATOM      4  C   UNL     1       1.932   7.992  17.718  0.00  0.00    +0.000 C 
ATOM      5  C   UNL     1       1.453   8.429  19.043  0.00  0.00    +0.000 A 
ATOM      6  C   UNL     1       1.871   7.736  20.164  0.00  0.00    +0.000 A 
ATOM      7  N   UNL     1       1.569   8.531  21.248  0.00  0.00    +0.000 N 
ATOM      8  C   UNL     1       0.988   9.720  20.817  0.00  0.00    +0.000 A 
ATOM      9  C   UNL     1       0.631  10.879  21.520  0.00  0.00    +0.000 A 
ATOM     10  C   UNL     1       0.170  11.981  20.782  0.00  0.00    +0.000 A 
ATOM     11  C   UNL     1       0.018  11.915  19.400  0.00  0.00    +0.000 A 
ATOM     12  C   UNL     1       0.341  10.744  18.714  0.00  0.00    +0.000 A 
ATOM     13  C   UNL     1       0.858   9.646  19.429  0.00  0.00    +0.000 A 
ATOM     14  C   UNL     1       2.722   6.475  20.131  0.00  0.00    +0.000 C 
ATOM     15  H   UNL     1       1.850   8.356  22.201  0.00  0.00    +0.000 HD
ENDBRANCH   1   2
BRANCH   1  16
ATOM     16  C   UNL     1       5.236   5.307  17.363  0.00  0.00    +0.000 A 
ATOM     17  C   UNL     1       4.734   4.495  16.332  0.00  0.00    +0.000 A 
ATOM     18  C   UNL     1       5.433   4.330  15.135  0.00  0.00    +0.000 A 
ATOM     19  C   UNL     1       6.657   4.966  14.949  0.00  0.00    +0.000 A 
ATOM     20  C   UNL     1       7.160   5.800  15.943  0.00  0.00    +0.000 A 
ATOM     21  C   UNL     1       6.444   5.990  17.131  0.00  0.00    +0.000 A 
ENDBRANCH   1  16
BRANCH   1  26
ATOM     22  N   UNL     1       3.137   3.184  19.310  0.00  0.00    +0.000 N 
ATOM     23  N   UNL     1       3.429   1.985  19.873  0.00  0.00    +0.000 NA
ATOM     24  N   UNL     1       4.686   2.038  20.242  0.00  0.00    +0.000 NA
ATOM     25  N   UNL     1       5.218   3.233  19.919  0.00  0.00    +0.000 NA
ATOM     26  C   UNL     1       4.297   3.950  19.285  0.00  0.00    +0.000 A 
BRANCH  22  28
ATOM     27  C   UNL     1       0.991   2.062  18.678  0.00  0.00    +0.000 C 
ATOM     28  C   UNL     1       1.731   3.414  18.936  0.00  0.00    +0.000 C 
ATOM     29  C   UNL     1       1.633   4.220  17.630  0.00  0.00    +0.000 C 
ATOM     30  C   UNL     1       0.949   4.100  20.058  0.00  0.00    +0.000 C 
ENDBRANCH  22  28
ENDBRANCH   1  26
TORSDOF 4
ENDMDL
MODEL 5
REMARK VINA RESULT:      -8.5      2.301      8.386
REMARK  Name = 
REMARK  7 active torsions:
REMARK  status: ('A' for Active; 'I' for Inactive)
REMARK    1  A    between atoms: C_1  and  C_2
REMARK    2  A    between atoms: C_2  and  C_3
REMARK    3  A    between atoms: C_2  and  C_4
REMARK    4  A    between atoms: C_2  and  N_5
REMARK    5  A    between atoms: C_9  and  C_10
REMARK    6  A    between atoms: C_10  and  C_11
REMARK    7  A    between atoms: C_10  and  N_17
REMARK                            x       y       z     vdW  Elec       q    Type
REMARK                         _______ _______ _______ _____ _____    ______ ____
ROOT
ATOM      1  C   UNL     1       0.019  10.364  20.133  0.00  0.00    +0.000 C 
ENDROOT
BRANCH   1   2
ATOM      2  N   UNL     1       1.135   9.425  19.782  0.00  0.00    +0.000 NA
ATOM      3  C   UNL     1       1.181   8.951  18.377  0.00  0.00    +0.000 C 
ATOM      4  C   UNL     1       2.594   8.421  18.047  0.00  0.00    +0.000 C 
ATOM      5  C   UNL     1       2.738   7.199  18.861  0.00  0.00    +0.000 A 
ATOM      6  C   UNL     1       2.137   7.153  20.105  0.00  0.00    +0.000 A 
ATOM      7  N   UNL     1       2.136   5.830  20.488  0.00  0.00    +0.000 N 
ATOM      8  C   UNL     1       2.707   5.046  19.489  0.00  0.00    +0.000 A 
ATOM      9  C   UNL     1       2.814   3.655  19.358  0.00  0.00    +0.000 A 
ATOM     10  C   UNL     1       3.342   3.145  18.161  0.00  0.00    +0.000 A 
ATOM     11  C   UNL     1       3.797   3.990  17.152  0.00  0.00    +0.000 A 
ATOM     12  C   UNL     1       3.719   5.374  17.308  0.00  0.00    +0.000 A 
ATOM     13  C   UNL     1       3.142   5.905  18.478  0.00  0.00    +0.000 A 
ATOM     14  C   UNL     1       1.411   8.321  20.756  0.00  0.00    +0.000 C 
ATOM     15  H   UNL     1       1.667   5.453  21.298  0.00  0.00    +0.000 HD
ENDBRANCH   1   2
BRANCH   1  16
ATOM     16  C   UNL     1      -0.981  10.621  18.994  0.00  0.00    +0.000 A 
ATOM     17  C   UNL     1      -1.909   9.642  18.601  0.00  0.00    +0.000 A 
ATOM     18  C   UNL     1      -2.720   9.823  17.480  0.00  0.00    +0.000 A 
ATOM     19  C   UNL     1      -2.612  10.984  16.720  0.00  0.00    +0.000 A 
ATOM     20  C   UNL     1      -1.722  11.982  17.108  0.00  0.00    +0.000 A 
ATOM     21  C   UNL     1      -0.931  11.814  18.250  0.00  0.00    +0.000 A 
ENDBRANCH   1  16
BRANCH   1  26
ATOM     22  N   UNL     1      -0.042  12.532  21.684  0.00  0.00    +0.000 N 
ATOM     23  N   UNL     1       0.796  13.580  21.888  0.00  0.00    +0.000 NA
ATOM     24  N   UNL     1       1.788  13.438  21.042  0.00  0.00    +0.000 NA
ATOM     25  N   UNL     1       1.621  12.319  20.309  0.00  0.00    +0.000 NA
ATOM     26  C   UNL     1       0.522  11.700  20.724  0.00  0.00    +0.000 A 
BRANCH  22  28
ATOM     27  C   UNL     1      -2.528  12.730  21.470  0.00  0.00    +0.000 C 
ATOM     28  C   UNL     1      -1.311  12.546  22.433  0.00  0.00    +0.000 C 
ATOM     29  C   UNL     1      -1.356  13.723  23.420  0.00  0.00    +0.000 C 
ATOM     30  C   UNL     1      -1.558  11.219  23.155  0.00  0.00    +0.000 C 
ENDBRANCH  22  28
ENDBRANCH   1  26
TORSDOF 4
ENDMDL
MODEL 6
REMARK VINA RESULT:      -8.3      1.627      1.929
REMARK  Name = 
REMARK  7 active torsions:
REMARK  status: ('A' for Active; 'I' for Inactive)
REMARK    1  A    between atoms: C_1  and  C_2
REMARK    2  A    between atoms: C_2  and  C_3
REMARK    3  A    between atoms: C_2  and  C_4
REMARK    4  A    between atoms: C_2  and  N_5
REMARK    5  A    between atoms: C_9  and  C_10
REMARK    6  A    between atoms: C_10  and  C_11
REMARK    7  A    between atoms: C_10  and  N_17
REMARK                            x       y       z     vdW  Elec       q    Type
REMARK                         _______ _______ _______ _____ _____    ______ ____
ROOT
ATOM      1  C   UNL     1       3.952   5.995  17.363  0.00  0.00    +0.000 C 
ENDROOT
BRANCH   1   2
ATOM      2  N   UNL     1       3.358   7.095  18.194  0.00  0.00    +0.000 NA
ATOM      3  C   UNL     1       2.195   6.730  19.038  0.00  0.00    +0.000 C 
ATOM      4  C   UNL     1       2.011   7.774  20.162  0.00  0.00    +0.000 C 
ATOM      5  C   UNL     1       1.598   9.007  19.466  0.00  0.00    +0.000 A 
ATOM      6  C   UNL     1       2.111   9.266  18.209  0.00  0.00    +0.000 A 
ATOM      7  N   UNL     1       1.328  10.261  17.666  0.00  0.00    +0.000 N 
ATOM      8  C   UNL     1       0.318  10.609  18.558  0.00  0.00    +0.000 A 
ATOM      9  C   UNL     1      -0.785  11.463  18.414  0.00  0.00    +0.000 A 
ATOM     10  C   UNL     1      -1.714  11.520  19.465  0.00  0.00    +0.000 A 
ATOM     11  C   UNL     1      -1.526  10.796  20.639  0.00  0.00    +0.000 A 
ATOM     12  C   UNL     1      -0.406   9.978  20.786  0.00  0.00    +0.000 A 
ATOM     13  C   UNL     1       0.509   9.863  19.722  0.00  0.00    +0.000 A 
ATOM     14  C   UNL     1       3.166   8.416  17.515  0.00  0.00    +0.000 C 
ATOM     15  H   UNL     1       1.376  10.594  16.715  0.00  0.00    +0.000 HD
ENDBRANCH   1   2
BRANCH   1  16
ATOM     16  C   UNL     1       3.756   4.584  17.940  0.00  0.00    +0.000 A 
ATOM     17  C   UNL     1       4.545   4.112  19.003  0.00  0.00    +0.000 A 
ATOM     18  C   UNL     1       4.461   2.787  19.433  0.00  0.00    +0.000 A 
ATOM     19  C   UNL     1       3.594   1.902  18.800  0.00  0.00    +0.000 A 
ATOM     20  C   UNL     1       2.780   2.353  17.765  0.00  0.00    +0.000 A 
ATOM     21  C   UNL     1       2.841   3.690  17.355  0.00  0.00    +0.000 A 
ENDBRANCH   1  16
BRANCH   1  26
ATOM     22  N   UNL     1       6.247   5.658  16.048  0.00  0.00    +0.000 N 
ATOM     23  N   UNL     1       7.477   6.226  16.120  0.00  0.00    +0.000 NA
ATOM     24  N   UNL     1       7.447   7.060  17.132  0.00  0.00    +0.000 NA
ATOM     25  N   UNL     1       6.227   7.057  17.705  0.00  0.00    +0.000 NA
ATOM     26  C   UNL     1       5.438   6.239  17.018  0.00  0.00    +0.000 A 
BRANCH  22  28
ATOM     27  C   UNL     1       7.259   4.557  14.041  0.00  0.00    +0.000 C 
ATOM     28  C   UNL     1       6.075   4.577  15.062  0.00  0.00    +0.000 C 
ATOM     29  C   UNL     1       4.794   4.781  14.238  0.00  0.00    +0.000 C 
ATOM     30  C   UNL     1       6.083   3.197  15.724  0.00  0.00    +0.000 C 
ENDBRANCH  22  28
ENDBRANCH   1  26
TORSDOF 4
ENDMDL
MODEL 7
REMARK VINA RESULT:      -8.3      1.629      1.971
REMARK  Name = 
REMARK  7 active torsions:
REMARK  status: ('A' for Active; 'I' for Inactive)
REMARK    1  A    between atoms: C_1  and  C_2
REMARK    2  A    between atoms: C_2  and  C_3
REMARK    3  A    between atoms: C_2  and  C_4
REMARK    4  A    between atoms: C_2  and  N_5
REMARK    5  A    between atoms: C_9  and  C_10
REMARK    6  A    between atoms: C_10  and  C_11
REMARK    7  A    between atoms: C_10  and  N_17
REMARK                            x       y       z     vdW  Elec       q    Type
REMARK                         _______ _______ _______ _____ _____    ______ ____
ROOT
ATOM      1  C   UNL     1       4.068   5.898  17.245  0.00  0.00    +0.000 C 
ENDROOT
BRANCH   1   2
ATOM      2  N   UNL     1       3.469   6.968  18.111  0.00  0.00    +0.000 NA
ATOM      3  C   UNL     1       2.288   6.579  18.918  0.00  0.00    +0.000 C 
ATOM      4  C   UNL     1       2.093   7.578  20.081  0.00  0.00    +0.000 C 
ATOM      5  C   UNL     1       1.704   8.843  19.429  0.00  0.00    +0.000 A 
ATOM      6  C   UNL     1       2.243   9.149  18.193  0.00  0.00    +0.000 A 
ATOM      7  N   UNL     1       1.478  10.173  17.678  0.00  0.00    +0.000 N 
ATOM      8  C   UNL     1       0.455  10.494  18.566  0.00  0.00    +0.000 A 
ATOM      9  C   UNL     1      -0.636  11.364  18.438  0.00  0.00    +0.000 A 
ATOM     10  C   UNL     1      -1.584  11.387  19.474  0.00  0.00    +0.000 A 
ATOM     11  C   UNL     1      -1.424  10.613  20.620  0.00  0.00    +0.000 A 
ATOM     12  C   UNL     1      -0.315   9.778  20.753  0.00  0.00    +0.000 A 
ATOM     13  C   UNL     1       0.619   9.699  19.702  0.00  0.00    +0.000 A 
ATOM     14  C   UNL     1       3.302   8.318  17.484  0.00  0.00    +0.000 C 
ATOM     15  H   UNL     1       1.547  10.544  16.743  0.00  0.00    +0.000 HD
ENDBRANCH   1   2
BRANCH   1  16
ATOM     16  C   UNL     1       3.881   4.468  17.778  0.00  0.00    +0.000 A 
ATOM     17  C   UNL     1       2.908   3.609  17.241  0.00  0.00    +0.000 A 
ATOM     18  C   UNL     1       2.646   2.363  17.815  0.00  0.00    +0.000 A 
ATOM     19  C   UNL     1       3.344   1.956  18.947  0.00  0.00    +0.000 A 
ATOM     20  C   UNL     1       4.336   2.777  19.479  0.00  0.00    +0.000 A 
ATOM     21  C   UNL     1       4.620   4.012  18.885  0.00  0.00    +0.000 A 
ENDBRANCH   1  16
BRANCH   1  26
ATOM     22  N   UNL     1       6.360   5.619  15.912  0.00  0.00    +0.000 N 
ATOM     23  N   UNL     1       7.588   6.189  16.003  0.00  0.00    +0.000 NA
ATOM     24  N   UNL     1       7.558   6.984  17.045  0.00  0.00    +0.000 NA
ATOM     25  N   UNL     1       6.339   6.955  17.620  0.00  0.00    +0.000 NA
ATOM     26  C   UNL     1       5.552   6.160  16.906  0.00  0.00    +0.000 A 
BRANCH  22  28
ATOM     27  C   UNL     1       4.832   4.744  14.134  0.00  0.00    +0.000 C 
ATOM     28  C   UNL     1       6.191   4.574  14.888  0.00  0.00    +0.000 C 
ATOM     29  C   UNL     1       6.162   3.175  15.526  0.00  0.00    +0.000 C 
ATOM     30  C   UNL     1       7.271   4.657  13.807  0.00  0.00    +0.000 C 
ENDBRANCH  22  28
ENDBRANCH   1  26
TORSDOF 4
ENDMDL
MODEL 8
REMARK VINA RESULT:      -8.3      1.900      4.152
REMARK  Name = 
REMARK  7 active torsions:
REMARK  status: ('A' for Active; 'I' for Inactive)
REMARK    1  A    between atoms: C_1  and  C_2
REMARK    2  A    between atoms: C_2  and  C_3
REMARK    3  A    between atoms: C_2  and  C_4
REMARK    4  A    between atoms: C_2  and  N_5
REMARK    5  A    between atoms: C_9  and  C_10
REMARK    6  A    between atoms: C_10  and  C_11
REMARK    7  A    between atoms: C_10  and  N_17
REMARK                            x       y       z     vdW  Elec       q    Type
REMARK                         _______ _______ _______ _____ _____    ______ ____
ROOT
ATOM      1  C   UNL     1       3.366   5.932  19.356  0.00  0.00    +0.000 C 
ENDROOT
BRANCH   1   2
ATOM      2  N   UNL     1       2.772   7.296  19.560  0.00  0.00    +0.000 NA
ATOM      3  C   UNL     1       1.673   7.395  20.551  0.00  0.00    +0.000 C 
ATOM      4  C   UNL     1       1.506   8.862  21.006  0.00  0.00    +0.000 C 
ATOM      5  C   UNL     1       1.004   9.571  19.815  0.00  0.00    +0.000 A 
ATOM      6  C   UNL     1       1.436   9.166  18.566  0.00  0.00    +0.000 A 
ATOM      7  N   UNL     1       0.582   9.743  17.652  0.00  0.00    +0.000 N 
ATOM      8  C   UNL     1      -0.391  10.485  18.314  0.00  0.00    +0.000 A 
ATOM      9  C   UNL     1      -1.535  11.139  17.836  0.00  0.00    +0.000 A 
ATOM     10  C   UNL     1      -2.408  11.710  18.777  0.00  0.00    +0.000 A 
ATOM     11  C   UNL     1      -2.126  11.679  20.140  0.00  0.00    +0.000 A 
ATOM     12  C   UNL     1      -0.965  11.057  20.602  0.00  0.00    +0.000 A 
ATOM     13  C   UNL     1      -0.105  10.430  19.679  0.00  0.00    +0.000 A 
ATOM     14  C   UNL     1       2.487   8.092  18.323  0.00  0.00    +0.000 C 
ATOM     15  H   UNL     1       0.565   9.551  16.661  0.00  0.00    +0.000 HD
ENDBRANCH   1   2
BRANCH   1  16
ATOM     16  C   UNL     1       4.719   5.929  18.628  0.00  0.00    +0.000 A 
ATOM     17  C   UNL     1       5.888   5.471  19.259  0.00  0.00    +0.000 A 
ATOM     18  C   UNL     1       7.137   5.597  18.648  0.00  0.00    +0.000 A 
ATOM     19  C   UNL     1       7.245   6.194  17.397  0.00  0.00    +0.000 A 
ATOM     20  C   UNL     1       6.097   6.627  16.738  0.00  0.00    +0.000 A 
ATOM     21  C   UNL     1       4.841   6.473  17.336  0.00  0.00    +0.000 A 
ENDBRANCH   1  16
BRANCH   1  26
ATOM     22  N   UNL     1       2.046   3.639  19.022  0.00  0.00    +0.000 N 
ATOM     23  N   UNL     1       1.116   3.198  18.138  0.00  0.00    +0.000 NA
ATOM     24  N   UNL     1       0.948   4.156  17.258  0.00  0.00    +0.000 NA
ATOM     25  N   UNL     1       1.733   5.210  17.559  0.00  0.00    +0.000 NA
ATOM     26  C   UNL     1       2.386   4.944  18.684  0.00  0.00    +0.000 A 
BRANCH  22  28
ATOM     27  C   UNL     1       1.809   1.288  19.845  0.00  0.00    +0.000 C 
ATOM     28  C   UNL     1       2.504   2.675  20.036  0.00  0.00    +0.000 C 
ATOM     29  C   UNL     1       2.141   3.151  21.453  0.00  0.00    +0.000 C 
ATOM     30  C   UNL     1       4.005   2.400  19.923  0.00  0.00    +0.000 C 
ENDBRANCH  22  28
ENDBRANCH   1  26
TORSDOF 4
ENDMDL
MODEL 9
REMARK VINA RESULT:      -8.1      2.781      8.617
REMARK  Name = 
REMARK  7 active torsions:
REMARK  status: ('A' for Active; 'I' for Inactive)
REMARK    1  A    between atoms: C_1  and  C_2
REMARK    2  A    between atoms: C_2  and  C_3
REMARK    3  A    between atoms: C_2  and  C_4
REMARK    4  A    between atoms: C_2  and  N_5
REMARK    5  A    between atoms: C_9  and  C_10
REMARK    6  A    between atoms: C_10  and  C_11
REMARK    7  A    between atoms: C_10  and  N_17
REMARK                            x       y       z     vdW  Elec       q    Type
REMARK                         _______ _______ _______ _____ _____    ______ ____
ROOT
ATOM      1  C   UNL     1       0.707  10.897  19.852  0.00  0.00    +0.000 C 
ENDROOT
BRANCH   1   2
ATOM      2  N   UNL     1       1.527   9.665  19.604  0.00  0.00    +0.000 NA
ATOM      3  C   UNL     1       1.374   9.028  18.274  0.00  0.00    +0.000 C 
ATOM      4  C   UNL     1       2.585   8.114  17.985  0.00  0.00    +0.000 C 
ATOM      5  C   UNL     1       2.459   7.005  18.949  0.00  0.00    +0.000 A 
ATOM      6  C   UNL     1       1.935   7.268  20.202  0.00  0.00    +0.000 A 
ATOM      7  N   UNL     1       1.619   6.047  20.755  0.00  0.00    +0.000 N 
ATOM      8  C   UNL     1       1.916   5.027  19.856  0.00  0.00    +0.000 A 
ATOM      9  C   UNL     1       1.659   3.650  19.907  0.00  0.00    +0.000 A 
ATOM     10  C   UNL     1       1.973   2.880  18.776  0.00  0.00    +0.000 A 
ATOM     11  C   UNL     1       2.571   3.449  17.655  0.00  0.00    +0.000 A 
ATOM     12  C   UNL     1       2.857   4.814  17.629  0.00  0.00    +0.000 A 
ATOM     13  C   UNL     1       2.498   5.614  18.732  0.00  0.00    +0.000 A 
ATOM     14  C   UNL     1       1.566   8.654  20.709  0.00  0.00    +0.000 C 
ATOM     15  H   UNL     1       1.115   5.906  21.618  0.00  0.00    +0.000 HD
ENDBRANCH   1   2
BRANCH   1  16
ATOM     16  C   UNL     1       1.457  12.219  19.620  0.00  0.00    +0.000 A 
ATOM     17  C   UNL     1       1.686  12.712  18.324  0.00  0.00    +0.000 A 
ATOM     18  C   UNL     1       2.484  13.837  18.108  0.00  0.00    +0.000 A 
ATOM     19  C   UNL     1       3.080  14.486  19.185  0.00  0.00    +0.000 A 
ATOM     20  C   UNL     1       2.841  14.036  20.481  0.00  0.00    +0.000 A 
ATOM     21  C   UNL     1       2.016  12.927  20.699  0.00  0.00    +0.000 A 
ENDBRANCH   1  16
BRANCH   1  26
ATOM     22  N   UNL     1      -1.117  11.550  21.685  0.00  0.00    +0.000 N 
ATOM     23  N   UNL     1      -1.325  11.210  22.982  0.00  0.00    +0.000 NA
ATOM     24  N   UNL     1      -0.319  10.448  23.338  0.00  0.00    +0.000 NA
ATOM     25  N   UNL     1       0.524  10.273  22.301  0.00  0.00    +0.000 NA
ATOM     26  C   UNL     1       0.027  10.897  21.239  0.00  0.00    +0.000 A 
BRANCH  22  28
ATOM     27  C   UNL     1      -1.424  13.951  21.049  0.00  0.00    +0.000 C 
ATOM     28  C   UNL     1      -2.055  12.522  21.097  0.00  0.00    +0.000 C 
ATOM     29  C   UNL     1      -3.332  12.638  21.945  0.00  0.00    +0.000 C 
ATOM     30  C   UNL     1      -2.395  12.176  19.645  0.00  0.00    +0.000 C 
ENDBRANCH  22  28
ENDBRANCH   1  26
TORSDOF 4
ENDMDL
