MODEL 1
REMARK VINA RESULT:      -7.4      0.000      0.000
REMARK  Name = 
REMARK  7 active torsions:
REMARK  status: ('A' for Active; 'I' for Inactive)
REMARK    1  A    between atoms: C_1  and  C_2
REMARK    2  A    between atoms: C_2  and  C_3
REMARK    3  A    between atoms: C_2  and  C_4
REMARK    4  A    between atoms: C_2  and  C_5
REMARK    5  A    between atoms: C_8  and  C_9
REMARK    6  A    between atoms: C_9  and  N_10
REMARK    7  A    between atoms: C_14  and  C_15
REMARK                            x       y       z     vdW  Elec       q    Type
REMARK                         _______ _______ _______ _____ _____    ______ ____
ROOT
ATOM      1  C   UNL     1       4.179   6.502  18.643  0.00  0.00    +0.000 C 
ENDROOT
BRANCH   1   5
ATOM      2  C   UNL     1       0.927   9.374  18.987  0.00  0.00    +0.000 A 
ATOM      3  C   UNL     1       1.199   8.451  20.012  0.00  0.00    +0.000 A 
ATOM      4  C   UNL     1       2.227   7.514  19.899  0.00  0.00    +0.000 A 
ATOM      5  C   UNL     1       3.010   7.457  18.738  0.00  0.00    +0.000 A 
ATOM      6  C   UNL     1       2.697   8.309  17.677  0.00  0.00    +0.000 A 
ATOM      7  C   UNL     1       1.665   9.245  17.798  0.00  0.00    +0.000 A 
BRANCH   2   9
ATOM      8  C   UNL     1       0.433  11.875  18.807  0.00  0.00    +0.000 C 
ATOM      9  C   UNL     1      -0.133  10.478  19.165  0.00  0.00    +0.000 C 
ATOM     10  C   UNL     1      -0.605  10.496  20.630  0.00  0.00    +0.000 C 
ATOM     11  C   UNL     1      -1.364  10.266  18.252  0.00  0.00    +0.000 C 
ENDBRANCH   2   9
ENDBRANCH   1   5
BRANCH   1  12
ATOM     12  N   UNL     1       4.040   5.455  17.642  0.00  0.00    +0.000 N 
ATOM     13  C   UNL     1       4.879   5.447  16.455  0.00  0.00    +0.000 C 
ATOM     14  C   UNL     1       4.915   3.968  16.081  0.00  0.00    +0.000 C 
ATOM     15  N   UNL     1       4.103   3.240  17.081  0.00  0.00    +0.000 NA
ATOM     16  C   UNL     1       3.663   4.150  17.918  0.00  0.00    +0.000 C 
BRANCH  16  17
ATOM     17  C   UNL     1       2.819   3.713  19.070  0.00  0.00    +0.000 A 
ATOM     18  C   UNL     1       3.430   3.057  20.148  0.00  0.00    +0.000 A 
ATOM     19  C   UNL     1       2.671   2.638  21.242  0.00  0.00    +0.000 A 
ATOM     20  C   UNL     1       1.299   2.882  21.272  0.00  0.00    +0.000 A 
ATOM     21  C   UNL     1       0.682   3.517  20.197  0.00  0.00    +0.000 A 
ATOM     22  C   UNL     1       1.436   3.914  19.090  0.00  0.00    +0.000 A 
ENDBRANCH  16  17
ENDBRANCH   1  12
TORSDOF 4
ENDMDL
MODEL 2
REMARK VINA RESULT:      -7.4      0.138      1.398
REMARK  Name = 
REMARK  7 active torsions:
REMARK  status: ('A' for Active; 'I' for Inactive)
REMARK    1  A    between atoms: C_1  and  C_2
REMARK    2  A    between atoms: C_2  and  C_3
REMARK    3  A    between atoms: C_2  and  C_4
REMARK    4  A    between atoms: C_2  and  C_5
REMARK    5  A    between atoms: C_8  and  C_9
REMARK    6  A    between atoms: C_9  and  N_10
REMARK    7  A    between atoms: C_14  and  C_15
REMARK                            x       y       z     vdW  Elec       q    Type
REMARK                         _______ _______ _______ _____ _____    ______ ____
ROOT
ATOM      1  C   UNL     1       4.206   6.382  18.611  0.00  0.00    +0.000 C 
ENDROOT
BRANCH   1   5
ATOM      2  C   UNL     1       1.011   9.321  18.909  0.00  0.00    +0.000 A 
ATOM      3  C   UNL     1       1.244   8.388  19.935  0.00  0.00    +0.000 A 
ATOM      4  C   UNL     1       2.254   7.429  19.835  0.00  0.00    +0.000 A 
ATOM      5  C   UNL     1       3.056   7.360  18.688  0.00  0.00    +0.000 A 
ATOM      6  C   UNL     1       2.780   8.223  17.626  0.00  0.00    +0.000 A 
ATOM      7  C   UNL     1       1.766   9.180  17.732  0.00  0.00    +0.000 A 
BRANCH   2   9
ATOM      8  C   UNL     1      -0.606  10.484  20.510  0.00  0.00    +0.000 C 
ATOM      9  C   UNL     1      -0.029  10.446  19.073  0.00  0.00    +0.000 C 
ATOM     10  C   UNL     1      -1.184  10.217  18.082  0.00  0.00    +0.000 C 
ATOM     11  C   UNL     1       0.573  11.848  18.814  0.00  0.00    +0.000 C 
ENDBRANCH   2   9
ENDBRANCH   1   5
BRANCH   1  12
ATOM     12  N   UNL     1       4.039   5.310  17.640  0.00  0.00    +0.000 N 
ATOM     13  C   UNL     1       4.850   5.270  16.434  0.00  0.00    +0.000 C 
ATOM     14  C   UNL     1       4.871   3.781  16.095  0.00  0.00    +0.000 C 
ATOM     15  N   UNL     1       4.081   3.082  17.133  0.00  0.00    +0.000 NA
ATOM     16  C   UNL     1       3.664   4.014  17.957  0.00  0.00    +0.000 C 
BRANCH  16  17
ATOM     17  C   UNL     1       2.847   3.610  19.140  0.00  0.00    +0.000 A 
ATOM     18  C   UNL     1       1.466   3.849  19.123  0.00  0.00    +0.000 A 
ATOM     19  C   UNL     1       0.672   3.481  20.211  0.00  0.00    +0.000 A 
ATOM     20  C   UNL     1       1.251   2.861  21.317  0.00  0.00    +0.000 A 
ATOM     21  C   UNL     1       2.625   2.636  21.348  0.00  0.00    +0.000 A 
ATOM     22  C   UNL     1       3.424   3.027  20.271  0.00  0.00    +0.000 A 
ENDBRANCH  16  17
ENDBRANCH   1  12
TORSDOF 4
ENDMDL
MODEL 3
REMARK VINA RESULT:      -7.2      1.882      3.946
REMARK  Name = 
REMARK  7 active torsions:
REMARK  status: ('A' for Active; 'I' for Inactive)
REMARK    1  A    between atoms: C_1  and  C_2
REMARK    2  A    between atoms: C_2  and  C_3
REMARK    3  A    between atoms: C_2  and  C_4
REMARK    4  A    between atoms: C_2  and  C_5
REMARK    5  A    between atoms: C_8  and  C_9
REMARK    6  A    between atoms: C_9  and  N_10
REMARK    7  A    between atoms: C_14  and  C_15
REMARK                            x       y       z     vdW  Elec       q    Type
REMARK                         _______ _______ _______ _____ _____    ______ ____
ROOT
ATOM      1  C   UNL     1       2.743   5.607  18.079  0.00  0.00    +0.000 C 
ENDROOT
BRANCH   1   5
ATOM      2  C   UNL     1       1.154   9.268  19.812  0.00  0.00    +0.000 A 
ATOM      3  C   UNL     1       1.495   9.192  18.450  0.00  0.00    +0.000 A 
ATOM      4  C   UNL     1       2.025   8.026  17.893  0.00  0.00    +0.000 A 
ATOM      5  C   UNL     1       2.251   6.898  18.693  0.00  0.00    +0.000 A 
ATOM      6  C   UNL     1       1.998   6.986  20.063  0.00  0.00    +0.000 A 
ATOM      7  C   UNL     1       1.468   8.157  20.614  0.00  0.00    +0.000 A 
BRANCH   2   9
ATOM      8  C   UNL     1      -0.909  10.774  19.729  0.00  0.00    +0.000 C 
ATOM      9  C   UNL     1       0.465  10.517  20.395  0.00  0.00    +0.000 C 
ATOM     10  C   UNL     1       1.363  11.746  20.165  0.00  0.00    +0.000 C 
ATOM     11  C   UNL     1       0.189  10.385  21.913  0.00  0.00    +0.000 C 
ENDBRANCH   2   9
ENDBRANCH   1   5
BRANCH   1  12
ATOM     12  N   UNL     1       3.423   4.707  19.000  0.00  0.00    +0.000 N 
ATOM     13  C   UNL     1       2.769   3.500  19.477  0.00  0.00    +0.000 C 
ATOM     14  C   UNL     1       3.948   2.585  19.797  0.00  0.00    +0.000 C 
ATOM     15  N   UNL     1       5.185   3.330  19.475  0.00  0.00    +0.000 NA
ATOM     16  C   UNL     1       4.794   4.500  19.028  0.00  0.00    +0.000 C 
BRANCH  16  17
ATOM     17  C   UNL     1       5.831   5.483  18.594  0.00  0.00    +0.000 A 
ATOM     18  C   UNL     1       7.025   5.574  19.322  0.00  0.00    +0.000 A 
ATOM     19  C   UNL     1       8.017   6.481  18.942  0.00  0.00    +0.000 A 
ATOM     20  C   UNL     1       7.827   7.292  17.824  0.00  0.00    +0.000 A 
ATOM     21  C   UNL     1       6.635   7.220  17.106  0.00  0.00    +0.000 A 
ATOM     22  C   UNL     1       5.632   6.332  17.502  0.00  0.00    +0.000 A 
ENDBRANCH  16  17
ENDBRANCH   1  12
TORSDOF 4
ENDMDL
MODEL 4
REMARK VINA RESULT:      -7.2      1.268      3.562
REMARK  Name = 
REMARK  7 active torsions:
REMARK  status: ('A' for Active; 'I' for Inactive)
REMARK    1  A    between atoms: C_1  and  C_2
REMARK    2  A    between atoms: C_2  and  C_3
REMARK    3  A    between atoms: C_2  and  C_4
REMARK    4  A    between atoms: C_2  and  C_5
REMARK    5  A    between atoms: C_8  and  C_9
REMARK    6  A    between atoms: C_9  and  N_10
REMARK    7  A    between atoms: C_14  and  C_15
REMARK                            x       y       z     vdW  Elec       q    Type
REMARK                         _______ _______ _______ _____ _____    ______ ____
ROOT
ATOM      1  C   UNL     1       3.572   5.892  19.440  0.00  0.00    +0.000 C 
ENDROOT
BRANCH   1   5
ATOM      2  C   UNL     1       0.980   9.380  19.209  0.00  0.00    +0.000 A 
ATOM      3  C   UNL     1       1.103   8.637  20.397  0.00  0.00    +0.000 A 
ATOM      4  C   UNL     1       1.916   7.505  20.470  0.00  0.00    +0.000 A 
ATOM      5  C   UNL     1       2.623   7.065  19.344  0.00  0.00    +0.000 A 
ATOM      6  C   UNL     1       2.445   7.741  18.135  0.00  0.00    +0.000 A 
ATOM      7  C   UNL     1       1.627   8.874  18.068  0.00  0.00    +0.000 A 
BRANCH   2   9
ATOM      8  C   UNL     1       1.048  11.887  18.719  0.00  0.00    +0.000 C 
ATOM      9  C   UNL     1       0.172  10.690  19.165  0.00  0.00    +0.000 C 
ATOM     10  C   UNL     1      -0.392  10.986  20.566  0.00  0.00    +0.000 C 
ATOM     11  C   UNL     1      -1.007  10.624  18.163  0.00  0.00    +0.000 C 
ENDBRANCH   2   9
ENDBRANCH   1   5
BRANCH   1  12
ATOM     12  N   UNL     1       3.058   4.638  18.907  0.00  0.00    +0.000 N 
ATOM     13  C   UNL     1       1.707   4.199  19.218  0.00  0.00    +0.000 C 
ATOM     14  C   UNL     1       1.358   3.320  18.020  0.00  0.00    +0.000 C 
ATOM     15  N   UNL     1       2.527   3.327  17.112  0.00  0.00    +0.000 NA
ATOM     16  C   UNL     1       3.422   4.096  17.684  0.00  0.00    +0.000 C 
BRANCH  16  17
ATOM     17  C   UNL     1       4.723   4.321  16.986  0.00  0.00    +0.000 A 
ATOM     18  C   UNL     1       4.727   4.466  15.592  0.00  0.00    +0.000 A 
ATOM     19  C   UNL     1       5.925   4.681  14.908  0.00  0.00    +0.000 A 
ATOM     20  C   UNL     1       7.125   4.763  15.613  0.00  0.00    +0.000 A 
ATOM     21  C   UNL     1       7.131   4.602  16.997  0.00  0.00    +0.000 A 
ATOM     22  C   UNL     1       5.935   4.362  17.679  0.00  0.00    +0.000 A 
ENDBRANCH  16  17
ENDBRANCH   1  12
TORSDOF 4
ENDMDL
MODEL 5
REMARK VINA RESULT:      -7.1      1.837      3.951
REMARK  Name = 
REMARK  7 active torsions:
REMARK  status: ('A' for Active; 'I' for Inactive)
REMARK    1  A    between atoms: C_1  and  C_2
REMARK    2  A    between atoms: C_2  and  C_3
REMARK    3  A    between atoms: C_2  and  C_4
REMARK    4  A    between atoms: C_2  and  C_5
REMARK    5  A    between atoms: C_8  and  C_9
REMARK    6  A    between atoms: C_9  and  N_10
REMARK    7  A    between atoms: C_14  and  C_15
REMARK                            x       y       z     vdW  Elec       q    Type
REMARK                         _______ _______ _______ _____ _____    ______ ____
ROOT
ATOM      1  C   UNL     1       2.771   5.258  18.121  0.00  0.00    +0.000 C 
ENDROOT
BRANCH   1   5
ATOM      2  C   UNL     1       1.296   9.129  19.455  0.00  0.00    +0.000 A 
ATOM      3  C   UNL     1       1.688   8.916  18.122  0.00  0.00    +0.000 A 
ATOM      4  C   UNL     1       2.181   7.682  17.693  0.00  0.00    +0.000 A 
ATOM      5  C   UNL     1       2.319   6.621  18.597  0.00  0.00    +0.000 A 
ATOM      6  C   UNL     1       2.015   6.842  19.942  0.00  0.00    +0.000 A 
ATOM      7  C   UNL     1       1.522   8.081  20.364  0.00  0.00    +0.000 A 
BRANCH   2   9
ATOM      8  C   UNL     1       1.314  11.672  19.207  0.00  0.00    +0.000 C 
ATOM      9  C   UNL     1       0.647  10.455  19.896  0.00  0.00    +0.000 C 
ATOM     10  C   UNL     1       0.791  10.609  21.420  0.00  0.00    +0.000 C 
ATOM     11  C   UNL     1      -0.856  10.526  19.532  0.00  0.00    +0.000 C 
ENDBRANCH   2   9
ENDBRANCH   1   5
BRANCH   1  12
ATOM     12  N   UNL     1       3.477   4.462  19.115  0.00  0.00    +0.000 N 
ATOM     13  C   UNL     1       2.864   3.274  19.685  0.00  0.00    +0.000 C 
ATOM     14  C   UNL     1       4.074   2.432  20.083  0.00  0.00    +0.000 C 
ATOM     15  N   UNL     1       5.285   3.195  19.706  0.00  0.00    +0.000 NA
ATOM     16  C   UNL     1       4.854   4.310  19.165  0.00  0.00    +0.000 C 
BRANCH  16  17
ATOM     17  C   UNL     1       5.857   5.292  18.656  0.00  0.00    +0.000 A 
ATOM     18  C   UNL     1       5.600   5.962  17.452  0.00  0.00    +0.000 A 
ATOM     19  C   UNL     1       6.515   6.889  16.950  0.00  0.00    +0.000 A 
ATOM     20  C   UNL     1       7.688   7.161  17.653  0.00  0.00    +0.000 A 
ATOM     21  C   UNL     1       7.959   6.486  18.841  0.00  0.00    +0.000 A 
ATOM     22  C   UNL     1       7.055   5.540  19.332  0.00  0.00    +0.000 A 
ENDBRANCH  16  17
ENDBRANCH   1  12
TORSDOF 4
ENDMDL
MODEL 6
REMARK VINA RESULT:      -7.1      1.277      3.563
REMARK  Name = 
REMARK  7 active torsions:
REMARK  status: ('A' for Active; 'I' for Inactive)
REMARK    1  A    between atoms: C_1  and  C_2
REMARK    2  A    between atoms: C_2  and  C_3
REMARK    3  A    between atoms: C_2  and  C_4
REMARK    4  A    between atoms: C_2  and  C_5
REMARK    5  A    between atoms: C_8  and  C_9
REMARK    6  A    between atoms: C_9  and  N_10
REMARK    7  A    between atoms: C_14  and  C_15
REMARK                            x       y       z     vdW  Elec       q    Type
REMARK                         _______ _______ _______ _____ _____    ______ ____
ROOT
ATOM      1  C   UNL     1       3.597   6.090  19.271  0.00  0.00    +0.000 C 
ENDROOT
BRANCH   1   5
ATOM      2  C   UNL     1       0.869   9.479  19.159  0.00  0.00    +0.000 A 
ATOM      3  C   UNL     1       1.057   8.730  20.334  0.00  0.00    +0.000 A 
ATOM      4  C   UNL     1       1.915   7.629  20.370  0.00  0.00    +0.000 A 
ATOM      5  C   UNL     1       2.602   7.228  19.217  0.00  0.00    +0.000 A 
ATOM      6  C   UNL     1       2.360   7.908  18.022  0.00  0.00    +0.000 A 
ATOM      7  C   UNL     1       1.499   9.010  17.993  0.00  0.00    +0.000 A 
BRANCH   2   9
ATOM      8  C   UNL     1      -1.168  10.651  18.155  0.00  0.00    +0.000 C 
ATOM      9  C   UNL     1       0.011  10.758  19.155  0.00  0.00    +0.000 C 
ATOM     10  C   UNL     1       0.889  11.958  18.756  0.00  0.00    +0.000 C 
ATOM     11  C   UNL     1      -0.623  11.048  20.537  0.00  0.00    +0.000 C 
ENDBRANCH   2   9
ENDBRANCH   1   5
BRANCH   1  12
ATOM     12  N   UNL     1       3.086   4.803  18.824  0.00  0.00    +0.000 N 
ATOM     13  C   UNL     1       1.744   4.372  19.183  0.00  0.00    +0.000 C 
ATOM     14  C   UNL     1       1.384   3.419  18.047  0.00  0.00    +0.000 C 
ATOM     15  N   UNL     1       2.538   3.380  17.120  0.00  0.00    +0.000 NA
ATOM     16  C   UNL     1       3.435   4.190  17.631  0.00  0.00    +0.000 C 
BRANCH  16  17
ATOM     17  C   UNL     1       4.723   4.383  16.898  0.00  0.00    +0.000 A 
ATOM     18  C   UNL     1       5.922   4.377  17.624  0.00  0.00    +0.000 A 
ATOM     19  C   UNL     1       7.143   4.552  16.970  0.00  0.00    +0.000 A 
ATOM     20  C   UNL     1       7.175   4.720  15.587  0.00  0.00    +0.000 A 
ATOM     21  C   UNL     1       5.986   4.745  14.861  0.00  0.00    +0.000 A 
ATOM     22  C   UNL     1       4.762   4.596  15.518  0.00  0.00    +0.000 A 
ENDBRANCH  16  17
ENDBRANCH   1  12
TORSDOF 4
ENDMDL
MODEL 7
REMARK VINA RESULT:      -7.1      1.295      3.519
REMARK  Name = 
REMARK  7 active torsions:
REMARK  status: ('A' for Active; 'I' for Inactive)
REMARK    1  A    between atoms: C_1  and  C_2
REMARK    2  A    between atoms: C_2  and  C_3
REMARK    3  A    between atoms: C_2  and  C_4
REMARK    4  A    between atoms: C_2  and  C_5
REMARK    5  A    between atoms: C_8  and  C_9
REMARK    6  A    between atoms: C_9  and  N_10
REMARK    7  A    between atoms: C_14  and  C_15
REMARK                            x       y       z     vdW  Elec       q    Type
REMARK                         _______ _______ _______ _____ _____    ______ ____
ROOT
ATOM      1  C   UNL     1       3.462   5.565  19.753  0.00  0.00    +0.000 C 
ENDROOT
BRANCH   1   5
ATOM      2  C   UNL     1       1.129   9.211  19.301  0.00  0.00    +0.000 A 
ATOM      3  C   UNL     1       1.096   8.464  20.493  0.00  0.00    +0.000 A 
ATOM      4  C   UNL     1       1.826   7.283  20.636  0.00  0.00    +0.000 A 
ATOM      5  C   UNL     1       2.602   6.796  19.575  0.00  0.00    +0.000 A 
ATOM      6  C   UNL     1       2.577   7.480  18.358  0.00  0.00    +0.000 A 
ATOM      7  C   UNL     1       1.842   8.662  18.222  0.00  0.00    +0.000 A 
BRANCH   2   9
ATOM      8  C   UNL     1      -0.153  11.030  20.557  0.00  0.00    +0.000 C 
ATOM      9  C   UNL     1       0.412  10.570  19.190  0.00  0.00    +0.000 C 
ATOM     10  C   UNL     1      -0.752  10.449  18.190  0.00  0.00    +0.000 C 
ATOM     11  C   UNL     1       1.358  11.699  18.713  0.00  0.00    +0.000 C 
ENDBRANCH   2   9
ENDBRANCH   1   5
BRANCH   1  12
ATOM     12  N   UNL     1       2.960   4.364  19.101  0.00  0.00    +0.000 N 
ATOM     13  C   UNL     1       1.607   3.895  19.352  0.00  0.00    +0.000 C 
ATOM     14  C   UNL     1       1.277   3.127  18.075  0.00  0.00    +0.000 C 
ATOM     15  N   UNL     1       2.459   3.219  17.188  0.00  0.00    +0.000 NA
ATOM     16  C   UNL     1       3.343   3.935  17.840  0.00  0.00    +0.000 C 
BRANCH  16  17
ATOM     17  C   UNL     1       4.653   4.225  17.184  0.00  0.00    +0.000 A 
ATOM     18  C   UNL     1       5.797   4.360  17.983  0.00  0.00    +0.000 A 
ATOM     19  C   UNL     1       7.037   4.628  17.401  0.00  0.00    +0.000 A 
ATOM     20  C   UNL     1       7.145   4.752  16.017  0.00  0.00    +0.000 A 
ATOM     21  C   UNL     1       6.010   4.637  15.218  0.00  0.00    +0.000 A 
ATOM     22  C   UNL     1       4.764   4.394  15.801  0.00  0.00    +0.000 A 
ENDBRANCH  16  17
ENDBRANCH   1  12
TORSDOF 4
ENDMDL
MODEL 8
REMARK VINA RESULT:      -7.1      1.198      1.551
REMARK  Name = 
REMARK  7 active torsions:
REMARK  status: ('A' for Active; 'I' for Inactive)
REMARK    1  A    between atoms: C_1  and  C_2
REMARK    2  A    between atoms: C_2  and  C_3
REMARK    3  A    between atoms: C_2  and  C_4
REMARK    4  A    between atoms: C_2  and  C_5
REMARK    5  A    between atoms: C_8  and  C_9
REMARK    6  A    between atoms: C_9  and  N_10
REMARK    7  A    between atoms: C_14  and  C_15
REMARK                            x       y       z     vdW  Elec       q    Type
REMARK                         _______ _______ _______ _____ _____    ______ ____
ROOT
ATOM      1  C   UNL     1       4.088   6.563  18.542  0.00  0.00    +0.000 C 
ENDROOT
BRANCH   1   5
ATOM      2  C   UNL     1       0.884   9.470  19.007  0.00  0.00    +0.000 A 
ATOM      3  C   UNL     1       1.185   8.544  20.023  0.00  0.00    +0.000 A 
ATOM      4  C   UNL     1       2.198   7.596  19.871  0.00  0.00    +0.000 A 
ATOM      5  C   UNL     1       2.934   7.530  18.680  0.00  0.00    +0.000 A 
ATOM      6  C   UNL     1       2.590   8.384  17.631  0.00  0.00    +0.000 A 
ATOM      7  C   UNL     1       1.573   9.331  17.790  0.00  0.00    +0.000 A 
BRANCH   2   9
ATOM      8  C   UNL     1      -0.604  10.666  20.706  0.00  0.00    +0.000 C 
ATOM      9  C   UNL     1      -0.157  10.585  19.225  0.00  0.00    +0.000 C 
ATOM     10  C   UNL     1      -1.392  10.304  18.350  0.00  0.00    +0.000 C 
ATOM     11  C   UNL     1       0.395  11.986  18.865  0.00  0.00    +0.000 C 
ENDBRANCH   2   9
ENDBRANCH   1   5
BRANCH   1  12
ATOM     12  N   UNL     1       4.263   5.997  17.212  0.00  0.00    +0.000 N 
ATOM     13  C   UNL     1       5.250   6.546  16.297  0.00  0.00    +0.000 C 
ATOM     14  C   UNL     1       5.577   5.351  15.404  0.00  0.00    +0.000 C 
ATOM     15  N   UNL     1       4.762   4.210  15.877  0.00  0.00    +0.000 NA
ATOM     16  C   UNL     1       4.067   4.662  16.894  0.00  0.00    +0.000 C 
BRANCH  16  17
ATOM     17  C   UNL     1       3.152   3.723  17.609  0.00  0.00    +0.000 A 
ATOM     18  C   UNL     1       3.663   2.505  18.078  0.00  0.00    +0.000 A 
ATOM     19  C   UNL     1       2.836   1.605  18.753  0.00  0.00    +0.000 A 
ATOM     20  C   UNL     1       1.496   1.921  18.974  0.00  0.00    +0.000 A 
ATOM     21  C   UNL     1       0.977   3.122  18.495  0.00  0.00    +0.000 A 
ATOM     22  C   UNL     1       1.798   4.011  17.797  0.00  0.00    +0.000 A 
ENDBRANCH  16  17
ENDBRANCH   1  12
TORSDOF 4
ENDMDL
MODEL 9
REMARK VINA RESULT:      -7.0      1.195      1.593
REMARK  Name = 
REMARK  7 active torsions:
REMARK  status: ('A' for Active; 'I' for Inactive)
REMARK    1  A    between atoms: C_1  and  C_2
REMARK    2  A    between atoms: C_2  and  C_3
REMARK    3  A    between atoms: C_2  and  C_4
REMARK    4  A    between atoms: C_2  and  C_5
REMARK    5  A    between atoms: C_8  and  C_9
REMARK    6  A    between atoms: C_9  and  N_10
REMARK    7  A    between atoms: C_14  and  C_15
REMARK                            x       y       z     vdW  Elec       q    Type
REMARK                         _______ _______ _______ _____ _____    ______ ____
ROOT
ATOM      1  C   UNL     1       4.134   6.550  18.522  0.00  0.00    +0.000 C 
ENDROOT
BRANCH   1   5
ATOM      2  C   UNL     1       0.903   9.423  19.018  0.00  0.00    +0.000 A 
ATOM      3  C   UNL     1       1.216   8.493  20.026  0.00  0.00    +0.000 A 
ATOM      4  C   UNL     1       2.238   7.555  19.863  0.00  0.00    +0.000 A 
ATOM      5  C   UNL     1       2.971   7.505  18.671  0.00  0.00    +0.000 A 
ATOM      6  C   UNL     1       2.615   8.364  17.629  0.00  0.00    +0.000 A 
ATOM      7  C   UNL     1       1.590   9.300  17.799  0.00  0.00    +0.000 A 
BRANCH   2   9
ATOM      8  C   UNL     1       0.402  11.924  18.871  0.00  0.00    +0.000 C 
ATOM      9  C   UNL     1      -0.148  10.526  19.247  0.00  0.00    +0.000 C 
ATOM     10  C   UNL     1      -0.555  10.539  20.732  0.00  0.00    +0.000 C 
ATOM     11  C   UNL     1      -1.419  10.319  18.388  0.00  0.00    +0.000 C 
ENDBRANCH   2   9
ENDBRANCH   1   5
BRANCH   1  12
ATOM     12  N   UNL     1       4.298   5.982  17.192  0.00  0.00    +0.000 N 
ATOM     13  C   UNL     1       5.278   6.528  16.267  0.00  0.00    +0.000 C 
ATOM     14  C   UNL     1       5.599   5.332  15.375  0.00  0.00    +0.000 C 
ATOM     15  N   UNL     1       4.787   4.192  15.857  0.00  0.00    +0.000 NA
ATOM     16  C   UNL     1       4.101   4.646  16.879  0.00  0.00    +0.000 C 
BRANCH  16  17
ATOM     17  C   UNL     1       3.192   3.708  17.603  0.00  0.00    +0.000 A 
ATOM     18  C   UNL     1       1.841   4.051  17.749  0.00  0.00    +0.000 A 
ATOM     19  C   UNL     1       0.963   3.195  18.418  0.00  0.00    +0.000 A 
ATOM     20  C   UNL     1       1.427   1.987  18.935  0.00  0.00    +0.000 A 
ATOM     21  C   UNL     1       2.773   1.647  18.809  0.00  0.00    +0.000 A 
ATOM     22  C   UNL     1       3.657   2.515  18.162  0.00  0.00    +0.000 A 
ENDBRANCH  16  17
ENDBRANCH   1  12
TORSDOF 4
ENDMDL
