MODEL 1
REMARK VINA RESULT:      -7.9      0.000      0.000
REMARK  Name = 
REMARK  9 active torsions:
REMARK  status: ('A' for Active; 'I' for Inactive)
REMARK    1  A    between atoms: C_1  and  O_2
REMARK    2  A    between atoms: O_2  and  C_3
REMARK    3  A    between atoms: C_3  and  C_4
REMARK    4  A    between atoms: C_4  and  N_5
REMARK    5  A    between atoms: C_6  and  C_7
REMARK    6  A    between atoms: C_9  and  C_10
REMARK    7  A    between atoms: C_10  and  C_12
REMARK    8  A    between atoms: C_12  and  N_13
REMARK    9  A    between atoms: C_26  and  C_27
REMARK                            x       y       z     vdW  Elec       q    Type
REMARK                         _______ _______ _______ _____ _____    ______ ____
ROOT
ATOM      1  C   UNL     1       2.410   5.812  19.712  0.00  0.00    +0.000 C 
ENDROOT
BRANCH   1   2
ATOM      2  N   UNL     1       3.237   5.129  18.745  0.00  0.00    +0.000 N 
ATOM      3  C   UNL     1       2.833   4.404  17.666  0.00  0.00    +0.000 C 
ATOM      4  O   UNL     1       1.730   3.964  17.423  0.00  0.00    +0.000 OA
ATOM      5  N   UNL     1       3.954   4.213  16.861  0.00  0.00    +0.000 N 
ATOM      6  C   UNL     1       5.093   5.010  17.316  0.00  0.00    +0.000 C 
ATOM      7  C   UNL     1       5.092   6.367  16.567  0.00  0.00    +0.000 C 
ATOM      8  C   UNL     1       5.960   7.458  17.187  0.00  0.00    +0.000 C 
ATOM      9  C   UNL     1       7.447   7.138  17.308  0.00  0.00    +0.000 C 
ATOM     10  C   UNL     1       7.779   6.126  18.398  0.00  0.00    +0.000 C 
ATOM     11  C   UNL     1       7.565   4.654  18.050  0.00  0.00    +0.000 C 
ATOM     12  C   UNL     1       6.419   4.290  17.103  0.00  0.00    +0.000 C 
ATOM     13  C   UNL     1       4.595   5.209  18.762  0.00  0.00    +0.000 C 
ATOM     14  O   UNL     1       5.245   5.513  19.747  0.00  0.00    +0.000 OA
ATOM     15  H   UNL     1       3.839   3.808  15.943  0.00  0.00    +0.000 HD
ENDBRANCH   1   2
BRANCH   1  16
ATOM     16  C   UNL     1       2.154   7.211  19.135  0.00  0.00    +0.000 C 
ATOM     17  O   UNL     1       2.505   7.473  17.980  0.00  0.00    +0.000 OA
BRANCH  16  22
ATOM     18  N   UNL     1       0.455  10.115  20.671  0.00  0.00    +0.000 N 
ATOM     19  C   UNL     1       0.596   9.284  21.774  0.00  0.00    +0.000 A 
ATOM     20  C   UNL     1       0.064   9.401  23.163  0.00  0.00    +0.000 C 
ATOM     21  C   UNL     1       1.337   8.188  21.373  0.00  0.00    +0.000 A 
ATOM     22  C   UNL     1       1.558   8.257  19.982  0.00  0.00    +0.000 A 
ATOM     23  C   UNL     1       1.082   9.503  19.578  0.00  0.00    +0.000 A 
ATOM     24  C   UNL     1       1.156  10.161  18.231  0.00  0.00    +0.000 C 
BRANCH  18  25
ATOM     25  C   UNL     1      -0.278  11.379  20.531  0.00  0.00    +0.000 C 
BRANCH  25  26
ATOM     26  C   UNL     1       0.378  12.593  21.158  0.00  0.00    +0.000 C 
BRANCH  26  28
ATOM     27  C   UNL     1       2.270  13.906  20.919  0.00  0.00    +0.000 C 
ATOM     28  O   UNL     1       1.806  12.571  21.155  0.00  0.00    +0.000 OA
ENDBRANCH  26  28
ENDBRANCH  25  26
ENDBRANCH  18  25
ENDBRANCH  16  22
ENDBRANCH   1  16
TORSDOF 6
ENDMDL
MODEL 2
REMARK VINA RESULT:      -7.9      1.077      1.518
REMARK  Name = 
REMARK  9 active torsions:
REMARK  status: ('A' for Active; 'I' for Inactive)
REMARK    1  A    between atoms: C_1  and  O_2
REMARK    2  A    between atoms: O_2  and  C_3
REMARK    3  A    between atoms: C_3  and  C_4
REMARK    4  A    between atoms: C_4  and  N_5
REMARK    5  A    between atoms: C_6  and  C_7
REMARK    6  A    between atoms: C_9  and  C_10
REMARK    7  A    between atoms: C_10  and  C_12
REMARK    8  A    between atoms: C_12  and  N_13
REMARK    9  A    between atoms: C_26  and  C_27
REMARK                            x       y       z     vdW  Elec       q    Type
REMARK                         _______ _______ _______ _____ _____    ______ ____
ROOT
ATOM      1  C   UNL     1       2.442   5.679  19.606  0.00  0.00    +0.000 C 
ENDROOT
BRANCH   1   2
ATOM      2  N   UNL     1       3.323   5.016  18.673  0.00  0.00    +0.000 N 
ATOM      3  C   UNL     1       2.979   4.264  17.592  0.00  0.00    +0.000 C 
ATOM      4  O   UNL     1       1.900   3.781  17.322  0.00  0.00    +0.000 OA
ATOM      5  N   UNL     1       4.130   4.104  16.824  0.00  0.00    +0.000 N 
ATOM      6  C   UNL     1       5.224   4.948  17.303  0.00  0.00    +0.000 C 
ATOM      7  C   UNL     1       5.197   6.295  16.536  0.00  0.00    +0.000 C 
ATOM      8  C   UNL     1       6.006   7.424  17.168  0.00  0.00    +0.000 C 
ATOM      9  C   UNL     1       7.500   7.160  17.338  0.00  0.00    +0.000 C 
ATOM     10  C   UNL     1       7.834   6.174  18.450  0.00  0.00    +0.000 C 
ATOM     11  C   UNL     1       7.684   4.691  18.116  0.00  0.00    +0.000 C 
ATOM     12  C   UNL     1       6.581   4.274  17.139  0.00  0.00    +0.000 C 
ATOM     13  C   UNL     1       4.676   5.145  18.730  0.00  0.00    +0.000 C 
ATOM     14  O   UNL     1       5.284   5.485  19.731  0.00  0.00    +0.000 OA
ATOM     15  H   UNL     1       4.058   3.685  15.909  0.00  0.00    +0.000 HD
ENDBRANCH   1   2
BRANCH   1  16
ATOM     16  C   UNL     1       2.146   7.058  18.999  0.00  0.00    +0.000 C 
ATOM     17  O   UNL     1       2.394   7.271  17.808  0.00  0.00    +0.000 OA
BRANCH  16  22
ATOM     18  N   UNL     1       0.740  10.105  20.554  0.00  0.00    +0.000 N 
ATOM     19  C   UNL     1       0.693   9.222  21.625  0.00  0.00    +0.000 A 
ATOM     20  C   UNL     1       0.085   9.358  22.980  0.00  0.00    +0.000 C 
ATOM     21  C   UNL     1       1.309   8.052  21.222  0.00  0.00    +0.000 A 
ATOM     22  C   UNL     1       1.634   8.142  19.853  0.00  0.00    +0.000 A 
ATOM     23  C   UNL     1       1.357   9.455  19.477  0.00  0.00    +0.000 A 
ATOM     24  C   UNL     1       1.610  10.146  18.169  0.00  0.00    +0.000 C 
BRANCH  18  25
ATOM     25  C   UNL     1       0.191  11.460  20.426  0.00  0.00    +0.000 C 
BRANCH  25  26
ATOM     26  C   UNL     1      -1.267  11.544  20.024  0.00  0.00    +0.000 C 
BRANCH  26  28
ATOM     27  C   UNL     1      -2.215  10.751  18.066  0.00  0.00    +0.000 C 
ATOM     28  O   UNL     1      -1.492  11.844  18.645  0.00  0.00    +0.000 OA
ENDBRANCH  26  28
ENDBRANCH  25  26
ENDBRANCH  18  25
ENDBRANCH  16  22
ENDBRANCH   1  16
TORSDOF 6
ENDMDL
MODEL 3
REMARK VINA RESULT:      -7.9      1.448      1.718
REMARK  Name = 
REMARK  9 active torsions:
REMARK  status: ('A' for Active; 'I' for Inactive)
REMARK    1  A    between atoms: C_1  and  O_2
REMARK    2  A    between atoms: O_2  and  C_3
REMARK    3  A    between atoms: C_3  and  C_4
REMARK    4  A    between atoms: C_4  and  N_5
REMARK    5  A    between atoms: C_6  and  C_7
REMARK    6  A    between atoms: C_9  and  C_10
REMARK    7  A    between atoms: C_10  and  C_12
REMARK    8  A    between atoms: C_12  and  N_13
REMARK    9  A    between atoms: C_26  and  C_27
REMARK                            x       y       z     vdW  Elec       q    Type
REMARK                         _______ _______ _______ _____ _____    ______ ____
ROOT
ATOM      1  C   UNL     1       2.921   4.549  19.790  0.00  0.00    +0.000 C 
ENDROOT
BRANCH   1   2
ATOM      2  N   UNL     1       4.018   4.121  18.955  0.00  0.00    +0.000 N 
ATOM      3  C   UNL     1       4.013   3.147  18.004  0.00  0.00    +0.000 C 
ATOM      4  O   UNL     1       3.193   2.272  17.826  0.00  0.00    +0.000 OA
ATOM      5  N   UNL     1       5.175   3.305  17.252  0.00  0.00    +0.000 N 
ATOM      6  C   UNL     1       5.872   4.548  17.582  0.00  0.00    +0.000 C 
ATOM      7  C   UNL     1       5.392   5.667  16.622  0.00  0.00    +0.000 C 
ATOM      8  C   UNL     1       5.714   7.091  17.065  0.00  0.00    +0.000 C 
ATOM      9  C   UNL     1       7.193   7.414  17.251  0.00  0.00    +0.000 C 
ATOM     10  C   UNL     1       7.814   6.790  18.494  0.00  0.00    +0.000 C 
ATOM     11  C   UNL     1       8.223   5.321  18.389  0.00  0.00    +0.000 C 
ATOM     12  C   UNL     1       7.386   4.395  17.502  0.00  0.00    +0.000 C 
ATOM     13  C   UNL     1       5.231   4.739  18.971  0.00  0.00    +0.000 C 
ATOM     14  O   UNL     1       5.634   5.417  19.900  0.00  0.00    +0.000 OA
ATOM     15  H   UNL     1       5.297   2.759  16.412  0.00  0.00    +0.000 HD
ENDBRANCH   1   2
BRANCH   1  16
ATOM     16  C   UNL     1       2.179   5.630  18.991  0.00  0.00    +0.000 C 
ATOM     17  O   UNL     1       1.885   5.427  17.809  0.00  0.00    +0.000 OA
BRANCH  16  22
ATOM     18  N   UNL     1       1.406   9.128  19.911  0.00  0.00    +0.000 N 
ATOM     19  C   UNL     1       1.146   8.480  21.111  0.00  0.00    +0.000 A 
ATOM     20  C   UNL     1       0.545   8.980  22.382  0.00  0.00    +0.000 C 
ATOM     21  C   UNL     1       1.513   7.157  20.954  0.00  0.00    +0.000 A 
ATOM     22  C   UNL     1       1.885   6.931  19.613  0.00  0.00    +0.000 A 
ATOM     23  C   UNL     1       1.900   8.183  19.001  0.00  0.00    +0.000 A 
ATOM     24  C   UNL     1       2.327   8.561  17.613  0.00  0.00    +0.000 C 
BRANCH  18  25
ATOM     25  C   UNL     1       1.158  10.520  19.518  0.00  0.00    +0.000 C 
BRANCH  25  26
ATOM     26  C   UNL     1      -0.276  10.859  19.166  0.00  0.00    +0.000 C 
BRANCH  26  28
ATOM     27  C   UNL     1      -1.463  11.946  20.829  0.00  0.00    +0.000 C 
ATOM     28  O   UNL     1      -0.718  12.139  19.620  0.00  0.00    +0.000 OA
ENDBRANCH  26  28
ENDBRANCH  25  26
ENDBRANCH  18  25
ENDBRANCH  16  22
ENDBRANCH   1  16
TORSDOF 6
ENDMDL
MODEL 4
REMARK VINA RESULT:      -7.5      1.921      2.547
REMARK  Name = 
REMARK  9 active torsions:
REMARK  status: ('A' for Active; 'I' for Inactive)
REMARK    1  A    between atoms: C_1  and  O_2
REMARK    2  A    between atoms: O_2  and  C_3
REMARK    3  A    between atoms: C_3  and  C_4
REMARK    4  A    between atoms: C_4  and  N_5
REMARK    5  A    between atoms: C_6  and  C_7
REMARK    6  A    between atoms: C_9  and  C_10
REMARK    7  A    between atoms: C_10  and  C_12
REMARK    8  A    between atoms: C_12  and  N_13
REMARK    9  A    between atoms: C_26  and  C_27
REMARK                            x       y       z     vdW  Elec       q    Type
REMARK                         _______ _______ _______ _____ _____    ______ ____
ROOT
ATOM      1  C   UNL     1       2.253   5.355  18.861  0.00  0.00    +0.000 C 
ENDROOT
BRANCH   1   2
ATOM      2  N   UNL     1       3.561   4.750  18.937  0.00  0.00    +0.000 N 
ATOM      3  C   UNL     1       3.867   3.460  19.243  0.00  0.00    +0.000 C 
ATOM      4  O   UNL     1       3.161   2.619  19.756  0.00  0.00    +0.000 OA
ATOM      5  N   UNL     1       5.199   3.260  18.884  0.00  0.00    +0.000 N 
ATOM      6  C   UNL     1       5.733   4.391  18.127  0.00  0.00    +0.000 C 
ATOM      7  C   UNL     1       5.541   4.122  16.613  0.00  0.00    +0.000 C 
ATOM      8  C   UNL     1       5.680   5.343  15.708  0.00  0.00    +0.000 C 
ATOM      9  C   UNL     1       7.025   6.061  15.757  0.00  0.00    +0.000 C 
ATOM     10  C   UNL     1       7.255   6.864  17.031  0.00  0.00    +0.000 C 
ATOM     11  C   UNL     1       7.711   6.079  18.261  0.00  0.00    +0.000 C 
ATOM     12  C   UNL     1       7.203   4.646  18.437  0.00  0.00    +0.000 C 
ATOM     13  C   UNL     1       4.697   5.425  18.611  0.00  0.00    +0.000 C 
ATOM     14  O   UNL     1       4.783   6.641  18.599  0.00  0.00    +0.000 OA
ATOM     15  H   UNL     1       5.582   2.327  18.911  0.00  0.00    +0.000 HD
ENDBRANCH   1   2
BRANCH   1  16
ATOM     16  C   UNL     1       2.012   6.012  20.228  0.00  0.00    +0.000 C 
ATOM     17  O   UNL     1       2.089   5.333  21.257  0.00  0.00    +0.000 OA
BRANCH  16  22
ATOM     18  N   UNL     1       1.018   9.540  19.735  0.00  0.00    +0.000 N 
ATOM     19  C   UNL     1       0.715   9.370  21.079  0.00  0.00    +0.000 A 
ATOM     20  C   UNL     1       0.014  10.266  22.045  0.00  0.00    +0.000 C 
ATOM     21  C   UNL     1       1.154   8.112  21.445  0.00  0.00    +0.000 A 
ATOM     22  C   UNL     1       1.619   7.428  20.304  0.00  0.00    +0.000 A 
ATOM     23  C   UNL     1       1.612   8.360  19.267  0.00  0.00    +0.000 A 
ATOM     24  C   UNL     1       2.105   8.221  17.857  0.00  0.00    +0.000 C 
BRANCH  18  25
ATOM     25  C   UNL     1       0.729  10.665  18.838  0.00  0.00    +0.000 C 
BRANCH  25  26
ATOM     26  C   UNL     1      -0.715  10.804  18.401  0.00  0.00    +0.000 C 
BRANCH  26  28
ATOM     27  C   UNL     1      -2.246  10.404  16.711  0.00  0.00    +0.000 C 
ATOM     28  O   UNL     1      -1.144   9.843  17.435  0.00  0.00    +0.000 OA
ENDBRANCH  26  28
ENDBRANCH  25  26
ENDBRANCH  18  25
ENDBRANCH  16  22
ENDBRANCH   1  16
TORSDOF 6
ENDMDL
MODEL 5
REMARK VINA RESULT:      -7.4      1.229      1.481
REMARK  Name = 
REMARK  9 active torsions:
REMARK  status: ('A' for Active; 'I' for Inactive)
REMARK    1  A    between atoms: C_1  and  O_2
REMARK    2  A    between atoms: O_2  and  C_3
REMARK    3  A    between atoms: C_3  and  C_4
REMARK    4  A    between atoms: C_4  and  N_5
REMARK    5  A    between atoms: C_6  and  C_7
REMARK    6  A    between atoms: C_9  and  C_10
REMARK    7  A    between atoms: C_10  and  C_12
REMARK    8  A    between atoms: C_12  and  N_13
REMARK    9  A    between atoms: C_26  and  C_27
REMARK                            x       y       z     vdW  Elec       q    Type
REMARK                         _______ _______ _______ _____ _____    ______ ____
ROOT
ATOM      1  C   UNL     1       2.506   6.068  19.884  0.00  0.00    +0.000 C 
ENDROOT
BRANCH   1   2
ATOM      2  N   UNL     1       3.240   5.354  18.866  0.00  0.00    +0.000 N 
ATOM      3  C   UNL     1       2.740   4.690  17.789  0.00  0.00    +0.000 C 
ATOM      4  O   UNL     1       1.599   4.336  17.584  0.00  0.00    +0.000 OA
ATOM      5  N   UNL     1       3.810   4.440  16.932  0.00  0.00    +0.000 N 
ATOM      6  C   UNL     1       5.022   5.141  17.356  0.00  0.00    +0.000 C 
ATOM      7  C   UNL     1       5.088   6.514  16.640  0.00  0.00    +0.000 C 
ATOM      8  C   UNL     1       6.059   7.522  17.248  0.00  0.00    +0.000 C 
ATOM      9  C   UNL     1       7.523   7.094  17.296  0.00  0.00    +0.000 C 
ATOM     10  C   UNL     1       7.824   6.031  18.346  0.00  0.00    +0.000 C 
ATOM     11  C   UNL     1       7.489   4.588  17.973  0.00  0.00    +0.000 C 
ATOM     12  C   UNL     1       6.281   4.333  17.068  0.00  0.00    +0.000 C 
ATOM     13  C   UNL     1       4.601   5.335  18.826  0.00  0.00    +0.000 C 
ATOM     14  O   UNL     1       5.311   5.565  19.789  0.00  0.00    +0.000 OA
ATOM     15  H   UNL     1       3.628   4.069  16.011  0.00  0.00    +0.000 HD
ENDBRANCH   1   2
BRANCH   1  16
ATOM     16  C   UNL     1       2.211   7.456  19.297  0.00  0.00    +0.000 C 
ATOM     17  O   UNL     1       2.660   7.761  18.188  0.00  0.00    +0.000 OA
BRANCH  16  22
ATOM     18  N   UNL     1       0.074  10.140  20.677  0.00  0.00    +0.000 N 
ATOM     19  C   UNL     1       0.346   9.408  21.826  0.00  0.00    +0.000 A 
ATOM     20  C   UNL     1      -0.198   9.523  23.210  0.00  0.00    +0.000 C 
ATOM     21  C   UNL     1       1.250   8.422  21.482  0.00  0.00    +0.000 A 
ATOM     22  C   UNL     1       1.457   8.442  20.087  0.00  0.00    +0.000 A 
ATOM     23  C   UNL     1       0.790   9.571  19.616  0.00  0.00    +0.000 A 
ATOM     24  C   UNL     1       0.757  10.151  18.231  0.00  0.00    +0.000 C 
BRANCH  18  25
ATOM     25  C   UNL     1      -0.851  11.261  20.470  0.00  0.00    +0.000 C 
BRANCH  25  26
ATOM     26  C   UNL     1      -1.184  12.075  21.704  0.00  0.00    +0.000 C 
BRANCH  26  28
ATOM     27  C   UNL     1      -2.802  12.264  23.350  0.00  0.00    +0.000 C 
ATOM     28  O   UNL     1      -2.580  12.271  21.934  0.00  0.00    +0.000 OA
ENDBRANCH  26  28
ENDBRANCH  25  26
ENDBRANCH  18  25
ENDBRANCH  16  22
ENDBRANCH   1  16
TORSDOF 6
ENDMDL
MODEL 6
REMARK VINA RESULT:      -7.3      2.038      4.065
REMARK  Name = 
REMARK  9 active torsions:
REMARK  status: ('A' for Active; 'I' for Inactive)
REMARK    1  A    between atoms: C_1  and  O_2
REMARK    2  A    between atoms: O_2  and  C_3
REMARK    3  A    between atoms: C_3  and  C_4
REMARK    4  A    between atoms: C_4  and  N_5
REMARK    5  A    between atoms: C_6  and  C_7
REMARK    6  A    between atoms: C_9  and  C_10
REMARK    7  A    between atoms: C_10  and  C_12
REMARK    8  A    between atoms: C_12  and  N_13
REMARK    9  A    between atoms: C_26  and  C_27
REMARK                            x       y       z     vdW  Elec       q    Type
REMARK                         _______ _______ _______ _____ _____    ______ ____
ROOT
ATOM      1  C   UNL     1       2.427   7.671  17.703  0.00  0.00    +0.000 C 
ENDROOT
BRANCH   1   2
ATOM      2  N   UNL     1       3.137   6.425  17.873  0.00  0.00    +0.000 N 
ATOM      3  C   UNL     1       4.478   6.243  18.020  0.00  0.00    +0.000 C 
ATOM      4  O   UNL     1       5.375   7.026  17.792  0.00  0.00    +0.000 OA
ATOM      5  N   UNL     1       4.665   4.936  18.466  0.00  0.00    +0.000 N 
ATOM      6  C   UNL     1       3.399   4.297  18.824  0.00  0.00    +0.000 C 
ATOM      7  C   UNL     1       3.133   4.514  20.335  0.00  0.00    +0.000 C 
ATOM      8  C   UNL     1       1.698   4.260  20.789  0.00  0.00    +0.000 C 
ATOM      9  C   UNL     1       1.161   2.853  20.548  0.00  0.00    +0.000 C 
ATOM     10  C   UNL     1       0.849   2.548  19.088  0.00  0.00    +0.000 C 
ATOM     11  C   UNL     1       2.035   2.169  18.202  0.00  0.00    +0.000 C 
ATOM     12  C   UNL     1       3.394   2.810  18.494  0.00  0.00    +0.000 C 
ATOM     13  C   UNL     1       2.496   5.231  17.993  0.00  0.00    +0.000 C 
ATOM     14  O   UNL     1       1.358   5.030  17.605  0.00  0.00    +0.000 OA
ATOM     15  H   UNL     1       5.585   4.643  18.762  0.00  0.00    +0.000 HD
ENDBRANCH   1   2
BRANCH   1  16
ATOM     16  C   UNL     1       2.052   8.138  19.117  0.00  0.00    +0.000 C 
ATOM     17  O   UNL     1       2.416   7.482  20.098  0.00  0.00    +0.000 OA
BRANCH  16  22
ATOM     18  N   UNL     1      -0.203  10.866  20.193  0.00  0.00    +0.000 N 
ATOM     19  C   UNL     1       0.380  11.438  19.070  0.00  0.00    +0.000 A 
ATOM     20  C   UNL     1       0.295  12.823  18.522  0.00  0.00    +0.000 C 
ATOM     21  C   UNL     1       1.173  10.473  18.479  0.00  0.00    +0.000 A 
ATOM     22  C   UNL     1       1.198   9.324  19.296  0.00  0.00    +0.000 A 
ATOM     23  C   UNL     1       0.268   9.551  20.309  0.00  0.00    +0.000 A 
ATOM     24  C   UNL     1      -0.201   8.630  21.396  0.00  0.00    +0.000 C 
BRANCH  18  25
ATOM     25  C   UNL     1      -1.088  11.459  21.202  0.00  0.00    +0.000 C 
BRANCH  25  26
ATOM     26  C   UNL     1      -0.426  12.410  22.179  0.00  0.00    +0.000 C 
BRANCH  26  28
ATOM     27  C   UNL     1      -2.421  11.965  23.267  0.00  0.00    +0.000 C 
ATOM     28  O   UNL     1      -1.164  12.644  23.380  0.00  0.00    +0.000 OA
ENDBRANCH  26  28
ENDBRANCH  25  26
ENDBRANCH  18  25
ENDBRANCH  16  22
ENDBRANCH   1  16
TORSDOF 6
ENDMDL
MODEL 7
REMARK VINA RESULT:      -7.3      2.032      4.281
REMARK  Name = 
REMARK  9 active torsions:
REMARK  status: ('A' for Active; 'I' for Inactive)
REMARK    1  A    between atoms: C_1  and  O_2
REMARK    2  A    between atoms: O_2  and  C_3
REMARK    3  A    between atoms: C_3  and  C_4
REMARK    4  A    between atoms: C_4  and  N_5
REMARK    5  A    between atoms: C_6  and  C_7
REMARK    6  A    between atoms: C_9  and  C_10
REMARK    7  A    between atoms: C_10  and  C_12
REMARK    8  A    between atoms: C_12  and  N_13
REMARK    9  A    between atoms: C_26  and  C_27
REMARK                            x       y       z     vdW  Elec       q    Type
REMARK                         _______ _______ _______ _____ _____    ______ ____
ROOT
ATOM      1  C   UNL     1       4.078   6.097  17.006  0.00  0.00    +0.000 C 
ENDROOT
BRANCH   1   2
ATOM      2  N   UNL     1       3.907   4.674  17.181  0.00  0.00    +0.000 N 
ATOM      3  C   UNL     1       4.797   3.685  16.894  0.00  0.00    +0.000 C 
ATOM      4  O   UNL     1       5.798   3.746  16.213  0.00  0.00    +0.000 OA
ATOM      5  N   UNL     1       4.333   2.527  17.515  0.00  0.00    +0.000 N 
ATOM      6  C   UNL     1       3.210   2.802  18.411  0.00  0.00    +0.000 C 
ATOM      7  C   UNL     1       3.754   3.055  19.840  0.00  0.00    +0.000 C 
ATOM      8  C   UNL     1       2.780   3.730  20.801  0.00  0.00    +0.000 C 
ATOM      9  C   UNL     1       1.475   2.984  21.061  0.00  0.00    +0.000 C 
ATOM     10  C   UNL     1       0.494   3.022  19.896  0.00  0.00    +0.000 C 
ATOM     11  C   UNL     1       0.748   2.034  18.758  0.00  0.00    +0.000 C 
ATOM     12  C   UNL     1       2.195   1.666  18.424  0.00  0.00    +0.000 C 
ATOM     13  C   UNL     1       2.799   4.139  17.762  0.00  0.00    +0.000 C 
ATOM     14  O   UNL     1       1.728   4.716  17.840  0.00  0.00    +0.000 OA
ATOM     15  H   UNL     1       4.922   1.707  17.532  0.00  0.00    +0.000 HD
ENDBRANCH   1   2
BRANCH   1  16
ATOM     16  C   UNL     1       3.861   6.722  18.392  0.00  0.00    +0.000 C 
ATOM     17  O   UNL     1       4.497   6.298  19.362  0.00  0.00    +0.000 OA
BRANCH  16  22
ATOM     18  N   UNL     1       1.231   9.087  19.471  0.00  0.00    +0.000 N 
ATOM     19  C   UNL     1       1.737   9.750  18.360  0.00  0.00    +0.000 A 
ATOM     20  C   UNL     1       1.460  11.115  17.825  0.00  0.00    +0.000 C 
ATOM     21  C   UNL     1       2.664   8.914  17.768  0.00  0.00    +0.000 A 
ATOM     22  C   UNL     1       2.846   7.771  18.574  0.00  0.00    +0.000 A 
ATOM     23  C   UNL     1       1.884   7.852  19.579  0.00  0.00    +0.000 A 
ATOM     24  C   UNL     1       1.541   6.861  20.652  0.00  0.00    +0.000 C 
BRANCH  18  25
ATOM     25  C   UNL     1       0.261   9.537  20.476  0.00  0.00    +0.000 C 
BRANCH  25  26
ATOM     26  C   UNL     1       0.798  10.486  21.529  0.00  0.00    +0.000 C 
BRANCH  26  28
ATOM     27  C   UNL     1      -0.125   9.431  23.371  0.00  0.00    +0.000 C 
ATOM     28  O   UNL     1       1.104   9.878  22.784  0.00  0.00    +0.000 OA
ENDBRANCH  26  28
ENDBRANCH  25  26
ENDBRANCH  18  25
ENDBRANCH  16  22
ENDBRANCH   1  16
TORSDOF 6
ENDMDL
MODEL 8
REMARK VINA RESULT:      -7.2      2.045      4.145
REMARK  Name = 
REMARK  9 active torsions:
REMARK  status: ('A' for Active; 'I' for Inactive)
REMARK    1  A    between atoms: C_1  and  O_2
REMARK    2  A    between atoms: O_2  and  C_3
REMARK    3  A    between atoms: C_3  and  C_4
REMARK    4  A    between atoms: C_4  and  N_5
REMARK    5  A    between atoms: C_6  and  C_7
REMARK    6  A    between atoms: C_9  and  C_10
REMARK    7  A    between atoms: C_10  and  C_12
REMARK    8  A    between atoms: C_12  and  N_13
REMARK    9  A    between atoms: C_26  and  C_27
REMARK                            x       y       z     vdW  Elec       q    Type
REMARK                         _______ _______ _______ _____ _____    ______ ____
ROOT
ATOM      1  C   UNL     1       2.356   7.541  17.606  0.00  0.00    +0.000 C 
ENDROOT
BRANCH   1   2
ATOM      2  N   UNL     1       3.089   6.311  17.792  0.00  0.00    +0.000 N 
ATOM      3  C   UNL     1       4.433   6.155  17.936  0.00  0.00    +0.000 C 
ATOM      4  O   UNL     1       5.315   6.950  17.692  0.00  0.00    +0.000 OA
ATOM      5  N   UNL     1       4.645   4.859  18.401  0.00  0.00    +0.000 N 
ATOM      6  C   UNL     1       3.392   4.203  18.774  0.00  0.00    +0.000 C 
ATOM      7  C   UNL     1       3.128   4.438  20.283  0.00  0.00    +0.000 C 
ATOM      8  C   UNL     1       1.700   4.166  20.747  0.00  0.00    +0.000 C 
ATOM      9  C   UNL     1       1.187   2.746  20.530  0.00  0.00    +0.000 C 
ATOM     10  C   UNL     1       0.875   2.413  19.076  0.00  0.00    +0.000 C 
ATOM     11  C   UNL     1       2.064   2.042  18.190  0.00  0.00    +0.000 C 
ATOM     12  C   UNL     1       3.413   2.711  18.466  0.00  0.00    +0.000 C 
ATOM     13  C   UNL     1       2.470   5.108  17.932  0.00  0.00    +0.000 C 
ATOM     14  O   UNL     1       1.334   4.881  17.553  0.00  0.00    +0.000 OA
ATOM     15  H   UNL     1       5.571   4.587  18.697  0.00  0.00    +0.000 HD
ENDBRANCH   1   2
BRANCH   1  16
ATOM     16  C   UNL     1       2.088   8.090  19.015  0.00  0.00    +0.000 C 
ATOM     17  O   UNL     1       2.324   7.387  20.002  0.00  0.00    +0.000 OA
BRANCH  16  22
ATOM     18  N   UNL     1       0.391  11.207  20.056  0.00  0.00    +0.000 N 
ATOM     19  C   UNL     1       1.110  11.657  18.956  0.00  0.00    +0.000 A 
ATOM     20  C   UNL     1       1.319  13.034  18.420  0.00  0.00    +0.000 C 
ATOM     21  C   UNL     1       1.711  10.556  18.378  0.00  0.00    +0.000 A 
ATOM     22  C   UNL     1       1.483   9.421  19.183  0.00  0.00    +0.000 A 
ATOM     23  C   UNL     1       0.587   9.824  20.171  0.00  0.00    +0.000 A 
ATOM     24  C   UNL     1      -0.089   9.010  21.235  0.00  0.00    +0.000 C 
BRANCH  18  25
ATOM     25  C   UNL     1      -0.387  11.960  21.046  0.00  0.00    +0.000 C 
BRANCH  25  26
ATOM     26  C   UNL     1      -1.856  12.147  20.724  0.00  0.00    +0.000 C 
BRANCH  26  28
ATOM     27  C   UNL     1      -2.876  11.684  18.698  0.00  0.00    +0.000 C 
ATOM     28  O   UNL     1      -2.122  12.666  19.420  0.00  0.00    +0.000 OA
ENDBRANCH  26  28
ENDBRANCH  25  26
ENDBRANCH  18  25
ENDBRANCH  16  22
ENDBRANCH   1  16
TORSDOF 6
ENDMDL
MODEL 9
REMARK VINA RESULT:      -7.2      2.163      3.637
REMARK  Name = 
REMARK  9 active torsions:
REMARK  status: ('A' for Active; 'I' for Inactive)
REMARK    1  A    between atoms: C_1  and  O_2
REMARK    2  A    between atoms: O_2  and  C_3
REMARK    3  A    between atoms: C_3  and  C_4
REMARK    4  A    between atoms: C_4  and  N_5
REMARK    5  A    between atoms: C_6  and  C_7
REMARK    6  A    between atoms: C_9  and  C_10
REMARK    7  A    between atoms: C_10  and  C_12
REMARK    8  A    between atoms: C_12  and  N_13
REMARK    9  A    between atoms: C_26  and  C_27
REMARK                            x       y       z     vdW  Elec       q    Type
REMARK                         _______ _______ _______ _____ _____    ______ ____
ROOT
ATOM      1  C   UNL     1       1.324   8.321  17.654  0.00  0.00    +0.000 C 
ENDROOT
BRANCH   1   2
ATOM      2  N   UNL     1       2.190   7.595  18.553  0.00  0.00    +0.000 N 
ATOM      3  C   UNL     1       2.030   7.403  19.891  0.00  0.00    +0.000 C 
ATOM      4  O   UNL     1       1.293   7.990  20.654  0.00  0.00    +0.000 OA
ATOM      5  N   UNL     1       2.916   6.396  20.267  0.00  0.00    +0.000 N 
ATOM      6  C   UNL     1       3.537   5.757  19.107  0.00  0.00    +0.000 C 
ATOM      7  C   UNL     1       2.694   4.523  18.698  0.00  0.00    +0.000 C 
ATOM      8  C   UNL     1       2.968   3.978  17.300  0.00  0.00    +0.000 C 
ATOM      9  C   UNL     1       4.397   3.516  17.031  0.00  0.00    +0.000 C 
ATOM     10  C   UNL     1       5.400   4.654  16.884  0.00  0.00    +0.000 C 
ATOM     11  C   UNL     1       5.921   5.276  18.179  0.00  0.00    +0.000 C 
ATOM     12  C   UNL     1       4.978   5.346  19.383  0.00  0.00    +0.000 C 
ATOM     13  C   UNL     1       3.286   6.915  18.120  0.00  0.00    +0.000 C 
ATOM     14  O   UNL     1       3.852   7.142  17.065  0.00  0.00    +0.000 OA
ATOM     15  H   UNL     1       2.861   6.013  21.199  0.00  0.00    +0.000 HD
ENDBRANCH   1   2
BRANCH   1  16
ATOM     16  C   UNL     1       1.402   9.791  18.088  0.00  0.00    +0.000 C 
ATOM     17  O   UNL     1       2.481  10.390  18.040  0.00  0.00    +0.000 OA
BRANCH  16  22
ATOM     18  N   UNL     1      -1.149  11.866  19.782  0.00  0.00    +0.000 N 
ATOM     19  C   UNL     1      -1.917  11.267  18.792  0.00  0.00    +0.000 A 
ATOM     20  C   UNL     1      -3.329  11.503  18.372  0.00  0.00    +0.000 C 
ATOM     21  C   UNL     1      -1.111  10.353  18.141  0.00  0.00    +0.000 A 
ATOM     22  C   UNL     1       0.208  10.461  18.629  0.00  0.00    +0.000 A 
ATOM     23  C   UNL     1       0.147  11.340  19.709  0.00  0.00    +0.000 A 
ATOM     24  C   UNL     1       1.226  11.741  20.673  0.00  0.00    +0.000 C 
BRANCH  18  25
ATOM     25  C   UNL     1      -1.496  12.935  20.726  0.00  0.00    +0.000 C 
BRANCH  25  26
ATOM     26  C   UNL     1      -2.326  12.513  21.921  0.00  0.00    +0.000 C 
BRANCH  26  28
ATOM     27  C   UNL     1      -1.254  10.860  23.138  0.00  0.00    +0.000 C 
ATOM     28  O   UNL     1      -1.577  12.256  23.111  0.00  0.00    +0.000 OA
ENDBRANCH  26  28
ENDBRANCH  25  26
ENDBRANCH  18  25
ENDBRANCH  16  22
ENDBRANCH   1  16
TORSDOF 6
ENDMDL
