MODEL 1
REMARK VINA RESULT:      -8.6      0.000      0.000
REMARK  Name = 
REMARK  6 active torsions:
REMARK  status: ('A' for Active; 'I' for Inactive)
REMARK    1  A    between atoms: C_1  and  C_2
REMARK    2  A    between atoms: C_5  and  C_6
REMARK    3  A    between atoms: C_7  and  N_8
REMARK    4  A    between atoms: N_11  and  N_12
REMARK    5  A    between atoms: C_13  and  C_15
REMARK    6  A    between atoms: C_24  and  O_25
REMARK                            x       y       z     vdW  Elec       q    Type
REMARK                         _______ _______ _______ _____ _____    ______ ____
ROOT
ATOM      1  N   UNL     1       0.937   8.261  20.919  0.00  0.00    +0.000 N 
ATOM      2  C   UNL     1       1.049   9.329  21.780  0.00  0.00    +0.000 C 
ATOM      3  O   UNL     1       1.885   9.363  22.684  0.00  0.00    +0.000 OA
ATOM      4  H   UNL     1       0.253   8.259  20.158  0.00  0.00    +0.000 HD
ENDROOT
BRANCH   2   5
ATOM      5  C   UNL     1       0.079  10.467  21.569  0.00  0.00    +0.000 A 
ATOM      6  C   UNL     1       0.159  11.153  20.354  0.00  0.00    +0.000 A 
ATOM      7  C   UNL     1      -0.691  12.230  20.087  0.00  0.00    +0.000 A 
ATOM      8  C   UNL     1      -1.649  12.652  21.019  0.00  0.00    +0.000 A 
ATOM      9  C   UNL     1      -2.483  13.746  20.727  0.00  0.00    +0.000 A 
ATOM     10  C   UNL     1      -3.434  14.196  21.640  0.00  0.00    +0.000 A 
ATOM     11  C   UNL     1      -3.570  13.555  22.862  0.00  0.00    +0.000 A 
ATOM     12  C   UNL     1      -2.750  12.463  23.170  0.00  0.00    +0.000 A 
ATOM     13  C   UNL     1      -1.764  11.983  22.267  0.00  0.00    +0.000 A 
ATOM     14  C   UNL     1      -0.886  10.881  22.515  0.00  0.00    +0.000 A 
BRANCH  14  15
ATOM     15  O   UNL     1      -0.953  10.187  23.702  0.00  0.00    +0.000 OA
ATOM     16  H   UNL     1      -1.065   9.239  23.542  0.00  0.00    +0.000 HD
ENDBRANCH  14  15
ENDBRANCH   2   5
BRANCH   1  20
ATOM     17  N   UNL     1       3.199   5.661  19.935  0.00  0.00    +0.000 N 
ATOM     18  C   UNL     1       2.487   6.839  19.820  0.00  0.00    +0.000 C 
ATOM     19  O   UNL     1       2.408   7.530  18.805  0.00  0.00    +0.000 OA
ATOM     20  N   UNL     1       1.813   7.175  20.982  0.00  0.00    +0.000 N 
ATOM     21  H   UNL     1       2.818   5.002  20.594  0.00  0.00    +0.000 HD
ATOM     22  H   UNL     1       1.766   6.595  21.812  0.00  0.00    +0.000 HD
BRANCH  17  29
ATOM     23  C   UNL     1       7.622   4.845  17.834  0.00  0.00    +0.000 C 
ATOM     24  C   UNL     1       6.126   4.719  17.811  0.00  0.00    +0.000 A 
ATOM     25  C   UNL     1       5.486   4.018  16.788  0.00  0.00    +0.000 A 
ATOM     26  C   UNL     1       4.099   3.866  16.801  0.00  0.00    +0.000 A 
ATOM     27  C   UNL     1       3.321   4.400  17.842  0.00  0.00    +0.000 A 
ATOM     28  C   UNL     1       1.828   4.252  17.777  0.00  0.00    +0.000 C 
ATOM     29  C   UNL     1       3.959   5.126  18.863  0.00  0.00    +0.000 A 
ATOM     30  C   UNL     1       5.353   5.286  18.836  0.00  0.00    +0.000 A 
ENDBRANCH  17  29
ENDBRANCH   1  20
TORSDOF 4
ENDMDL
MODEL 2
REMARK VINA RESULT:      -8.3      7.400      9.239
REMARK  Name = 
REMARK  6 active torsions:
REMARK  status: ('A' for Active; 'I' for Inactive)
REMARK    1  A    between atoms: C_1  and  C_2
REMARK    2  A    between atoms: C_5  and  C_6
REMARK    3  A    between atoms: C_7  and  N_8
REMARK    4  A    between atoms: N_11  and  N_12
REMARK    5  A    between atoms: C_13  and  C_15
REMARK    6  A    between atoms: C_24  and  O_25
REMARK                            x       y       z     vdW  Elec       q    Type
REMARK                         _______ _______ _______ _____ _____    ______ ____
ROOT
ATOM      1  N   UNL     1       8.865   9.828  18.536  0.00  0.00    +0.000 N 
ATOM      2  C   UNL     1       9.230  10.650  19.578  0.00  0.00    +0.000 C 
ATOM      3  O   UNL     1       9.353  10.236  20.732  0.00  0.00    +0.000 OA
ATOM      4  H   UNL     1       8.790  10.181  17.579  0.00  0.00    +0.000 HD
ENDROOT
BRANCH   2   5
ATOM      5  C   UNL     1       9.464  12.102  19.238  0.00  0.00    +0.000 A 
ATOM      6  C   UNL     1       8.802  13.053  20.019  0.00  0.00    +0.000 A 
ATOM      7  C   UNL     1       8.951  14.418  19.758  0.00  0.00    +0.000 A 
ATOM      8  C   UNL     1       9.768  14.876  18.717  0.00  0.00    +0.000 A 
ATOM      9  C   UNL     1       9.889  16.256  18.472  0.00  0.00    +0.000 A 
ATOM     10  C   UNL     1      10.683  16.740  17.434  0.00  0.00    +0.000 A 
ATOM     11  C   UNL     1      11.375  15.851  16.626  0.00  0.00    +0.000 A 
ATOM     12  C   UNL     1      11.267  14.474  16.856  0.00  0.00    +0.000 A 
ATOM     13  C   UNL     1      10.460  13.945  17.898  0.00  0.00    +0.000 A 
ATOM     14  C   UNL     1      10.295  12.554  18.187  0.00  0.00    +0.000 A 
BRANCH  14  15
ATOM     15  O   UNL     1      10.945  11.602  17.435  0.00  0.00    +0.000 OA
ATOM     16  H   UNL     1      10.351  10.867  17.219  0.00  0.00    +0.000 HD
ENDBRANCH  14  15
ENDBRANCH   2   5
BRANCH   1  20
ATOM     17  N   UNL     1       7.561   6.506  18.200  0.00  0.00    +0.000 N 
ATOM     18  C   UNL     1       7.812   7.816  17.843  0.00  0.00    +0.000 C 
ATOM     19  O   UNL     1       7.321   8.401  16.878  0.00  0.00    +0.000 OA
ATOM     20  N   UNL     1       8.675   8.456  18.718  0.00  0.00    +0.000 N 
ATOM     21  H   UNL     1       7.628   6.319  19.187  0.00  0.00    +0.000 HD
ATOM     22  H   UNL     1       9.031   8.053  19.578  0.00  0.00    +0.000 HD
BRANCH  17  29
ATOM     23  C   UNL     1       6.539   4.173  13.939  0.00  0.00    +0.000 C 
ATOM     24  C   UNL     1       6.179   4.514  15.356  0.00  0.00    +0.000 A 
ATOM     25  C   UNL     1       5.052   3.953  15.959  0.00  0.00    +0.000 A 
ATOM     26  C   UNL     1       4.752   4.240  17.291  0.00  0.00    +0.000 A 
ATOM     27  C   UNL     1       5.577   5.082  18.055  0.00  0.00    +0.000 A 
ATOM     28  C   UNL     1       5.178   5.397  19.468  0.00  0.00    +0.000 C 
ATOM     29  C   UNL     1       6.702   5.666  17.446  0.00  0.00    +0.000 A 
ATOM     30  C   UNL     1       6.989   5.384  16.102  0.00  0.00    +0.000 A 
ENDBRANCH  17  29
ENDBRANCH   1  20
TORSDOF 4
ENDMDL
MODEL 3
REMARK VINA RESULT:      -8.2      7.185      9.142
REMARK  Name = 
REMARK  6 active torsions:
REMARK  status: ('A' for Active; 'I' for Inactive)
REMARK    1  A    between atoms: C_1  and  C_2
REMARK    2  A    between atoms: C_5  and  C_6
REMARK    3  A    between atoms: C_7  and  N_8
REMARK    4  A    between atoms: N_11  and  N_12
REMARK    5  A    between atoms: C_13  and  C_15
REMARK    6  A    between atoms: C_24  and  O_25
REMARK                            x       y       z     vdW  Elec       q    Type
REMARK                         _______ _______ _______ _____ _____    ______ ____
ROOT
ATOM      1  N   UNL     1       8.944   9.585  18.398  0.00  0.00    +0.000 N 
ATOM      2  C   UNL     1       9.336  10.515  19.334  0.00  0.00    +0.000 C 
ATOM      3  O   UNL     1       9.285  10.294  20.545  0.00  0.00    +0.000 OA
ATOM      4  H   UNL     1       9.015   9.775  17.395  0.00  0.00    +0.000 HD
ENDROOT
BRANCH   2   5
ATOM      5  C   UNL     1       9.827  11.839  18.800  0.00  0.00    +0.000 A 
ATOM      6  C   UNL     1      10.666  11.803  17.683  0.00  0.00    +0.000 A 
ATOM      7  C   UNL     1      11.178  12.985  17.139  0.00  0.00    +0.000 A 
ATOM      8  C   UNL     1      10.865  14.236  17.686  0.00  0.00    +0.000 A 
ATOM      9  C   UNL     1      11.404  15.406  17.123  0.00  0.00    +0.000 A 
ATOM     10  C   UNL     1      11.122  16.663  17.655  0.00  0.00    +0.000 A 
ATOM     11  C   UNL     1      10.290  16.770  18.760  0.00  0.00    +0.000 A 
ATOM     12  C   UNL     1       9.743  15.616  19.332  0.00  0.00    +0.000 A 
ATOM     13  C   UNL     1      10.016  14.318  18.822  0.00  0.00    +0.000 A 
ATOM     14  C   UNL     1       9.501  13.096  19.358  0.00  0.00    +0.000 A 
BRANCH  14  15
ATOM     15  O   UNL     1       8.667  13.110  20.453  0.00  0.00    +0.000 OA
ATOM     16  H   UNL     1       8.686  12.258  20.913  0.00  0.00    +0.000 HD
ENDBRANCH  14  15
ENDBRANCH   2   5
BRANCH   1  20
ATOM     17  N   UNL     1       7.235   6.434  18.382  0.00  0.00    +0.000 N 
ATOM     18  C   UNL     1       7.735   7.613  17.865  0.00  0.00    +0.000 C 
ATOM     19  O   UNL     1       7.507   8.052  16.738  0.00  0.00    +0.000 OA
ATOM     20  N   UNL     1       8.523   8.306  18.769  0.00  0.00    +0.000 N 
ATOM     21  H   UNL     1       7.106   6.436  19.381  0.00  0.00    +0.000 HD
ATOM     22  H   UNL     1       8.665   8.039  19.737  0.00  0.00    +0.000 HD
BRANCH  17  29
ATOM     23  C   UNL     1       6.387   3.901  14.198  0.00  0.00    +0.000 C 
ATOM     24  C   UNL     1       5.963   4.319  15.576  0.00  0.00    +0.000 A 
ATOM     25  C   UNL     1       4.798   3.807  16.149  0.00  0.00    +0.000 A 
ATOM     26  C   UNL     1       4.437   4.165  17.449  0.00  0.00    +0.000 A 
ATOM     27  C   UNL     1       5.237   5.033  18.210  0.00  0.00    +0.000 A 
ATOM     28  C   UNL     1       4.773   5.426  19.583  0.00  0.00    +0.000 C 
ATOM     29  C   UNL     1       6.400   5.570  17.630  0.00  0.00    +0.000 A 
ATOM     30  C   UNL     1       6.749   5.215  16.317  0.00  0.00    +0.000 A 
ENDBRANCH  17  29
ENDBRANCH   1  20
TORSDOF 4
ENDMDL
MODEL 4
REMARK VINA RESULT:      -8.2      1.049      1.058
REMARK  Name = 
REMARK  6 active torsions:
REMARK  status: ('A' for Active; 'I' for Inactive)
REMARK    1  A    between atoms: C_1  and  C_2
REMARK    2  A    between atoms: C_5  and  C_6
REMARK    3  A    between atoms: C_7  and  N_8
REMARK    4  A    between atoms: N_11  and  N_12
REMARK    5  A    between atoms: C_13  and  C_15
REMARK    6  A    between atoms: C_24  and  O_25
REMARK                            x       y       z     vdW  Elec       q    Type
REMARK                         _______ _______ _______ _____ _____    ______ ____
ROOT
ATOM      1  N   UNL     1       1.294   8.826  20.816  0.00  0.00    +0.000 N 
ATOM      2  C   UNL     1      -0.031   8.982  21.153  0.00  0.00    +0.000 C 
ATOM      3  O   UNL     1      -0.748   8.030  21.465  0.00  0.00    +0.000 OA
ATOM      4  H   UNL     1       1.883   9.630  20.582  0.00  0.00    +0.000 HD
ENDROOT
BRANCH   2   5
ATOM      5  C   UNL     1      -0.575  10.390  21.109  0.00  0.00    +0.000 A 
ATOM      6  C   UNL     1      -0.935  10.894  19.857  0.00  0.00    +0.000 A 
ATOM      7  C   UNL     1      -1.430  12.195  19.728  0.00  0.00    +0.000 A 
ATOM      8  C   UNL     1      -1.586  13.029  20.843  0.00  0.00    +0.000 A 
ATOM      9  C   UNL     1      -2.076  14.338  20.680  0.00  0.00    +0.000 A 
ATOM     10  C   UNL     1      -2.228  15.195  21.768  0.00  0.00    +0.000 A 
ATOM     11  C   UNL     1      -1.895  14.755  23.041  0.00  0.00    +0.000 A 
ATOM     12  C   UNL     1      -1.408  13.455  23.221  0.00  0.00    +0.000 A 
ATOM     13  C   UNL     1      -1.231  12.558  22.134  0.00  0.00    +0.000 A 
ATOM     14  C   UNL     1      -0.732  11.222  22.241  0.00  0.00    +0.000 A 
BRANCH  14  15
ATOM     15  O   UNL     1      -0.378  10.704  23.466  0.00  0.00    +0.000 OA
ATOM     16  H   UNL     1       0.281  10.001  23.367  0.00  0.00    +0.000 HD
ENDBRANCH  14  15
ENDBRANCH   2   5
BRANCH   1  20
ATOM     17  N   UNL     1       2.995   5.832  19.820  0.00  0.00    +0.000 N 
ATOM     18  C   UNL     1       2.548   7.135  19.719  0.00  0.00    +0.000 C 
ATOM     19  O   UNL     1       2.647   7.849  18.722  0.00  0.00    +0.000 OA
ATOM     20  N   UNL     1       1.922   7.580  20.872  0.00  0.00    +0.000 N 
ATOM     21  H   UNL     1       2.464   5.254  20.450  0.00  0.00    +0.000 HD
ATOM     22  H   UNL     1       1.729   7.004  21.684  0.00  0.00    +0.000 HD
BRANCH  17  29
ATOM     23  C   UNL     1       7.221   4.754  17.449  0.00  0.00    +0.000 C 
ATOM     24  C   UNL     1       5.729   4.636  17.571  0.00  0.00    +0.000 A 
ATOM     25  C   UNL     1       5.005   3.827  16.694  0.00  0.00    +0.000 A 
ATOM     26  C   UNL     1       3.625   3.686  16.845  0.00  0.00    +0.000 A 
ATOM     27  C   UNL     1       2.939   4.341  17.882  0.00  0.00    +0.000 A 
ATOM     28  C   UNL     1       1.446   4.196  17.964  0.00  0.00    +0.000 C 
ATOM     29  C   UNL     1       3.660   5.175  18.754  0.00  0.00    +0.000 A 
ATOM     30  C   UNL     1       5.046   5.321  18.587  0.00  0.00    +0.000 A 
ENDBRANCH  17  29
ENDBRANCH   1  20
TORSDOF 4
ENDMDL
MODEL 5
REMARK VINA RESULT:      -8.2      1.048      1.730
REMARK  Name = 
REMARK  6 active torsions:
REMARK  status: ('A' for Active; 'I' for Inactive)
REMARK    1  A    between atoms: C_1  and  C_2
REMARK    2  A    between atoms: C_5  and  C_6
REMARK    3  A    between atoms: C_7  and  N_8
REMARK    4  A    between atoms: N_11  and  N_12
REMARK    5  A    between atoms: C_13  and  C_15
REMARK    6  A    between atoms: C_24  and  O_25
REMARK                            x       y       z     vdW  Elec       q    Type
REMARK                         _______ _______ _______ _____ _____    ______ ____
ROOT
ATOM      1  N   UNL     1       0.906   8.195  21.172  0.00  0.00    +0.000 N 
ATOM      2  C   UNL     1       0.997   9.235  22.069  0.00  0.00    +0.000 C 
ATOM      3  O   UNL     1       1.929   9.337  22.867  0.00  0.00    +0.000 OA
ATOM      4  H   UNL     1       0.137   8.136  20.499  0.00  0.00    +0.000 HD
ENDROOT
BRANCH   2   5
ATOM      5  C   UNL     1      -0.120  10.250  22.035  0.00  0.00    +0.000 A 
ATOM      6  C   UNL     1      -0.780  10.509  23.240  0.00  0.00    +0.000 A 
ATOM      7  C   UNL     1      -1.836  11.423  23.291  0.00  0.00    +0.000 A 
ATOM      8  C   UNL     1      -2.263  12.110  22.146  0.00  0.00    +0.000 A 
ATOM      9  C   UNL     1      -3.337  13.015  22.227  0.00  0.00    +0.000 A 
ATOM     10  C   UNL     1      -3.791  13.701  21.102  0.00  0.00    +0.000 A 
ATOM     11  C   UNL     1      -3.175  13.496  19.877  0.00  0.00    +0.000 A 
ATOM     12  C   UNL     1      -2.104  12.600  19.778  0.00  0.00    +0.000 A 
ATOM     13  C   UNL     1      -1.620  11.876  20.901  0.00  0.00    +0.000 A 
ATOM     14  C   UNL     1      -0.539  10.940  20.876  0.00  0.00    +0.000 A 
BRANCH  14  15
ATOM     15  O   UNL     1       0.129  10.677  19.701  0.00  0.00    +0.000 OA
ATOM     16  H   UNL     1       0.904  10.118  19.862  0.00  0.00    +0.000 HD
ENDBRANCH  14  15
ENDBRANCH   2   5
BRANCH   1  20
ATOM     17  N   UNL     1       3.252   5.865  19.787  0.00  0.00    +0.000 N 
ATOM     18  C   UNL     1       2.391   6.945  19.806  0.00  0.00    +0.000 C 
ATOM     19  O   UNL     1       2.044   7.598  18.823  0.00  0.00    +0.000 OA
ATOM     20  N   UNL     1       1.906   7.224  21.072  0.00  0.00    +0.000 N 
ATOM     21  H   UNL     1       3.082   5.180  20.506  0.00  0.00    +0.000 HD
ATOM     22  H   UNL     1       2.083   6.661  21.897  0.00  0.00    +0.000 HD
BRANCH  17  29
ATOM     23  C   UNL     1       7.119   5.923  16.676  0.00  0.00    +0.000 C 
ATOM     24  C   UNL     1       5.755   5.421  17.048  0.00  0.00    +0.000 A 
ATOM     25  C   UNL     1       5.118   4.449  16.274  0.00  0.00    +0.000 A 
ATOM     26  C   UNL     1       3.870   3.954  16.654  0.00  0.00    +0.000 A 
ATOM     27  C   UNL     1       3.236   4.408  17.822  0.00  0.00    +0.000 A 
ATOM     28  C   UNL     1       1.870   3.879  18.155  0.00  0.00    +0.000 C 
ATOM     29  C   UNL     1       3.862   5.402  18.594  0.00  0.00    +0.000 A 
ATOM     30  C   UNL     1       5.111   5.905  18.197  0.00  0.00    +0.000 A 
ENDBRANCH  17  29
ENDBRANCH   1  20
TORSDOF 4
ENDMDL
MODEL 6
REMARK VINA RESULT:      -8.1      1.717      9.758
REMARK  Name = 
REMARK  6 active torsions:
REMARK  status: ('A' for Active; 'I' for Inactive)
REMARK    1  A    between atoms: C_1  and  C_2
REMARK    2  A    between atoms: C_5  and  C_6
REMARK    3  A    between atoms: C_7  and  N_8
REMARK    4  A    between atoms: N_11  and  N_12
REMARK    5  A    between atoms: C_13  and  C_15
REMARK    6  A    between atoms: C_24  and  O_25
REMARK                            x       y       z     vdW  Elec       q    Type
REMARK                         _______ _______ _______ _____ _____    ______ ____
ROOT
ATOM      1  N   UNL     1       1.546   8.069  21.466  0.00  0.00    +0.000 N 
ATOM      2  C   UNL     1       1.811   7.743  20.155  0.00  0.00    +0.000 C 
ATOM      3  O   UNL     1       1.795   8.580  19.251  0.00  0.00    +0.000 OA
ATOM      4  H   UNL     1       1.587   7.366  22.209  0.00  0.00    +0.000 HD
ENDROOT
BRANCH   2   5
ATOM      5  C   UNL     1       2.113   6.291  19.872  0.00  0.00    +0.000 A 
ATOM      6  C   UNL     1       1.678   5.355  20.814  0.00  0.00    +0.000 A 
ATOM      7  C   UNL     1       1.934   3.992  20.635  0.00  0.00    +0.000 A 
ATOM      8  C   UNL     1       2.624   3.522  19.511  0.00  0.00    +0.000 A 
ATOM      9  C   UNL     1       2.876   2.145  19.364  0.00  0.00    +0.000 A 
ATOM     10  C   UNL     1       3.573   1.650  18.264  0.00  0.00    +0.000 A 
ATOM     11  C   UNL     1       4.026   2.524  17.287  0.00  0.00    +0.000 A 
ATOM     12  C   UNL     1       3.783   3.897  17.416  0.00  0.00    +0.000 A 
ATOM     13  C   UNL     1       3.085   4.438  18.528  0.00  0.00    +0.000 A 
ATOM     14  C   UNL     1       2.807   5.826  18.731  0.00  0.00    +0.000 A 
BRANCH  14  15
ATOM     15  O   UNL     1       3.220   6.763  17.811  0.00  0.00    +0.000 OA
ATOM     16  H   UNL     1       3.914   6.404  17.240  0.00  0.00    +0.000 HD
ENDBRANCH  14  15
ENDBRANCH   2   5
BRANCH   1  20
ATOM     17  N   UNL     1      -0.130  11.175  22.089  0.00  0.00    +0.000 N 
ATOM     18  C   UNL     1      -0.009   9.821  21.847  0.00  0.00    +0.000 C 
ATOM     19  O   UNL     1      -0.940   9.052  21.613  0.00  0.00    +0.000 OA
ATOM     20  N   UNL     1       1.306   9.388  21.858  0.00  0.00    +0.000 N 
ATOM     21  H   UNL     1       0.663  11.725  21.802  0.00  0.00    +0.000 HD
ATOM     22  H   UNL     1       2.114   9.994  21.949  0.00  0.00    +0.000 HD
BRANCH  17  29
ATOM     23  C   UNL     1      -4.197  12.485  24.615  0.00  0.00    +0.000 C 
ATOM     24  C   UNL     1      -3.398  12.481  23.344  0.00  0.00    +0.000 A 
ATOM     25  C   UNL     1      -3.844  13.180  22.221  0.00  0.00    +0.000 A 
ATOM     26  C   UNL     1      -3.071  13.210  21.059  0.00  0.00    +0.000 A 
ATOM     27  C   UNL     1      -1.830  12.554  20.997  0.00  0.00    +0.000 A 
ATOM     28  C   UNL     1      -1.066  12.576  19.705  0.00  0.00    +0.000 C 
ATOM     29  C   UNL     1      -1.387  11.831  22.119  0.00  0.00    +0.000 A 
ATOM     30  C   UNL     1      -2.176  11.794  23.279  0.00  0.00    +0.000 A 
ENDBRANCH  17  29
ENDBRANCH   1  20
TORSDOF 4
ENDMDL
MODEL 7
REMARK VINA RESULT:      -8.1      6.955      9.158
REMARK  Name = 
REMARK  6 active torsions:
REMARK  status: ('A' for Active; 'I' for Inactive)
REMARK    1  A    between atoms: C_1  and  C_2
REMARK    2  A    between atoms: C_5  and  C_6
REMARK    3  A    between atoms: C_7  and  N_8
REMARK    4  A    between atoms: N_11  and  N_12
REMARK    5  A    between atoms: C_13  and  C_15
REMARK    6  A    between atoms: C_24  and  O_25
REMARK                            x       y       z     vdW  Elec       q    Type
REMARK                         _______ _______ _______ _____ _____    ______ ____
ROOT
ATOM      1  N   UNL     1       8.939   9.452  18.298  0.00  0.00    +0.000 N 
ATOM      2  C   UNL     1       9.289  10.425  19.206  0.00  0.00    +0.000 C 
ATOM      3  O   UNL     1       9.215  10.249  20.423  0.00  0.00    +0.000 OA
ATOM      4  H   UNL     1       9.029   9.605  17.291  0.00  0.00    +0.000 HD
ENDROOT
BRANCH   2   5
ATOM      5  C   UNL     1       9.765  11.739  18.633  0.00  0.00    +0.000 A 
ATOM      6  C   UNL     1      10.675  11.678  17.575  0.00  0.00    +0.000 A 
ATOM      7  C   UNL     1      11.178  12.849  17.000  0.00  0.00    +0.000 A 
ATOM      8  C   UNL     1      10.783  14.114  17.457  0.00  0.00    +0.000 A 
ATOM      9  C   UNL     1      11.315  15.274  16.866  0.00  0.00    +0.000 A 
ATOM     10  C   UNL     1      10.952  16.544  17.309  0.00  0.00    +0.000 A 
ATOM     11  C   UNL     1      10.046  16.675  18.352  0.00  0.00    +0.000 A 
ATOM     12  C   UNL     1       9.506  15.531  18.951  0.00  0.00    +0.000 A 
ATOM     13  C   UNL     1       9.860  14.221  18.531  0.00  0.00    +0.000 A 
ATOM     14  C   UNL     1       9.357  13.009  19.100  0.00  0.00    +0.000 A 
BRANCH  14  15
ATOM     15  O   UNL     1       8.453  13.046  20.137  0.00  0.00    +0.000 OA
ATOM     16  H   UNL     1       8.443  13.920  20.555  0.00  0.00    +0.000 HD
ENDBRANCH  14  15
ENDBRANCH   2   5
BRANCH   1  20
ATOM     17  N   UNL     1       7.064   6.410  18.584  0.00  0.00    +0.000 N 
ATOM     18  C   UNL     1       7.498   7.588  18.008  0.00  0.00    +0.000 C 
ATOM     19  O   UNL     1       7.024   8.106  16.998  0.00  0.00    +0.000 OA
ATOM     20  N   UNL     1       8.536   8.179  18.708  0.00  0.00    +0.000 N 
ATOM     21  H   UNL     1       7.192   6.360  19.582  0.00  0.00    +0.000 HD
ATOM     22  H   UNL     1       8.899   7.846  19.595  0.00  0.00    +0.000 HD
BRANCH  17  29
ATOM     23  C   UNL     1       2.219   5.349  18.388  0.00  0.00    +0.000 C 
ATOM     24  C   UNL     1       3.626   5.102  17.927  0.00  0.00    +0.000 A 
ATOM     25  C   UNL     1       3.891   4.180  16.912  0.00  0.00    +0.000 A 
ATOM     26  C   UNL     1       5.197   3.992  16.458  0.00  0.00    +0.000 A 
ATOM     27  C   UNL     1       6.265   4.728  16.997  0.00  0.00    +0.000 A 
ATOM     28  C   UNL     1       7.657   4.447  16.507  0.00  0.00    +0.000 C 
ATOM     29  C   UNL     1       6.007   5.642  18.035  0.00  0.00    +0.000 A 
ATOM     30  C   UNL     1       4.692   5.815  18.496  0.00  0.00    +0.000 A 
ENDBRANCH  17  29
ENDBRANCH   1  20
TORSDOF 4
ENDMDL
MODEL 8
REMARK VINA RESULT:      -8.0      3.238      9.523
REMARK  Name = 
REMARK  6 active torsions:
REMARK  status: ('A' for Active; 'I' for Inactive)
REMARK    1  A    between atoms: C_1  and  C_2
REMARK    2  A    between atoms: C_5  and  C_6
REMARK    3  A    between atoms: C_7  and  N_8
REMARK    4  A    between atoms: N_11  and  N_12
REMARK    5  A    between atoms: C_13  and  C_15
REMARK    6  A    between atoms: C_24  and  O_25
REMARK                            x       y       z     vdW  Elec       q    Type
REMARK                         _______ _______ _______ _____ _____    ______ ____
ROOT
ATOM      1  N   UNL     1       0.645  10.079  17.975  0.00  0.00    +0.000 N 
ATOM      2  C   UNL     1       1.236   9.476  19.062  0.00  0.00    +0.000 C 
ATOM      3  O   UNL     1       1.081   9.892  20.211  0.00  0.00    +0.000 OA
ATOM      4  H   UNL     1       0.765   9.707  17.029  0.00  0.00    +0.000 HD
ENDROOT
BRANCH   2   5
ATOM      5  C   UNL     1       2.103   8.274  18.775  0.00  0.00    +0.000 A 
ATOM      6  C   UNL     1       2.821   8.279  17.576  0.00  0.00    +0.000 A 
ATOM      7  C   UNL     1       3.633   7.195  17.227  0.00  0.00    +0.000 A 
ATOM      8  C   UNL     1       3.758   6.079  18.064  0.00  0.00    +0.000 A 
ATOM      9  C   UNL     1       4.575   4.999  17.681  0.00  0.00    +0.000 A 
ATOM     10  C   UNL     1       4.707   3.870  18.486  0.00  0.00    +0.000 A 
ATOM     11  C   UNL     1       4.028   3.804  19.694  0.00  0.00    +0.000 A 
ATOM     12  C   UNL     1       3.212   4.870  20.092  0.00  0.00    +0.000 A 
ATOM     13  C   UNL     1       3.046   6.032  19.292  0.00  0.00    +0.000 A 
ATOM     14  C   UNL     1       2.226   7.154  19.629  0.00  0.00    +0.000 A 
BRANCH  14  15
ATOM     15  O   UNL     1       1.517   7.173  20.809  0.00  0.00    +0.000 OA
ATOM     16  H   UNL     1       2.051   6.826  21.538  0.00  0.00    +0.000 HD
ENDBRANCH  14  15
ENDBRANCH   2   5
BRANCH   1  20
ATOM     17  N   UNL     1      -2.357  12.007  18.317  0.00  0.00    +0.000 N 
ATOM     18  C   UNL     1      -1.556  10.882  18.350  0.00  0.00    +0.000 C 
ATOM     19  O   UNL     1      -1.950   9.731  18.532  0.00  0.00    +0.000 OA
ATOM     20  N   UNL     1      -0.220  11.165  18.120  0.00  0.00    +0.000 N 
ATOM     21  H   UNL     1      -2.015  12.747  17.726  0.00  0.00    +0.000 HD
ATOM     22  H   UNL     1       0.143  12.078  17.870  0.00  0.00    +0.000 HD
BRANCH  17  29
ATOM     23  C   UNL     1      -6.263  12.707  21.298  0.00  0.00    +0.000 C 
ATOM     24  C   UNL     1      -5.693  12.281  19.976  0.00  0.00    +0.000 A 
ATOM     25  C   UNL     1      -6.533  11.901  18.928  0.00  0.00    +0.000 A 
ATOM     26  C   UNL     1      -5.997  11.552  17.688  0.00  0.00    +0.000 A 
ATOM     27  C   UNL     1      -4.610  11.586  17.463  0.00  0.00    +0.000 A 
ATOM     28  C   UNL     1      -4.085  11.149  16.126  0.00  0.00    +0.000 C 
ATOM     29  C   UNL     1      -3.758  11.947  18.522  0.00  0.00    +0.000 A 
ATOM     30  C   UNL     1      -4.305  12.284  19.770  0.00  0.00    +0.000 A 
ENDBRANCH  17  29
ENDBRANCH   1  20
TORSDOF 4
ENDMDL
MODEL 9
REMARK VINA RESULT:      -8.0      1.588      2.356
REMARK  Name = 
REMARK  6 active torsions:
REMARK  status: ('A' for Active; 'I' for Inactive)
REMARK    1  A    between atoms: C_1  and  C_2
REMARK    2  A    between atoms: C_5  and  C_6
REMARK    3  A    between atoms: C_7  and  N_8
REMARK    4  A    between atoms: N_11  and  N_12
REMARK    5  A    between atoms: C_13  and  C_15
REMARK    6  A    between atoms: C_24  and  O_25
REMARK                            x       y       z     vdW  Elec       q    Type
REMARK                         _______ _______ _______ _____ _____    ______ ____
ROOT
ATOM      1  N   UNL     1       0.697   9.604  21.545  0.00  0.00    +0.000 N 
ATOM      2  C   UNL     1       0.161  10.124  22.700  0.00  0.00    +0.000 C 
ATOM      3  O   UNL     1       0.315   9.588  23.799  0.00  0.00    +0.000 OA
ATOM      4  H   UNL     1       0.580  10.074  20.643  0.00  0.00    +0.000 HD
ENDROOT
BRANCH   2   5
ATOM      5  C   UNL     1      -0.646  11.393  22.555  0.00  0.00    +0.000 A 
ATOM      6  C   UNL     1      -1.911  11.413  23.148  0.00  0.00    +0.000 A 
ATOM      7  C   UNL     1      -2.728  12.542  23.045  0.00  0.00    +0.000 A 
ATOM      8  C   UNL     1      -2.307  13.686  22.354  0.00  0.00    +0.000 A 
ATOM      9  C   UNL     1      -3.156  14.803  22.258  0.00  0.00    +0.000 A 
ATOM     10  C   UNL     1      -2.770  15.949  21.565  0.00  0.00    +0.000 A 
ATOM     11  C   UNL     1      -1.523  15.998  20.960  0.00  0.00    +0.000 A 
ATOM     12  C   UNL     1      -0.664  14.896  21.047  0.00  0.00    +0.000 A 
ATOM     13  C   UNL     1      -1.028  13.709  21.736  0.00  0.00    +0.000 A 
ATOM     14  C   UNL     1      -0.209  12.543  21.860  0.00  0.00    +0.000 A 
BRANCH  14  15
ATOM     15  O   UNL     1       1.043  12.505  21.290  0.00  0.00    +0.000 OA
ATOM     16  H   UNL     1       1.595  11.831  21.712  0.00  0.00    +0.000 HD
ENDBRANCH  14  15
ENDBRANCH   2   5
BRANCH   1  20
ATOM     17  N   UNL     1       2.407   6.637  20.485  0.00  0.00    +0.000 N 
ATOM     18  C   UNL     1       1.737   7.837  20.349  0.00  0.00    +0.000 C 
ATOM     19  O   UNL     1       1.345   8.319  19.287  0.00  0.00    +0.000 OA
ATOM     20  N   UNL     1       1.506   8.465  21.561  0.00  0.00    +0.000 N 
ATOM     21  H   UNL     1       2.248   6.165  21.361  0.00  0.00    +0.000 HD
ATOM     22  H   UNL     1       1.721   8.068  22.469  0.00  0.00    +0.000 HD
BRANCH  17  29
ATOM     23  C   UNL     1       5.117   5.929  16.388  0.00  0.00    +0.000 C 
ATOM     24  C   UNL     1       4.064   5.460  17.350  0.00  0.00    +0.000 A 
ATOM     25  C   UNL     1       3.472   4.205  17.202  0.00  0.00    +0.000 A 
ATOM     26  C   UNL     1       2.529   3.759  18.129  0.00  0.00    +0.000 A 
ATOM     27  C   UNL     1       2.166   4.550  19.231  0.00  0.00    +0.000 A 
ATOM     28  C   UNL     1       1.107   4.043  20.168  0.00  0.00    +0.000 C 
ATOM     29  C   UNL     1       2.743   5.825  19.373  0.00  0.00    +0.000 A 
ATOM     30  C   UNL     1       3.680   6.272  18.429  0.00  0.00    +0.000 A 
ENDBRANCH  17  29
ENDBRANCH   1  20
TORSDOF 4
ENDMDL
