MODEL 1
REMARK VINA RESULT:      -6.9      0.000      0.000
REMARK  Name = 
REMARK  10 active torsions:
REMARK  status: ('A' for Active; 'I' for Inactive)
REMARK    1  A    between atoms: C_1  and  C_2
REMARK    2  A    between atoms: C_2  and  C_3
REMARK    3  A    between atoms: C_3  and  C_4
REMARK    4  A    between atoms: C_4  and  O_6
REMARK    5  A    between atoms: O_6  and  C_7
REMARK    6  A    between atoms: C_10  and  O_11
REMARK    7  A    between atoms: O_11  and  C_12
REMARK    8  A    between atoms: C_12  and  C_14
REMARK    9  A    between atoms: C_14  and  C_15
REMARK   10  A    between atoms: C_15  and  C_16
REMARK                            x       y       z     vdW  Elec       q    Type
REMARK                         _______ _______ _______ _____ _____    ______ ____
ROOT
ATOM      1  C   UNL     1       4.016   5.829  17.778  0.00  0.00    +0.000 A 
ATOM      2  C   UNL     1       4.351   4.560  18.277  0.00  0.00    +0.000 A 
ATOM      3  C   UNL     1       3.885   4.163  19.524  0.00  0.00    +0.000 A 
ATOM      4  C   UNL     1       3.084   5.037  20.270  0.00  0.00    +0.000 A 
ATOM      5  C   UNL     1       2.705   6.313  19.779  0.00  0.00    +0.000 A 
ATOM      6  C   UNL     1       1.862   7.188  20.496  0.00  0.00    +0.000 A 
ATOM      7  C   UNL     1       1.477   8.421  19.966  0.00  0.00    +0.000 A 
ATOM      8 CL   UNL     1       0.449   9.463  20.873  0.00  0.00    +0.000 Cl
ATOM      9  C   UNL     1       1.914   8.808  18.709  0.00  0.00    +0.000 A 
ATOM     10  C   UNL     1       2.755   7.964  17.982  0.00  0.00    +0.000 A 
ATOM     11  C   UNL     1       3.175   6.712  18.500  0.00  0.00    +0.000 A 
ATOM     12  O   UNL     1       4.218   2.948  20.053  0.00  0.00    +0.000 OA
ATOM     13  C   UNL     1       3.646   1.858  19.342  0.00  0.00    +0.000 C 
ATOM     14  C   UNL     1       4.505   1.470  18.153  0.00  0.00    +0.000 C 
ATOM     15  C   UNL     1       4.474   2.554  17.091  0.00  0.00    +0.000 C 
ATOM     16  O   UNL     1       5.150   3.733  17.526  0.00  0.00    +0.000 OA
ENDROOT
BRANCH   1  17
ATOM     17  O   UNL     1       4.331   6.165  16.439  0.00  0.00    +0.000 OA
BRANCH  17  18
ATOM     18  C   UNL     1       5.676   6.386  16.176  0.00  0.00    +0.000 C 
ATOM     19  O   UNL     1       6.335   5.842  15.297  0.00  0.00    +0.000 OA
BRANCH  18  20
ATOM     20  C   UNL     1       6.206   7.383  17.184  0.00  0.00    +0.000 C 
BRANCH  20  22
ATOM     21  C   UNL     1       7.674   6.050  18.710  0.00  0.00    +0.000 C 
ATOM     22  C   UNL     1       7.636   7.066  17.581  0.00  0.00    +0.000 C 
ENDBRANCH  20  22
ENDBRANCH  18  20
ENDBRANCH  17  18
ENDBRANCH   1  17
BRANCH   4  23
ATOM     23  O   UNL     1       2.422   4.553  21.431  0.00  0.00    +0.000 OA
BRANCH  23  24
ATOM     24  C   UNL     1       1.517   3.492  21.352  0.00  0.00    +0.000 C 
ATOM     25  O   UNL     1       1.526   2.470  22.019  0.00  0.00    +0.000 OA
BRANCH  24  26
ATOM     26  C   UNL     1       0.491   3.819  20.291  0.00  0.00    +0.000 C 
BRANCH  26  27
ATOM     27  C   UNL     1       0.552   2.837  19.128  0.00  0.00    +0.000 C 
ATOM     28  C   UNL     1       0.920   3.519  17.819  0.00  0.00    +0.000 C 
ENDBRANCH  26  27
ENDBRANCH  24  26
ENDBRANCH  23  24
ENDBRANCH   4  23
TORSDOF 8
ENDMDL
MODEL 2
REMARK VINA RESULT:      -6.6      1.091      1.662
REMARK  Name = 
REMARK  10 active torsions:
REMARK  status: ('A' for Active; 'I' for Inactive)
REMARK    1  A    between atoms: C_1  and  C_2
REMARK    2  A    between atoms: C_2  and  C_3
REMARK    3  A    between atoms: C_3  and  C_4
REMARK    4  A    between atoms: C_4  and  O_6
REMARK    5  A    between atoms: O_6  and  C_7
REMARK    6  A    between atoms: C_10  and  O_11
REMARK    7  A    between atoms: O_11  and  C_12
REMARK    8  A    between atoms: C_12  and  C_14
REMARK    9  A    between atoms: C_14  and  C_15
REMARK   10  A    between atoms: C_15  and  C_16
REMARK                            x       y       z     vdW  Elec       q    Type
REMARK                         _______ _______ _______ _____ _____    ______ ____
ROOT
ATOM      1  C   UNL     1       4.165   5.530  17.635  0.00  0.00    +0.000 A 
ATOM      2  C   UNL     1       4.432   4.292  18.241  0.00  0.00    +0.000 A 
ATOM      3  C   UNL     1       3.934   4.022  19.510  0.00  0.00    +0.000 A 
ATOM      4  C   UNL     1       3.166   4.991  20.169  0.00  0.00    +0.000 A 
ATOM      5  C   UNL     1       2.855   6.238  19.569  0.00  0.00    +0.000 A 
ATOM      6  C   UNL     1       2.046   7.208  20.198  0.00  0.00    +0.000 A 
ATOM      7  C   UNL     1       1.727   8.409  19.564  0.00  0.00    +0.000 A 
ATOM      8 CL   UNL     1       0.740   9.569  20.367  0.00  0.00    +0.000 Cl
ATOM      9  C   UNL     1       2.197   8.670  18.286  0.00  0.00    +0.000 A 
ATOM     10  C   UNL     1       3.005   7.730  17.644  0.00  0.00    +0.000 A 
ATOM     11  C   UNL     1       3.358   6.507  18.269  0.00  0.00    +0.000 A 
ATOM     12  O   UNL     1       4.202   2.840  20.142  0.00  0.00    +0.000 OA
ATOM     13  C   UNL     1       3.587   1.723  19.514  0.00  0.00    +0.000 C 
ATOM     14  C   UNL     1       4.440   1.198  18.374  0.00  0.00    +0.000 C 
ATOM     15  C   UNL     1       4.474   2.191  17.226  0.00  0.00    +0.000 C 
ATOM     16  O   UNL     1       5.200   3.369  17.573  0.00  0.00    +0.000 OA
ENDROOT
BRANCH   1  17
ATOM     17  O   UNL     1       4.510   5.739  16.278  0.00  0.00    +0.000 OA
BRANCH  17  18
ATOM     18  C   UNL     1       5.813   6.164  16.050  0.00  0.00    +0.000 C 
ATOM     19  O   UNL     1       6.432   6.977  16.728  0.00  0.00    +0.000 OA
BRANCH  18  20
ATOM     20  C   UNL     1       6.327   5.487  14.798  0.00  0.00    +0.000 C 
BRANCH  20  22
ATOM     21  C   UNL     1       5.992   3.622  13.165  0.00  0.00    +0.000 C 
ATOM     22  C   UNL     1       5.413   4.357  14.362  0.00  0.00    +0.000 C 
ENDBRANCH  20  22
ENDBRANCH  18  20
ENDBRANCH  17  18
ENDBRANCH   1  17
BRANCH   4  23
ATOM     23  O   UNL     1       2.469   4.636  21.356  0.00  0.00    +0.000 OA
BRANCH  23  24
ATOM     24  C   UNL     1       1.532   3.600  21.355  0.00  0.00    +0.000 C 
ATOM     25  O   UNL     1       1.521   2.620  22.083  0.00  0.00    +0.000 OA
BRANCH  24  26
ATOM     26  C   UNL     1       0.499   3.894  20.290  0.00  0.00    +0.000 C 
BRANCH  26  27
ATOM     27  C   UNL     1       0.519   2.846  19.184  0.00  0.00    +0.000 C 
ATOM     28  C   UNL     1       0.972   3.426  17.852  0.00  0.00    +0.000 C 
ENDBRANCH  26  27
ENDBRANCH  24  26
ENDBRANCH  23  24
ENDBRANCH   4  23
TORSDOF 8
ENDMDL
MODEL 3
REMARK VINA RESULT:      -6.6      7.965     11.714
REMARK  Name = 
REMARK  10 active torsions:
REMARK  status: ('A' for Active; 'I' for Inactive)
REMARK    1  A    between atoms: C_1  and  C_2
REMARK    2  A    between atoms: C_2  and  C_3
REMARK    3  A    between atoms: C_3  and  C_4
REMARK    4  A    between atoms: C_4  and  O_6
REMARK    5  A    between atoms: O_6  and  C_7
REMARK    6  A    between atoms: C_10  and  O_11
REMARK    7  A    between atoms: O_11  and  C_12
REMARK    8  A    between atoms: C_12  and  C_14
REMARK    9  A    between atoms: C_14  and  C_15
REMARK   10  A    between atoms: C_15  and  C_16
REMARK                            x       y       z     vdW  Elec       q    Type
REMARK                         _______ _______ _______ _____ _____    ______ ____
ROOT
ATOM      1  C   UNL     1      -4.775  12.599  20.373  0.00  0.00    +0.000 A 
ATOM      2  C   UNL     1      -3.901  12.944  21.417  0.00  0.00    +0.000 A 
ATOM      3  C   UNL     1      -2.533  12.758  21.262  0.00  0.00    +0.000 A 
ATOM      4  C   UNL     1      -2.041  12.228  20.062  0.00  0.00    +0.000 A 
ATOM      5  C   UNL     1      -2.898  11.899  18.979  0.00  0.00    +0.000 A 
ATOM      6  C   UNL     1      -2.418  11.409  17.747  0.00  0.00    +0.000 A 
ATOM      7  C   UNL     1      -3.285  11.131  16.689  0.00  0.00    +0.000 A 
ATOM      8 CL   UNL     1      -2.661  10.529  15.201  0.00  0.00    +0.000 Cl
ATOM      9  C   UNL     1      -4.648  11.345  16.828  0.00  0.00    +0.000 A 
ATOM     10  C   UNL     1      -5.149  11.823  18.041  0.00  0.00    +0.000 A 
ATOM     11  C   UNL     1      -4.294  12.100  19.138  0.00  0.00    +0.000 A 
ATOM     12  O   UNL     1      -1.657  13.052  22.269  0.00  0.00    +0.000 OA
ATOM     13  C   UNL     1      -1.574  14.445  22.542  0.00  0.00    +0.000 C 
ATOM     14  C   UNL     1      -2.670  14.881  23.496  0.00  0.00    +0.000 C 
ATOM     15  C   UNL     1      -4.030  14.800  22.826  0.00  0.00    +0.000 C 
ATOM     16  O   UNL     1      -4.417  13.447  22.587  0.00  0.00    +0.000 OA
ENDROOT
BRANCH   1  17
ATOM     17  O   UNL     1      -6.143  12.957  20.454  0.00  0.00    +0.000 OA
BRANCH  17  18
ATOM     18  C   UNL     1      -6.940  12.113  21.216  0.00  0.00    +0.000 C 
ATOM     19  O   UNL     1      -6.886  10.888  21.223  0.00  0.00    +0.000 OA
BRANCH  18  20
ATOM     20  C   UNL     1      -7.915  12.957  22.007  0.00  0.00    +0.000 C 
BRANCH  20  22
ATOM     21  C   UNL     1      -7.829  14.030  24.265  0.00  0.00    +0.000 C 
ATOM     22  C   UNL     1      -7.773  12.718  23.499  0.00  0.00    +0.000 C 
ENDBRANCH  20  22
ENDBRANCH  18  20
ENDBRANCH  17  18
ENDBRANCH   1  17
BRANCH   4  23
ATOM     23  O   UNL     1      -0.642  12.251  19.813  0.00  0.00    +0.000 OA
BRANCH  23  24
ATOM     24  C   UNL     1       0.238  11.494  20.590  0.00  0.00    +0.000 C 
ATOM     25  O   UNL     1       1.240  11.892  21.162  0.00  0.00    +0.000 OA
BRANCH  24  26
ATOM     26  C   UNL     1      -0.262  10.067  20.621  0.00  0.00    +0.000 C 
BRANCH  26  27
ATOM     27  C   UNL     1       0.360   9.278  21.766  0.00  0.00    +0.000 C 
ATOM     28  C   UNL     1      -0.410   9.452  23.067  0.00  0.00    +0.000 C 
ENDBRANCH  26  27
ENDBRANCH  24  26
ENDBRANCH  23  24
ENDBRANCH   4  23
TORSDOF 8
ENDMDL
MODEL 4
REMARK VINA RESULT:      -6.3      7.207     10.014
REMARK  Name = 
REMARK  10 active torsions:
REMARK  status: ('A' for Active; 'I' for Inactive)
REMARK    1  A    between atoms: C_1  and  C_2
REMARK    2  A    between atoms: C_2  and  C_3
REMARK    3  A    between atoms: C_3  and  C_4
REMARK    4  A    between atoms: C_4  and  O_6
REMARK    5  A    between atoms: O_6  and  C_7
REMARK    6  A    between atoms: C_10  and  O_11
REMARK    7  A    between atoms: O_11  and  C_12
REMARK    8  A    between atoms: C_12  and  C_14
REMARK    9  A    between atoms: C_14  and  C_15
REMARK   10  A    between atoms: C_15  and  C_16
REMARK                            x       y       z     vdW  Elec       q    Type
REMARK                         _______ _______ _______ _____ _____    ______ ____
ROOT
ATOM      1  C   UNL     1      -1.463  11.165  19.884  0.00  0.00    +0.000 A 
ATOM      2  C   UNL     1      -2.058  12.027  20.819  0.00  0.00    +0.000 A 
ATOM      3  C   UNL     1      -3.234  12.692  20.496  0.00  0.00    +0.000 A 
ATOM      4  C   UNL     1      -3.815  12.492  19.237  0.00  0.00    +0.000 A 
ATOM      5  C   UNL     1      -3.253  11.603  18.283  0.00  0.00    +0.000 A 
ATOM      6  C   UNL     1      -3.848  11.354  17.029  0.00  0.00    +0.000 A 
ATOM      7  C   UNL     1      -3.290  10.445  16.129  0.00  0.00    +0.000 A 
ATOM      8 CL   UNL     1      -4.043  10.171  14.605  0.00  0.00    +0.000 Cl
ATOM      9  C   UNL     1      -2.133   9.756  16.459  0.00  0.00    +0.000 A 
ATOM     10  C   UNL     1      -1.520   9.991  17.692  0.00  0.00    +0.000 A 
ATOM     11  C   UNL     1      -2.056  10.919  18.621  0.00  0.00    +0.000 A 
ATOM     12  O   UNL     1      -3.822  13.562  21.370  0.00  0.00    +0.000 OA
ATOM     13  C   UNL     1      -4.343  12.920  22.527  0.00  0.00    +0.000 C 
ATOM     14  C   UNL     1      -3.267  12.735  23.580  0.00  0.00    +0.000 C 
ATOM     15  C   UNL     1      -2.237  11.716  23.125  0.00  0.00    +0.000 C 
ATOM     16  O   UNL     1      -1.455  12.212  22.040  0.00  0.00    +0.000 OA
ENDROOT
BRANCH   1  17
ATOM     17  O   UNL     1      -0.374  10.348  20.272  0.00  0.00    +0.000 OA
BRANCH  17  18
ATOM     18  C   UNL     1       0.858  10.695  19.732  0.00  0.00    +0.000 C 
ATOM     19  O   UNL     1       1.244  11.834  19.498  0.00  0.00    +0.000 OA
BRANCH  18  20
ATOM     20  C   UNL     1       1.629   9.426  19.442  0.00  0.00    +0.000 C 
BRANCH  20  22
ATOM     21  C   UNL     1       2.755   8.036  17.693  0.00  0.00    +0.000 C 
ATOM     22  C   UNL     1       1.952   9.297  17.964  0.00  0.00    +0.000 C 
ENDBRANCH  20  22
ENDBRANCH  18  20
ENDBRANCH  17  18
ENDBRANCH   1  17
BRANCH   4  23
ATOM     23  O   UNL     1      -5.125  12.984  18.989  0.00  0.00    +0.000 OA
BRANCH  23  24
ATOM     24  C   UNL     1      -6.250  12.200  19.261  0.00  0.00    +0.000 C 
ATOM     25  O   UNL     1      -6.321  11.267  20.045  0.00  0.00    +0.000 OA
BRANCH  24  26
ATOM     26  C   UNL     1      -7.398  12.707  18.418  0.00  0.00    +0.000 C 
BRANCH  26  27
ATOM     27  C   UNL     1      -6.947  13.056  17.005  0.00  0.00    +0.000 C 
ATOM     28  C   UNL     1      -7.197  14.518  16.669  0.00  0.00    +0.000 C 
ENDBRANCH  26  27
ENDBRANCH  24  26
ENDBRANCH  23  24
ENDBRANCH   4  23
TORSDOF 8
ENDMDL
MODEL 5
REMARK VINA RESULT:      -6.3      7.479     10.660
REMARK  Name = 
REMARK  10 active torsions:
REMARK  status: ('A' for Active; 'I' for Inactive)
REMARK    1  A    between atoms: C_1  and  C_2
REMARK    2  A    between atoms: C_2  and  C_3
REMARK    3  A    between atoms: C_3  and  C_4
REMARK    4  A    between atoms: C_4  and  O_6
REMARK    5  A    between atoms: O_6  and  C_7
REMARK    6  A    between atoms: C_10  and  O_11
REMARK    7  A    between atoms: O_11  and  C_12
REMARK    8  A    between atoms: C_12  and  C_14
REMARK    9  A    between atoms: C_14  and  C_15
REMARK   10  A    between atoms: C_15  and  C_16
REMARK                            x       y       z     vdW  Elec       q    Type
REMARK                         _______ _______ _______ _____ _____    ______ ____
ROOT
ATOM      1  C   UNL     1      -1.448  12.301  21.028  0.00  0.00    +0.000 A 
ATOM      2  C   UNL     1      -2.368  13.129  21.692  0.00  0.00    +0.000 A 
ATOM      3  C   UNL     1      -3.604  13.390  21.114  0.00  0.00    +0.000 A 
ATOM      4  C   UNL     1      -3.919  12.821  19.873  0.00  0.00    +0.000 A 
ATOM      5  C   UNL     1      -3.020  11.957  19.193  0.00  0.00    +0.000 A 
ATOM      6  C   UNL     1      -3.338  11.340  17.966  0.00  0.00    +0.000 A 
ATOM      7  C   UNL     1      -2.446  10.464  17.343  0.00  0.00    +0.000 A 
ATOM      8 CL   UNL     1      -2.868   9.732  15.842  0.00  0.00    +0.000 Cl
ATOM      9  C   UNL     1      -1.224  10.176  17.931  0.00  0.00    +0.000 A 
ATOM     10  C   UNL     1      -0.883  10.781  19.142  0.00  0.00    +0.000 A 
ATOM     11  C   UNL     1      -1.762  11.686  19.791  0.00  0.00    +0.000 A 
ATOM     12  O   UNL     1      -4.510  14.216  21.717  0.00  0.00    +0.000 OA
ATOM     13  C   UNL     1      -5.036  13.677  22.923  0.00  0.00    +0.000 C 
ATOM     14  C   UNL     1      -4.124  13.975  24.098  0.00  0.00    +0.000 C 
ATOM     15  C   UNL     1      -2.823  13.200  23.980  0.00  0.00    +0.000 C 
ATOM     16  O   UNL     1      -2.023  13.682  22.901  0.00  0.00    +0.000 OA
ENDROOT
BRANCH   1  17
ATOM     17  O   UNL     1      -0.269  11.884  21.692  0.00  0.00    +0.000 OA
BRANCH  17  18
ATOM     18  C   UNL     1      -0.367  10.692  22.396  0.00  0.00    +0.000 C 
ATOM     19  O   UNL     1      -1.270  10.385  23.167  0.00  0.00    +0.000 OA
BRANCH  18  20
ATOM     20  C   UNL     1       0.849   9.847  22.084  0.00  0.00    +0.000 C 
BRANCH  20  22
ATOM     21  C   UNL     1       1.508   7.932  20.616  0.00  0.00    +0.000 C 
ATOM     22  C   UNL     1       0.456   8.475  21.568  0.00  0.00    +0.000 C 
ENDBRANCH  20  22
ENDBRANCH  18  20
ENDBRANCH  17  18
ENDBRANCH   1  17
BRANCH   4  23
ATOM     23  O   UNL     1      -5.254  12.897  19.391  0.00  0.00    +0.000 OA
BRANCH  23  24
ATOM     24  C   UNL     1      -6.185  11.902  19.698  0.00  0.00    +0.000 C 
ATOM     25  O   UNL     1      -6.303  11.310  20.759  0.00  0.00    +0.000 OA
BRANCH  24  26
ATOM     26  C   UNL     1      -7.054  11.672  18.482  0.00  0.00    +0.000 C 
BRANCH  26  27
ATOM     27  C   UNL     1      -6.849  12.756  17.431  0.00  0.00    +0.000 C 
ATOM     28  C   UNL     1      -7.901  13.852  17.525  0.00  0.00    +0.000 C 
ENDBRANCH  26  27
ENDBRANCH  24  26
ENDBRANCH  23  24
ENDBRANCH   4  23
TORSDOF 8
ENDMDL
MODEL 6
REMARK VINA RESULT:      -6.2      5.625      8.227
REMARK  Name = 
REMARK  10 active torsions:
REMARK  status: ('A' for Active; 'I' for Inactive)
REMARK    1  A    between atoms: C_1  and  C_2
REMARK    2  A    between atoms: C_2  and  C_3
REMARK    3  A    between atoms: C_3  and  C_4
REMARK    4  A    between atoms: C_4  and  O_6
REMARK    5  A    between atoms: O_6  and  C_7
REMARK    6  A    between atoms: C_10  and  O_11
REMARK    7  A    between atoms: O_11  and  C_12
REMARK    8  A    between atoms: C_12  and  C_14
REMARK    9  A    between atoms: C_14  and  C_15
REMARK   10  A    between atoms: C_15  and  C_16
REMARK                            x       y       z     vdW  Elec       q    Type
REMARK                         _______ _______ _______ _____ _____    ______ ____
ROOT
ATOM      1  C   UNL     1      -0.128   9.985  18.999  0.00  0.00    +0.000 A 
ATOM      2  C   UNL     1       0.193  10.233  20.344  0.00  0.00    +0.000 A 
ATOM      3  C   UNL     1      -0.642  11.029  21.118  0.00  0.00    +0.000 A 
ATOM      4  C   UNL     1      -1.799  11.575  20.545  0.00  0.00    +0.000 A 
ATOM      5  C   UNL     1      -2.164  11.316  19.198  0.00  0.00    +0.000 A 
ATOM      6  C   UNL     1      -3.347  11.818  18.618  0.00  0.00    +0.000 A 
ATOM      7  C   UNL     1      -3.696  11.513  17.301  0.00  0.00    +0.000 A 
ATOM      8 CL   UNL     1      -5.147  12.149  16.627  0.00  0.00    +0.000 Cl
ATOM      9  C   UNL     1      -2.881  10.694  16.535  0.00  0.00    +0.000 A 
ATOM     10  C   UNL     1      -1.700  10.190  17.084  0.00  0.00    +0.000 A 
ATOM     11  C   UNL     1      -1.313  10.495  18.414  0.00  0.00    +0.000 A 
ATOM     12  O   UNL     1      -0.344  11.317  22.420  0.00  0.00    +0.000 OA
ATOM     13  C   UNL     1      -0.415  10.180  23.270  0.00  0.00    +0.000 C 
ATOM     14  C   UNL     1       0.884   9.396  23.244  0.00  0.00    +0.000 C 
ATOM     15  C   UNL     1       1.086   8.733  21.893  0.00  0.00    +0.000 C 
ATOM     16  O   UNL     1       1.342   9.695  20.871  0.00  0.00    +0.000 OA
ENDROOT
BRANCH   1  17
ATOM     17  O   UNL     1       0.615   9.031  18.263  0.00  0.00    +0.000 OA
BRANCH  17  18
ATOM     18  C   UNL     1       1.872   9.446  17.841  0.00  0.00    +0.000 C 
ATOM     19  O   UNL     1       2.214  10.605  17.636  0.00  0.00    +0.000 OA
BRANCH  18  20
ATOM     20  C   UNL     1       2.738   8.222  17.637  0.00  0.00    +0.000 C 
BRANCH  20  22
ATOM     21  C   UNL     1       3.322   5.933  18.461  0.00  0.00    +0.000 C 
ATOM     22  C   UNL     1       2.492   7.181  18.714  0.00  0.00    +0.000 C 
ENDBRANCH  20  22
ENDBRANCH  18  20
ENDBRANCH  17  18
ENDBRANCH   1  17
BRANCH   4  23
ATOM     23  O   UNL     1      -2.766  12.191  21.385  0.00  0.00    +0.000 OA
BRANCH  23  24
ATOM     24  C   UNL     1      -2.633  13.527  21.772  0.00  0.00    +0.000 C 
ATOM     25  O   UNL     1      -2.306  14.467  21.063  0.00  0.00    +0.000 OA
BRANCH  24  26
ATOM     26  C   UNL     1      -2.974  13.633  23.241  0.00  0.00    +0.000 C 
BRANCH  26  27
ATOM     27  C   UNL     1      -4.389  13.146  23.526  0.00  0.00    +0.000 C 
ATOM     28  C   UNL     1      -4.469  12.341  24.815  0.00  0.00    +0.000 C 
ENDBRANCH  26  27
ENDBRANCH  24  26
ENDBRANCH  23  24
ENDBRANCH   4  23
TORSDOF 8
ENDMDL
MODEL 7
REMARK VINA RESULT:      -6.2      6.881     10.543
REMARK  Name = 
REMARK  10 active torsions:
REMARK  status: ('A' for Active; 'I' for Inactive)
REMARK    1  A    between atoms: C_1  and  C_2
REMARK    2  A    between atoms: C_2  and  C_3
REMARK    3  A    between atoms: C_3  and  C_4
REMARK    4  A    between atoms: C_4  and  O_6
REMARK    5  A    between atoms: O_6  and  C_7
REMARK    6  A    between atoms: C_10  and  O_11
REMARK    7  A    between atoms: O_11  and  C_12
REMARK    8  A    between atoms: C_12  and  C_14
REMARK    9  A    between atoms: C_14  and  C_15
REMARK   10  A    between atoms: C_15  and  C_16
REMARK                            x       y       z     vdW  Elec       q    Type
REMARK                         _______ _______ _______ _____ _____    ______ ____
ROOT
ATOM      1  C   UNL     1      -3.159  12.565  20.184  0.00  0.00    +0.000 A 
ATOM      2  C   UNL     1      -1.991  12.746  20.942  0.00  0.00    +0.000 A 
ATOM      3  C   UNL     1      -0.800  12.166  20.525  0.00  0.00    +0.000 A 
ATOM      4  C   UNL     1      -0.778  11.406  19.348  0.00  0.00    +0.000 A 
ATOM      5  C   UNL     1      -1.936  11.232  18.546  0.00  0.00    +0.000 A 
ATOM      6  C   UNL     1      -1.924  10.509  17.335  0.00  0.00    +0.000 A 
ATOM      7  C   UNL     1      -3.072  10.389  16.550  0.00  0.00    +0.000 A 
ATOM      8 CL   UNL     1      -3.018   9.495  15.079  0.00  0.00    +0.000 Cl
ATOM      9  C   UNL     1      -4.256  10.992  16.946  0.00  0.00    +0.000 A 
ATOM     10  C   UNL     1      -4.296  11.707  18.145  0.00  0.00    +0.000 A 
ATOM     11  C   UNL     1      -3.150  11.834  18.971  0.00  0.00    +0.000 A 
ATOM     12  O   UNL     1       0.348  12.295  21.255  0.00  0.00    +0.000 OA
ATOM     13  C   UNL     1       0.846  13.627  21.276  0.00  0.00    +0.000 C 
ATOM     14  C   UNL     1       0.174  14.445  22.362  0.00  0.00    +0.000 C 
ATOM     15  C   UNL     1      -1.287  14.689  22.026  0.00  0.00    +0.000 C 
ATOM     16  O   UNL     1      -2.049  13.485  22.099  0.00  0.00    +0.000 OA
ENDROOT
BRANCH   1  17
ATOM     17  O   UNL     1      -4.326  13.301  20.502  0.00  0.00    +0.000 OA
BRANCH  17  18
ATOM     18  C   UNL     1      -5.212  12.676  21.369  0.00  0.00    +0.000 C 
ATOM     19  O   UNL     1      -4.977  12.358  22.529  0.00  0.00    +0.000 OA
BRANCH  18  20
ATOM     20  C   UNL     1      -6.506  12.416  20.628  0.00  0.00    +0.000 C 
BRANCH  20  22
ATOM     21  C   UNL     1      -7.915  14.237  21.606  0.00  0.00    +0.000 C 
ATOM     22  C   UNL     1      -7.713  12.735  21.490  0.00  0.00    +0.000 C 
ENDBRANCH  20  22
ENDBRANCH  18  20
ENDBRANCH  17  18
ENDBRANCH   1  17
BRANCH   4  23
ATOM     23  O   UNL     1       0.471  11.008  18.800  0.00  0.00    +0.000 OA
BRANCH  23  24
ATOM     24  C   UNL     1       1.021   9.760  19.100  0.00  0.00    +0.000 C 
ATOM     25  O   UNL     1       1.030   9.204  20.187  0.00  0.00    +0.000 OA
BRANCH  24  26
ATOM     26  C   UNL     1       1.612   9.183  17.833  0.00  0.00    +0.000 C 
BRANCH  26  27
ATOM     27  C   UNL     1       2.757   8.223  18.132  0.00  0.00    +0.000 C 
ATOM     28  C   UNL     1       2.319   6.768  18.061  0.00  0.00    +0.000 C 
ENDBRANCH  26  27
ENDBRANCH  24  26
ENDBRANCH  23  24
ENDBRANCH   4  23
TORSDOF 8
ENDMDL
MODEL 8
REMARK VINA RESULT:      -6.2      7.159     10.871
REMARK  Name = 
REMARK  10 active torsions:
REMARK  status: ('A' for Active; 'I' for Inactive)
REMARK    1  A    between atoms: C_1  and  C_2
REMARK    2  A    between atoms: C_2  and  C_3
REMARK    3  A    between atoms: C_3  and  C_4
REMARK    4  A    between atoms: C_4  and  O_6
REMARK    5  A    between atoms: O_6  and  C_7
REMARK    6  A    between atoms: C_10  and  O_11
REMARK    7  A    between atoms: O_11  and  C_12
REMARK    8  A    between atoms: C_12  and  C_14
REMARK    9  A    between atoms: C_14  and  C_15
REMARK   10  A    between atoms: C_15  and  C_16
REMARK                            x       y       z     vdW  Elec       q    Type
REMARK                         _______ _______ _______ _____ _____    ______ ____
ROOT
ATOM      1  C   UNL     1      -3.823  12.432  19.923  0.00  0.00    +0.000 A 
ATOM      2  C   UNL     1      -2.871  12.496  20.953  0.00  0.00    +0.000 A 
ATOM      3  C   UNL     1      -1.640  11.872  20.795  0.00  0.00    +0.000 A 
ATOM      4  C   UNL     1      -1.362  11.187  19.605  0.00  0.00    +0.000 A 
ATOM      5  C   UNL     1      -2.293  11.132  18.535  0.00  0.00    +0.000 A 
ATOM      6  C   UNL     1      -2.013  10.487  17.313  0.00  0.00    +0.000 A 
ATOM      7  C   UNL     1      -2.936  10.485  16.265  0.00  0.00    +0.000 A 
ATOM      8 CL   UNL     1      -2.560   9.683  14.789  0.00  0.00    +0.000 Cl
ATOM      9  C   UNL     1      -4.154  11.132  16.407  0.00  0.00    +0.000 A 
ATOM     10  C   UNL     1      -4.458  11.772  17.611  0.00  0.00    +0.000 A 
ATOM     11  C   UNL     1      -3.546  11.778  18.697  0.00  0.00    +0.000 A 
ATOM     12  O   UNL     1      -0.703  11.886  21.790  0.00  0.00    +0.000 OA
ATOM     13  C   UNL     1      -0.169  13.182  22.031  0.00  0.00    +0.000 C 
ATOM     14  C   UNL     1      -1.052  13.970  22.980  0.00  0.00    +0.000 C 
ATOM     15  C   UNL     1      -2.373  14.321  22.319  0.00  0.00    +0.000 C 
ATOM     16  O   UNL     1      -3.181  13.163  22.114  0.00  0.00    +0.000 OA
ENDROOT
BRANCH   1  17
ATOM     17  O   UNL     1      -4.999  13.216  20.002  0.00  0.00    +0.000 OA
BRANCH  17  18
ATOM     18  C   UNL     1      -6.068  12.628  20.667  0.00  0.00    +0.000 C 
ATOM     19  O   UNL     1      -6.512  11.505  20.460  0.00  0.00    +0.000 OA
BRANCH  18  20
ATOM     20  C   UNL     1      -6.620  13.624  21.663  0.00  0.00    +0.000 C 
BRANCH  20  22
ATOM     21  C   UNL     1      -6.349  12.781  24.003  0.00  0.00    +0.000 C 
ATOM     22  C   UNL     1      -7.300  12.927  22.827  0.00  0.00    +0.000 C 
ENDBRANCH  20  22
ENDBRANCH  18  20
ENDBRANCH  17  18
ENDBRANCH   1  17
BRANCH   4  23
ATOM     23  O   UNL     1      -0.034  10.749  19.349  0.00  0.00    +0.000 OA
BRANCH  23  24
ATOM     24  C   UNL     1       0.889  11.587  18.718  0.00  0.00    +0.000 C 
ATOM     25  O   UNL     1       0.872  12.808  18.691  0.00  0.00    +0.000 OA
BRANCH  24  26
ATOM     26  C   UNL     1       1.946  10.726  18.066  0.00  0.00    +0.000 C 
BRANCH  26  27
ATOM     27  C   UNL     1       1.471   9.288  17.892  0.00  0.00    +0.000 C 
ATOM     28  C   UNL     1       2.630   8.304  17.845  0.00  0.00    +0.000 C 
ENDBRANCH  26  27
ENDBRANCH  24  26
ENDBRANCH  23  24
ENDBRANCH   4  23
TORSDOF 8
ENDMDL
MODEL 9
REMARK VINA RESULT:      -6.1      7.574     11.077
REMARK  Name = 
REMARK  10 active torsions:
REMARK  status: ('A' for Active; 'I' for Inactive)
REMARK    1  A    between atoms: C_1  and  C_2
REMARK    2  A    between atoms: C_2  and  C_3
REMARK    3  A    between atoms: C_3  and  C_4
REMARK    4  A    between atoms: C_4  and  O_6
REMARK    5  A    between atoms: O_6  and  C_7
REMARK    6  A    between atoms: C_10  and  O_11
REMARK    7  A    between atoms: O_11  and  C_12
REMARK    8  A    between atoms: C_12  and  C_14
REMARK    9  A    between atoms: C_14  and  C_15
REMARK   10  A    between atoms: C_15  and  C_16
REMARK                            x       y       z     vdW  Elec       q    Type
REMARK                         _______ _______ _______ _____ _____    ______ ____
ROOT
ATOM      1  C   UNL     1      -4.143  12.580  20.408  0.00  0.00    +0.000 A 
ATOM      2  C   UNL     1      -3.111  12.710  21.352  0.00  0.00    +0.000 A 
ATOM      3  C   UNL     1      -1.821  12.312  21.025  0.00  0.00    +0.000 A 
ATOM      4  C   UNL     1      -1.564  11.785  19.752  0.00  0.00    +0.000 A 
ATOM      5  C   UNL     1      -2.580  11.670  18.768  0.00  0.00    +0.000 A 
ATOM      6  C   UNL     1      -2.331  11.185  17.467  0.00  0.00    +0.000 A 
ATOM      7  C   UNL     1      -3.346  11.121  16.510  0.00  0.00    +0.000 A 
ATOM      8 CL   UNL     1      -3.004  10.519  14.934  0.00  0.00    +0.000 Cl
ATOM      9  C   UNL     1      -4.628  11.546  16.822  0.00  0.00    +0.000 A 
ATOM     10  C   UNL     1      -4.902  12.023  18.106  0.00  0.00    +0.000 A 
ATOM     11  C   UNL     1      -3.895  12.086  19.103  0.00  0.00    +0.000 A 
ATOM     12  O   UNL     1      -0.801  12.395  21.930  0.00  0.00    +0.000 OA
ATOM     13  C   UNL     1      -0.451  13.735  22.251  0.00  0.00    +0.000 C 
ATOM     14  C   UNL     1      -1.344  14.284  23.348  0.00  0.00    +0.000 C 
ATOM     15  C   UNL     1      -2.764  14.470  22.845  0.00  0.00    +0.000 C 
ATOM     16  O   UNL     1      -3.400  13.217  22.596  0.00  0.00    +0.000 OA
ENDROOT
BRANCH   1  17
ATOM     17  O   UNL     1      -5.411  13.151  20.668  0.00  0.00    +0.000 OA
BRANCH  17  18
ATOM     18  C   UNL     1      -5.586  14.454  20.221  0.00  0.00    +0.000 C 
ATOM     19  O   UNL     1      -4.869  15.410  20.496  0.00  0.00    +0.000 OA
BRANCH  18  20
ATOM     20  C   UNL     1      -6.834  14.507  19.367  0.00  0.00    +0.000 C 
BRANCH  20  22
ATOM     21  C   UNL     1      -7.054  14.857  16.900  0.00  0.00    +0.000 C 
ATOM     22  C   UNL     1      -6.687  15.499  18.228  0.00  0.00    +0.000 C 
ENDBRANCH  20  22
ENDBRANCH  18  20
ENDBRANCH  17  18
ENDBRANCH   1  17
BRANCH   4  23
ATOM     23  O   UNL     1      -0.218  11.594  19.337  0.00  0.00    +0.000 OA
BRANCH  23  24
ATOM     24  C   UNL     1       0.402  10.349  19.465  0.00  0.00    +0.000 C 
ATOM     25  O   UNL     1       0.111   9.462  20.252  0.00  0.00    +0.000 OA
BRANCH  24  26
ATOM     26  C   UNL     1       1.512  10.263  18.443  0.00  0.00    +0.000 C 
BRANCH  26  27
ATOM     27  C   UNL     1       1.496   8.931  17.704  0.00  0.00    +0.000 C 
ATOM     28  C   UNL     1       2.734   8.096  18.000  0.00  0.00    +0.000 C 
ENDBRANCH  26  27
ENDBRANCH  24  26
ENDBRANCH  23  24
ENDBRANCH   4  23
TORSDOF 8
ENDMDL
