MODEL 1
REMARK VINA RESULT:      -5.2      0.000      0.000
REMARK  Name = 
REMARK  9 active torsions:
REMARK  status: ('A' for Active; 'I' for Inactive)
REMARK    1  A    between atoms: C_1  and  C_2
REMARK    2  A    between atoms: C_2  and  C_3
REMARK    3  A    between atoms: C_3  and  C_4
REMARK    4  A    between atoms: C_4  and  C_5
REMARK    5  A    between atoms: C_5  and  C_6
REMARK    6  A    between atoms: C_6  and  C_7
REMARK    7  A    between atoms: C_7  and  C_8
REMARK    8  A    between atoms: C_8  and  N_9
REMARK    9  A    between atoms: N_12  and  C_13
REMARK                            x       y       z     vdW  Elec       q    Type
REMARK                         _______ _______ _______ _____ _____    ______ ____
ROOT
ATOM      1  C   UNL     1       4.513   4.594  16.659  0.00  0.00    +0.000 C 
ENDROOT
BRANCH   1   2
ATOM      2  C   UNL     1       5.450   5.567  15.933  0.00  0.00    +0.000 C 
BRANCH   2   3
ATOM      3  C   UNL     1       6.843   4.966  15.716  0.00  0.00    +0.000 C 
BRANCH   3   4
ATOM      4  C   UNL     1       7.125   4.703  14.238  0.00  0.00    +0.000 C 
BRANCH   4   5
ATOM      5  C   UNL     1       6.035   3.828  13.615  0.00  0.00    +0.000 C 
BRANCH   5   7
ATOM      6  C   UNL     1       5.363   2.470  11.603  0.00  0.00    +0.000 C 
ATOM      7  C   UNL     1       6.368   3.461  12.168  0.00  0.00    +0.000 C 
ENDBRANCH   5   7
ENDBRANCH   4   5
ENDBRANCH   3   4
ENDBRANCH   2   3
ENDBRANCH   1   2
BRANCH   1   8
ATOM      8  C   UNL     1       4.988   4.302  18.089  0.00  0.00    +0.000 C 
BRANCH   8   9
ATOM      9  N   UNL     1       4.187   3.274  18.724  0.00  0.00    +0.000 N 
ATOM     10  C   UNL     1       3.499   2.274  18.058  0.00  0.00    +0.000 C 
ATOM     11  C   UNL     1       2.462   1.868  18.810  0.00  0.00    +0.000 C 
ATOM     12  N   UNL     1       2.449   2.568  20.004  0.00  0.00    +0.000 N 
ATOM     13  C   UNL     1       1.275   2.829  20.800  0.00  0.00    +0.000 C 
ATOM     14  C   UNL     1       3.568   3.524  20.034  0.00  0.00    +0.000 C 
ENDBRANCH   8   9
ENDBRANCH   1   8
TORSDOF 7
ENDMDL
MODEL 2
REMARK VINA RESULT:      -5.1      1.171      1.272
REMARK  Name = 
REMARK  9 active torsions:
REMARK  status: ('A' for Active; 'I' for Inactive)
REMARK    1  A    between atoms: C_1  and  C_2
REMARK    2  A    between atoms: C_2  and  C_3
REMARK    3  A    between atoms: C_3  and  C_4
REMARK    4  A    between atoms: C_4  and  C_5
REMARK    5  A    between atoms: C_5  and  C_6
REMARK    6  A    between atoms: C_6  and  C_7
REMARK    7  A    between atoms: C_7  and  C_8
REMARK    8  A    between atoms: C_8  and  N_9
REMARK    9  A    between atoms: N_12  and  C_13
REMARK                            x       y       z     vdW  Elec       q    Type
REMARK                         _______ _______ _______ _____ _____    ______ ____
ROOT
ATOM      1  C   UNL     1       4.469   5.868  17.538  0.00  0.00    +0.000 C 
ENDROOT
BRANCH   1   2
ATOM      2  C   UNL     1       5.633   6.093  16.566  0.00  0.00    +0.000 C 
BRANCH   2   3
ATOM      3  C   UNL     1       6.561   4.875  16.492  0.00  0.00    +0.000 C 
BRANCH   3   4
ATOM      4  C   UNL     1       5.991   3.780  15.591  0.00  0.00    +0.000 C 
BRANCH   4   5
ATOM      5  C   UNL     1       5.559   4.347  14.237  0.00  0.00    +0.000 C 
BRANCH   5   7
ATOM      6  C   UNL     1       5.636   3.080  12.062  0.00  0.00    +0.000 C 
ATOM      7  C   UNL     1       6.448   3.833  13.104  0.00  0.00    +0.000 C 
ENDBRANCH   5   7
ENDBRANCH   4   5
ENDBRANCH   3   4
ENDBRANCH   2   3
ENDBRANCH   1   2
BRANCH   1   8
ATOM      8  C   UNL     1       4.963   5.506  18.946  0.00  0.00    +0.000 C 
BRANCH   8   9
ATOM      9  N   UNL     1       4.214   4.401  19.512  0.00  0.00    +0.000 N 
ATOM     10  C   UNL     1       4.471   3.061  19.278  0.00  0.00    +0.000 C 
ATOM     11  C   UNL     1       3.343   2.352  19.451  0.00  0.00    +0.000 C 
ATOM     12  N   UNL     1       2.315   3.198  19.831  0.00  0.00    +0.000 N 
ATOM     13  C   UNL     1       0.912   2.959  19.593  0.00  0.00    +0.000 C 
ATOM     14  C   UNL     1       2.809   4.583  19.902  0.00  0.00    +0.000 C 
ENDBRANCH   8   9
ENDBRANCH   1   8
TORSDOF 7
ENDMDL
MODEL 3
REMARK VINA RESULT:      -5.1      3.101      6.472
REMARK  Name = 
REMARK  9 active torsions:
REMARK  status: ('A' for Active; 'I' for Inactive)
REMARK    1  A    between atoms: C_1  and  C_2
REMARK    2  A    between atoms: C_2  and  C_3
REMARK    3  A    between atoms: C_3  and  C_4
REMARK    4  A    between atoms: C_4  and  C_5
REMARK    5  A    between atoms: C_5  and  C_6
REMARK    6  A    between atoms: C_6  and  C_7
REMARK    7  A    between atoms: C_7  and  C_8
REMARK    8  A    between atoms: C_8  and  N_9
REMARK    9  A    between atoms: N_12  and  C_13
REMARK                            x       y       z     vdW  Elec       q    Type
REMARK                         _______ _______ _______ _____ _____    ______ ____
ROOT
ATOM      1  C   UNL     1       2.985   3.446  17.232  0.00  0.00    +0.000 C 
ENDROOT
BRANCH   1   2
ATOM      2  C   UNL     1       2.403   2.090  17.646  0.00  0.00    +0.000 C 
BRANCH   2   3
ATOM      3  C   UNL     1       1.376   2.228  18.775  0.00  0.00    +0.000 C 
BRANCH   3   4
ATOM      4  C   UNL     1       2.049   2.361  20.141  0.00  0.00    +0.000 C 
BRANCH   4   5
ATOM      5  C   UNL     1       1.237   3.265  21.070  0.00  0.00    +0.000 C 
BRANCH   5   7
ATOM      6  C   UNL     1       2.567   5.295  20.397  0.00  0.00    +0.000 C 
ATOM      7  C   UNL     1       1.176   4.701  20.545  0.00  0.00    +0.000 C 
ENDBRANCH   5   7
ENDBRANCH   4   5
ENDBRANCH   3   4
ENDBRANCH   2   3
ENDBRANCH   1   2
BRANCH   1   8
ATOM      8  C   UNL     1       4.488   3.537  17.527  0.00  0.00    +0.000 C 
BRANCH   8   9
ATOM      9  N   UNL     1       4.921   4.909  17.703  0.00  0.00    +0.000 N 
ATOM     10  C   UNL     1       4.764   5.921  16.770  0.00  0.00    +0.000 C 
ATOM     11  C   UNL     1       5.710   6.856  16.960  0.00  0.00    +0.000 C 
ATOM     12  N   UNL     1       6.503   6.504  18.039  0.00  0.00    +0.000 N 
ATOM     13  C   UNL     1       7.876   6.906  18.226  0.00  0.00    +0.000 C 
ATOM     14  C   UNL     1       6.044   5.221  18.598  0.00  0.00    +0.000 C 
ENDBRANCH   8   9
ENDBRANCH   1   8
TORSDOF 7
ENDMDL
MODEL 4
REMARK VINA RESULT:      -5.1      2.454      6.030
REMARK  Name = 
REMARK  9 active torsions:
REMARK  status: ('A' for Active; 'I' for Inactive)
REMARK    1  A    between atoms: C_1  and  C_2
REMARK    2  A    between atoms: C_2  and  C_3
REMARK    3  A    between atoms: C_3  and  C_4
REMARK    4  A    between atoms: C_4  and  C_5
REMARK    5  A    between atoms: C_5  and  C_6
REMARK    6  A    between atoms: C_6  and  C_7
REMARK    7  A    between atoms: C_7  and  C_8
REMARK    8  A    between atoms: C_8  and  N_9
REMARK    9  A    between atoms: N_12  and  C_13
REMARK                            x       y       z     vdW  Elec       q    Type
REMARK                         _______ _______ _______ _____ _____    ______ ____
ROOT
ATOM      1  C   UNL     1       1.998   2.268  18.169  0.00  0.00    +0.000 C 
ENDROOT
BRANCH   1   2
ATOM      2  C   UNL     1       1.194   3.398  18.822  0.00  0.00    +0.000 C 
BRANCH   2   3
ATOM      3  C   UNL     1       1.347   3.401  20.347  0.00  0.00    +0.000 C 
BRANCH   3   4
ATOM      4  C   UNL     1       2.185   4.584  20.832  0.00  0.00    +0.000 C 
BRANCH   4   5
ATOM      5  C   UNL     1       1.468   5.911  20.575  0.00  0.00    +0.000 C 
BRANCH   5   7
ATOM      6  C   UNL     1       2.535   6.540  18.382  0.00  0.00    +0.000 C 
ATOM      7  C   UNL     1       2.373   6.907  19.848  0.00  0.00    +0.000 C 
ENDBRANCH   5   7
ENDBRANCH   4   5
ENDBRANCH   3   4
ENDBRANCH   2   3
ENDBRANCH   1   2
BRANCH   1   8
ATOM      8  C   UNL     1       3.469   2.283  18.610  0.00  0.00    +0.000 C 
BRANCH   8   9
ATOM      9  N   UNL     1       4.188   3.409  18.049  0.00  0.00    +0.000 N 
ATOM     10  C   UNL     1       4.320   3.678  16.696  0.00  0.00    +0.000 C 
ATOM     11  C   UNL     1       5.440   4.390  16.489  0.00  0.00    +0.000 C 
ATOM     12  N   UNL     1       6.066   4.637  17.698  0.00  0.00    +0.000 N 
ATOM     13  C   UNL     1       7.481   4.865  17.870  0.00  0.00    +0.000 C 
ATOM     14  C   UNL     1       5.297   4.023  18.793  0.00  0.00    +0.000 C 
ENDBRANCH   8   9
ENDBRANCH   1   8
TORSDOF 7
ENDMDL
MODEL 5
REMARK VINA RESULT:      -5.1      2.059      6.487
REMARK  Name = 
REMARK  9 active torsions:
REMARK  status: ('A' for Active; 'I' for Inactive)
REMARK    1  A    between atoms: C_1  and  C_2
REMARK    2  A    between atoms: C_2  and  C_3
REMARK    3  A    between atoms: C_3  and  C_4
REMARK    4  A    between atoms: C_4  and  C_5
REMARK    5  A    between atoms: C_5  and  C_6
REMARK    6  A    between atoms: C_6  and  C_7
REMARK    7  A    between atoms: C_7  and  C_8
REMARK    8  A    between atoms: C_8  and  N_9
REMARK    9  A    between atoms: N_12  and  C_13
REMARK                            x       y       z     vdW  Elec       q    Type
REMARK                         _______ _______ _______ _____ _____    ______ ____
ROOT
ATOM      1  C   UNL     1       3.622   5.509  18.985  0.00  0.00    +0.000 C 
ENDROOT
BRANCH   1   2
ATOM      2  C   UNL     1       2.185   5.986  19.220  0.00  0.00    +0.000 C 
BRANCH   2   3
ATOM      3  C   UNL     1       1.713   5.701  20.650  0.00  0.00    +0.000 C 
BRANCH   3   4
ATOM      4  C   UNL     1       2.278   4.386  21.183  0.00  0.00    +0.000 C 
BRANCH   4   5
ATOM      5  C   UNL     1       1.260   3.252  21.045  0.00  0.00    +0.000 C 
BRANCH   5   7
ATOM      6  C   UNL     1       0.747   2.432  18.719  0.00  0.00    +0.000 C 
ATOM      7  C   UNL     1       1.651   2.278  19.932  0.00  0.00    +0.000 C 
ENDBRANCH   5   7
ENDBRANCH   4   5
ENDBRANCH   3   4
ENDBRANCH   2   3
ENDBRANCH   1   2
BRANCH   1   8
ATOM      8  C   UNL     1       3.712   4.512  17.822  0.00  0.00    +0.000 C 
BRANCH   8   9
ATOM      9  N   UNL     1       4.791   4.841  16.911  0.00  0.00    +0.000 N 
ATOM     10  C   UNL     1       4.972   6.071  16.301  0.00  0.00    +0.000 C 
ATOM     11  C   UNL     1       5.655   5.905  15.156  0.00  0.00    +0.000 C 
ATOM     12  N   UNL     1       5.968   4.567  14.989  0.00  0.00    +0.000 N 
ATOM     13  C   UNL     1       6.187   3.918  13.719  0.00  0.00    +0.000 C 
ATOM     14  C   UNL     1       5.435   3.785  16.117  0.00  0.00    +0.000 C 
ENDBRANCH   8   9
ENDBRANCH   1   8
TORSDOF 7
ENDMDL
MODEL 6
REMARK VINA RESULT:      -5.1      1.867      6.559
REMARK  Name = 
REMARK  9 active torsions:
REMARK  status: ('A' for Active; 'I' for Inactive)
REMARK    1  A    between atoms: C_1  and  C_2
REMARK    2  A    between atoms: C_2  and  C_3
REMARK    3  A    between atoms: C_3  and  C_4
REMARK    4  A    between atoms: C_4  and  C_5
REMARK    5  A    between atoms: C_5  and  C_6
REMARK    6  A    between atoms: C_6  and  C_7
REMARK    7  A    between atoms: C_7  and  C_8
REMARK    8  A    between atoms: C_8  and  N_9
REMARK    9  A    between atoms: N_12  and  C_13
REMARK                            x       y       z     vdW  Elec       q    Type
REMARK                         _______ _______ _______ _____ _____    ______ ____
ROOT
ATOM      1  C   UNL     1       3.078   2.964  17.559  0.00  0.00    +0.000 C 
ENDROOT
BRANCH   1   2
ATOM      2  C   UNL     1       2.340   2.064  18.556  0.00  0.00    +0.000 C 
BRANCH   2   3
ATOM      3  C   UNL     1       2.681   2.418  20.008  0.00  0.00    +0.000 C 
BRANCH   3   4
ATOM      4  C   UNL     1       1.453   2.905  20.777  0.00  0.00    +0.000 C 
BRANCH   4   5
ATOM      5  C   UNL     1       0.951   4.241  20.227  0.00  0.00    +0.000 C 
BRANCH   5   7
ATOM      6  C   UNL     1       2.343   6.267  19.676  0.00  0.00    +0.000 C 
ATOM      7  C   UNL     1       1.752   5.417  20.789  0.00  0.00    +0.000 C 
ENDBRANCH   5   7
ENDBRANCH   4   5
ENDBRANCH   3   4
ENDBRANCH   2   3
ENDBRANCH   1   2
BRANCH   1   8
ATOM      8  C   UNL     1       4.280   3.668  18.205  0.00  0.00    +0.000 C 
BRANCH   8   9
ATOM      9  N   UNL     1       5.075   4.383  17.226  0.00  0.00    +0.000 N 
ATOM     10  C   UNL     1       4.802   5.655  16.751  0.00  0.00    +0.000 C 
ATOM     11  C   UNL     1       5.334   5.798  15.526  0.00  0.00    +0.000 C 
ATOM     12  N   UNL     1       5.997   4.638  15.166  0.00  0.00    +0.000 N 
ATOM     13  C   UNL     1       6.214   4.191  13.812  0.00  0.00    +0.000 C 
ATOM     14  C   UNL     1       5.880   3.642  16.244  0.00  0.00    +0.000 C 
ENDBRANCH   8   9
ENDBRANCH   1   8
TORSDOF 7
ENDMDL
MODEL 7
REMARK VINA RESULT:      -5.0      1.531      2.271
REMARK  Name = 
REMARK  9 active torsions:
REMARK  status: ('A' for Active; 'I' for Inactive)
REMARK    1  A    between atoms: C_1  and  C_2
REMARK    2  A    between atoms: C_2  and  C_3
REMARK    3  A    between atoms: C_3  and  C_4
REMARK    4  A    between atoms: C_4  and  C_5
REMARK    5  A    between atoms: C_5  and  C_6
REMARK    6  A    between atoms: C_6  and  C_7
REMARK    7  A    between atoms: C_7  and  C_8
REMARK    8  A    between atoms: C_8  and  N_9
REMARK    9  A    between atoms: N_12  and  C_13
REMARK                            x       y       z     vdW  Elec       q    Type
REMARK                         _______ _______ _______ _____ _____    ______ ____
ROOT
ATOM      1  C   UNL     1       5.162   4.814  15.543  0.00  0.00    +0.000 C 
ENDROOT
BRANCH   1   2
ATOM      2  C   UNL     1       6.619   4.535  15.159  0.00  0.00    +0.000 C 
BRANCH   2   3
ATOM      3  C   UNL     1       6.800   4.424  13.641  0.00  0.00    +0.000 C 
BRANCH   3   4
ATOM      4  C   UNL     1       6.088   3.197  13.072  0.00  0.00    +0.000 C 
BRANCH   4   5
ATOM      5  C   UNL     1       5.521   3.485  11.680  0.00  0.00    +0.000 C 
BRANCH   5   7
ATOM      6  C   UNL     1       3.433   3.661  10.284  0.00  0.00    +0.000 C 
ATOM      7  C   UNL     1       4.011   3.250  11.628  0.00  0.00    +0.000 C 
ENDBRANCH   5   7
ENDBRANCH   4   5
ENDBRANCH   3   4
ENDBRANCH   2   3
ENDBRANCH   1   2
BRANCH   1   8
ATOM      8  C   UNL     1       4.667   3.862  16.641  0.00  0.00    +0.000 C 
BRANCH   8   9
ATOM      9  N   UNL     1       3.779   4.528  17.573  0.00  0.00    +0.000 N 
ATOM     10  C   UNL     1       4.184   5.244  18.687  0.00  0.00    +0.000 C 
ATOM     11  C   UNL     1       3.200   5.243  19.601  0.00  0.00    +0.000 C 
ATOM     12  N   UNL     1       2.107   4.550  19.110  0.00  0.00    +0.000 N 
ATOM     13  C   UNL     1       1.121   3.874  19.917  0.00  0.00    +0.000 C 
ATOM     14  C   UNL     1       2.405   4.043  17.759  0.00  0.00    +0.000 C 
ENDBRANCH   8   9
ENDBRANCH   1   8
TORSDOF 7
ENDMDL
MODEL 8
REMARK VINA RESULT:      -5.0      3.058      6.420
REMARK  Name = 
REMARK  9 active torsions:
REMARK  status: ('A' for Active; 'I' for Inactive)
REMARK    1  A    between atoms: C_1  and  C_2
REMARK    2  A    between atoms: C_2  and  C_3
REMARK    3  A    between atoms: C_3  and  C_4
REMARK    4  A    between atoms: C_4  and  C_5
REMARK    5  A    between atoms: C_5  and  C_6
REMARK    6  A    between atoms: C_6  and  C_7
REMARK    7  A    between atoms: C_7  and  C_8
REMARK    8  A    between atoms: C_8  and  N_9
REMARK    9  A    between atoms: N_12  and  C_13
REMARK                            x       y       z     vdW  Elec       q    Type
REMARK                         _______ _______ _______ _____ _____    ______ ____
ROOT
ATOM      1  C   UNL     1       4.227   4.166  17.984  0.00  0.00    +0.000 C 
ENDROOT
BRANCH   1   2
ATOM      2  C   UNL     1       3.096   5.153  17.676  0.00  0.00    +0.000 C 
BRANCH   2   3
ATOM      3  C   UNL     1       2.469   5.723  18.953  0.00  0.00    +0.000 C 
BRANCH   3   4
ATOM      4  C   UNL     1       3.074   5.099  20.211  0.00  0.00    +0.000 C 
BRANCH   4   5
ATOM      5  C   UNL     1       2.007   4.378  21.037  0.00  0.00    +0.000 C 
BRANCH   5   7
ATOM      6  C   UNL     1       1.294   2.429  19.610  0.00  0.00    +0.000 C 
ATOM      7  C   UNL     1       0.906   3.796  20.148  0.00  0.00    +0.000 C 
ENDBRANCH   5   7
ENDBRANCH   4   5
ENDBRANCH   3   4
ENDBRANCH   2   3
ENDBRANCH   1   2
BRANCH   1   8
ATOM      8  C   UNL     1       5.318   4.189  16.904  0.00  0.00    +0.000 C 
BRANCH   8   9
ATOM      9  N   UNL     1       6.484   4.937  17.331  0.00  0.00    +0.000 N 
ATOM     10  C   UNL     1       7.005   4.937  18.615  0.00  0.00    +0.000 C 
ATOM     11  C   UNL     1       7.672   6.084  18.826  0.00  0.00    +0.000 C 
ATOM     12  N   UNL     1       7.635   6.863  17.682  0.00  0.00    +0.000 N 
ATOM     13  C   UNL     1       7.733   8.302  17.654  0.00  0.00    +0.000 C 
ATOM     14  C   UNL     1       6.867   6.172  16.633  0.00  0.00    +0.000 C 
ENDBRANCH   8   9
ENDBRANCH   1   8
TORSDOF 7
ENDMDL
MODEL 9
REMARK VINA RESULT:      -5.0      2.173      6.383
REMARK  Name = 
REMARK  9 active torsions:
REMARK  status: ('A' for Active; 'I' for Inactive)
REMARK    1  A    between atoms: C_1  and  C_2
REMARK    2  A    between atoms: C_2  and  C_3
REMARK    3  A    between atoms: C_3  and  C_4
REMARK    4  A    between atoms: C_4  and  C_5
REMARK    5  A    between atoms: C_5  and  C_6
REMARK    6  A    between atoms: C_6  and  C_7
REMARK    7  A    between atoms: C_7  and  C_8
REMARK    8  A    between atoms: C_8  and  N_9
REMARK    9  A    between atoms: N_12  and  C_13
REMARK                            x       y       z     vdW  Elec       q    Type
REMARK                         _______ _______ _______ _____ _____    ______ ____
ROOT
ATOM      1  C   UNL     1       3.823   6.155  18.049  0.00  0.00    +0.000 C 
ENDROOT
BRANCH   1   2
ATOM      2  C   UNL     1       2.783   6.676  19.047  0.00  0.00    +0.000 C 
BRANCH   2   3
ATOM      3  C   UNL     1       2.058   5.534  19.767  0.00  0.00    +0.000 C 
BRANCH   3   4
ATOM      4  C   UNL     1       1.611   4.442  18.796  0.00  0.00    +0.000 C 
BRANCH   4   5
ATOM      5  C   UNL     1       1.110   3.207  19.547  0.00  0.00    +0.000 C 
BRANCH   5   7
ATOM      6  C   UNL     1       2.367   2.461  21.598  0.00  0.00    +0.000 C 
ATOM      7  C   UNL     1       1.270   3.365  21.060  0.00  0.00    +0.000 C 
ENDBRANCH   5   7
ENDBRANCH   4   5
ENDBRANCH   3   4
ENDBRANCH   2   3
ENDBRANCH   1   2
BRANCH   1   8
ATOM      8  C   UNL     1       4.934   5.357  18.745  0.00  0.00    +0.000 C 
BRANCH   8   9
ATOM      9  N   UNL     1       5.785   4.673  17.791  0.00  0.00    +0.000 N 
ATOM     10  C   UNL     1       7.107   4.993  17.528  0.00  0.00    +0.000 C 
ATOM     11  C   UNL     1       7.422   4.600  16.282  0.00  0.00    +0.000 C 
ATOM     12  N   UNL     1       6.329   3.987  15.696  0.00  0.00    +0.000 N 
ATOM     13  C   UNL     1       6.074   3.925  14.277  0.00  0.00    +0.000 C 
ATOM     14  C   UNL     1       5.194   3.987  16.633  0.00  0.00    +0.000 C 
ENDBRANCH   8   9
ENDBRANCH   1   8
TORSDOF 7
ENDMDL
