MODEL 1
REMARK VINA RESULT:      -8.9      0.000      0.000
REMARK  Name = 
REMARK  6 active torsions:
REMARK  status: ('A' for Active; 'I' for Inactive)
REMARK    1  A    between atoms: C_1  and  C_2
REMARK    2  A    between atoms: C_4  and  C_5
REMARK    3  A    between atoms: C_8  and  C_9
REMARK    4  A    between atoms: C_9  and  C_10
REMARK    5  A    between atoms: N_12  and  N_13
REMARK    6  A    between atoms: C_14  and  C_16
REMARK                            x       y       z     vdW  Elec       q    Type
REMARK                         _______ _______ _______ _____ _____    ______ ____
ROOT
ATOM      1  C   UNL     1       2.001   4.496  20.425  0.00  0.00    +0.000 C 
ATOM      2  O   UNL     1       0.773   4.413  20.526  0.00  0.00    +0.000 OA
ATOM      3  N   UNL     1       2.663   5.693  20.633  0.00  0.00    +0.000 N 
ATOM      4  H   UNL     1       3.676   5.751  20.770  0.00  0.00    +0.000 HD
ENDROOT
BRANCH   3   5
ATOM      5  N   UNL     1       1.885   6.769  21.075  0.00  0.00    +0.000 N 
ATOM      6  C   UNL     1       1.707   7.887  20.288  0.00  0.00    +0.000 C 
ATOM      7  O   UNL     1       2.201   8.004  19.171  0.00  0.00    +0.000 OA
ATOM      8  H   UNL     1       1.490   6.676  22.012  0.00  0.00    +0.000 HD
BRANCH   6   9
ATOM      9  C   UNL     1       0.805   8.949  20.834  0.00  0.00    +0.000 A 
ATOM     10  C   UNL     1       0.638   8.967  22.231  0.00  0.00    +0.000 A 
ATOM     11  C   UNL     1      -0.148   9.944  22.849  0.00  0.00    +0.000 A 
ATOM     12  C   UNL     1      -0.782  10.915  22.080  0.00  0.00    +0.000 A 
ATOM     13  C   UNL     1      -0.641  10.899  20.694  0.00  0.00    +0.000 A 
ATOM     14  C   UNL     1       0.140   9.919  20.066  0.00  0.00    +0.000 A 
ATOM     15 CL   UNL     1       0.180   9.978  18.338  0.00  0.00    +0.000 Cl
ENDBRANCH   6   9
ENDBRANCH   3   5
BRANCH   1  16
ATOM     16  C   UNL     1       2.846   3.339  19.951  0.00  0.00    +0.000 C 
BRANCH  16  24
ATOM     17  C   UNL     1       6.699   4.462  13.987  0.00  0.00    +0.000 C 
ATOM     18  C   UNL     1       6.286   4.429  15.439  0.00  0.00    +0.000 A 
ATOM     19  C   UNL     1       7.253   4.997  16.434  0.00  0.00    +0.000 A 
ATOM     20  C   UNL     1       6.872   4.969  17.724  0.00  0.00    +0.000 A 
ATOM     21  C   UNL     1       7.729   5.493  18.834  0.00  0.00    +0.000 C 
ATOM     22  N   UNL     1       5.620   4.427  18.041  0.00  0.00    +0.000 N 
ATOM     23  N   UNL     1       5.020   4.293  19.252  0.00  0.00    +0.000 NA
ATOM     24  C   UNL     1       3.845   3.738  18.934  0.00  0.00    +0.000 A 
ATOM     25  N   UNL     1       3.667   3.471  17.606  0.00  0.00    +0.000 NA
ATOM     26  C   UNL     1       4.773   3.915  17.047  0.00  0.00    +0.000 A 
ATOM     27  N   UNL     1       5.126   3.919  15.729  0.00  0.00    +0.000 NA
ENDBRANCH  16  24
ENDBRANCH   1  16
TORSDOF 4
ENDMDL
MODEL 2
REMARK VINA RESULT:      -8.3      5.484      7.594
REMARK  Name = 
REMARK  6 active torsions:
REMARK  status: ('A' for Active; 'I' for Inactive)
REMARK    1  A    between atoms: C_1  and  C_2
REMARK    2  A    between atoms: C_4  and  C_5
REMARK    3  A    between atoms: C_8  and  C_9
REMARK    4  A    between atoms: C_9  and  C_10
REMARK    5  A    between atoms: N_12  and  N_13
REMARK    6  A    between atoms: C_14  and  C_16
REMARK                            x       y       z     vdW  Elec       q    Type
REMARK                         _______ _______ _______ _____ _____    ______ ____
ROOT
ATOM      1  C   UNL     1       8.002   7.279  18.148  0.00  0.00    +0.000 C 
ATOM      2  O   UNL     1       7.751   7.614  16.986  0.00  0.00    +0.000 OA
ATOM      3  N   UNL     1       8.651   8.132  19.022  0.00  0.00    +0.000 N 
ATOM      4  H   UNL     1       8.680   7.975  20.033  0.00  0.00    +0.000 HD
ENDROOT
BRANCH   3   5
ATOM      5  N   UNL     1       8.903   9.429  18.559  0.00  0.00    +0.000 N 
ATOM      6  C   UNL     1       9.256  10.438  19.429  0.00  0.00    +0.000 C 
ATOM      7  O   UNL     1       9.380  10.266  20.638  0.00  0.00    +0.000 OA
ATOM      8  H   UNL     1       8.781   9.572  17.556  0.00  0.00    +0.000 HD
BRANCH   6   9
ATOM      9  C   UNL     1       9.562  11.768  18.816  0.00  0.00    +0.000 A 
ATOM     10  C   UNL     1       8.528  12.363  18.069  0.00  0.00    +0.000 A 
ATOM     11  C   UNL     1       8.692  13.625  17.491  0.00  0.00    +0.000 A 
ATOM     12  C   UNL     1       9.894  14.310  17.646  0.00  0.00    +0.000 A 
ATOM     13  C   UNL     1      10.933  13.727  18.368  0.00  0.00    +0.000 A 
ATOM     14  C   UNL     1      10.778  12.458  18.946  0.00  0.00    +0.000 A 
ATOM     15 CL   UNL     1      12.166  11.826  19.761  0.00  0.00    +0.000 Cl
ENDBRANCH   6   9
ENDBRANCH   3   5
BRANCH   1  16
ATOM     16  C   UNL     1       7.733   5.883  18.654  0.00  0.00    +0.000 C 
BRANCH  16  24
ATOM     17  C   UNL     1       1.336   2.607  18.521  0.00  0.00    +0.000 C 
ATOM     18  C   UNL     1       2.394   3.681  18.461  0.00  0.00    +0.000 A 
ATOM     19  C   UNL     1       1.926   5.084  18.217  0.00  0.00    +0.000 A 
ATOM     20  C   UNL     1       2.878   6.035  18.173  0.00  0.00    +0.000 A 
ATOM     21  C   UNL     1       2.569   7.480  17.933  0.00  0.00    +0.000 C 
ATOM     22  N   UNL     1       4.213   5.656  18.361  0.00  0.00    +0.000 N 
ATOM     23  N   UNL     1       5.335   6.422  18.365  0.00  0.00    +0.000 NA
ATOM     24  C   UNL     1       6.297   5.526  18.613  0.00  0.00    +0.000 A 
ATOM     25  N   UNL     1       5.872   4.232  18.729  0.00  0.00    +0.000 NA
ATOM     26  C   UNL     1       4.567   4.317  18.585  0.00  0.00    +0.000 A 
ATOM     27  N   UNL     1       3.633   3.324  18.630  0.00  0.00    +0.000 NA
ENDBRANCH  16  24
ENDBRANCH   1  16
TORSDOF 4
ENDMDL
MODEL 3
REMARK VINA RESULT:      -8.2      1.129      1.552
REMARK  Name = 
REMARK  6 active torsions:
REMARK  status: ('A' for Active; 'I' for Inactive)
REMARK    1  A    between atoms: C_1  and  C_2
REMARK    2  A    between atoms: C_4  and  C_5
REMARK    3  A    between atoms: C_8  and  C_9
REMARK    4  A    between atoms: C_9  and  C_10
REMARK    5  A    between atoms: N_12  and  N_13
REMARK    6  A    between atoms: C_14  and  C_16
REMARK                            x       y       z     vdW  Elec       q    Type
REMARK                         _______ _______ _______ _____ _____    ______ ____
ROOT
ATOM      1  C   UNL     1       2.158   4.867  20.395  0.00  0.00    +0.000 C 
ATOM      2  O   UNL     1       0.981   4.738  20.743  0.00  0.00    +0.000 OA
ATOM      3  N   UNL     1       2.701   6.111  20.129  0.00  0.00    +0.000 N 
ATOM      4  H   UNL     1       3.709   6.273  20.053  0.00  0.00    +0.000 HD
ENDROOT
BRANCH   3   5
ATOM      5  N   UNL     1       1.883   7.218  20.387  0.00  0.00    +0.000 N 
ATOM      6  C   UNL     1       1.816   8.272  19.502  0.00  0.00    +0.000 C 
ATOM      7  O   UNL     1       2.448   8.305  18.451  0.00  0.00    +0.000 OA
ATOM      8  H   UNL     1       1.373   7.195  21.270  0.00  0.00    +0.000 HD
BRANCH   6   9
ATOM      9  C   UNL     1       0.862   9.372  19.848  0.00  0.00    +0.000 A 
ATOM     10  C   UNL     1       0.208   9.993  18.769  0.00  0.00    +0.000 A 
ATOM     11  C   UNL     1      -0.736  11.002  18.982  0.00  0.00    +0.000 A 
ATOM     12  C   UNL     1      -1.037  11.409  20.279  0.00  0.00    +0.000 A 
ATOM     13  C   UNL     1      -0.384  10.816  21.358  0.00  0.00    +0.000 A 
ATOM     14  C   UNL     1       0.569   9.808  21.151  0.00  0.00    +0.000 A 
ATOM     15 CL   UNL     1       1.347   9.203  22.572  0.00  0.00    +0.000 Cl
ENDBRANCH   6   9
ENDBRANCH   3   5
BRANCH   1  16
ATOM     16  C   UNL     1       3.046   3.678  20.117  0.00  0.00    +0.000 C 
BRANCH  16  24
ATOM     17  C   UNL     1       6.532   4.191  13.852  0.00  0.00    +0.000 C 
ATOM     18  C   UNL     1       6.235   4.233  15.331  0.00  0.00    +0.000 A 
ATOM     19  C   UNL     1       7.344   4.677  16.235  0.00  0.00    +0.000 A 
ATOM     20  C   UNL     1       7.066   4.717  17.551  0.00  0.00    +0.000 A 
ATOM     21  C   UNL     1       8.071   5.134  18.580  0.00  0.00    +0.000 C 
ATOM     22  N   UNL     1       5.781   4.354  17.976  0.00  0.00    +0.000 N 
ATOM     23  N   UNL     1       5.267   4.319  19.232  0.00  0.00    +0.000 NA
ATOM     24  C   UNL     1       4.006   3.925  19.018  0.00  0.00    +0.000 A 
ATOM     25  N   UNL     1       3.690   3.667  17.714  0.00  0.00    +0.000 NA
ATOM     26  C   UNL     1       4.798   3.950  17.061  0.00  0.00    +0.000 A 
ATOM     27  N   UNL     1       5.043   3.889  15.721  0.00  0.00    +0.000 NA
ENDBRANCH  16  24
ENDBRANCH   1  16
TORSDOF 4
ENDMDL
MODEL 4
REMARK VINA RESULT:      -8.2      4.824      7.781
REMARK  Name = 
REMARK  6 active torsions:
REMARK  status: ('A' for Active; 'I' for Inactive)
REMARK    1  A    between atoms: C_1  and  C_2
REMARK    2  A    between atoms: C_4  and  C_5
REMARK    3  A    between atoms: C_8  and  C_9
REMARK    4  A    between atoms: C_9  and  C_10
REMARK    5  A    between atoms: N_12  and  N_13
REMARK    6  A    between atoms: C_14  and  C_16
REMARK                            x       y       z     vdW  Elec       q    Type
REMARK                         _______ _______ _______ _____ _____    ______ ____
ROOT
ATOM      1  C   UNL     1       7.426   7.063  17.759  0.00  0.00    +0.000 C 
ATOM      2  O   UNL     1       8.119   6.545  18.640  0.00  0.00    +0.000 OA
ATOM      3  N   UNL     1       7.580   8.392  17.406  0.00  0.00    +0.000 N 
ATOM      4  H   UNL     1       7.184   8.789  16.550  0.00  0.00    +0.000 HD
ENDROOT
BRANCH   3   5
ATOM      5  N   UNL     1       8.635   9.081  18.015  0.00  0.00    +0.000 N 
ATOM      6  C   UNL     1       8.697  10.458  17.981  0.00  0.00    +0.000 C 
ATOM      7  O   UNL     1       7.845  11.153  17.435  0.00  0.00    +0.000 OA
ATOM      8  H   UNL     1       9.350   8.500  18.452  0.00  0.00    +0.000 HD
BRANCH   6   9
ATOM      9  C   UNL     1       9.835  11.091  18.717  0.00  0.00    +0.000 A 
ATOM     10  C   UNL     1      10.923  11.519  17.934  0.00  0.00    +0.000 A 
ATOM     11  C   UNL     1      12.019  12.163  18.516  0.00  0.00    +0.000 A 
ATOM     12  C   UNL     1      12.047  12.385  19.889  0.00  0.00    +0.000 A 
ATOM     13  C   UNL     1      10.985  11.951  20.681  0.00  0.00    +0.000 A 
ATOM     14  C   UNL     1       9.885  11.299  20.106  0.00  0.00    +0.000 A 
ATOM     15 CL   UNL     1       8.668  10.759  21.208  0.00  0.00    +0.000 Cl
ENDBRANCH   6   9
ENDBRANCH   3   5
BRANCH   1  16
ATOM     16  C   UNL     1       6.287   6.324  17.098  0.00  0.00    +0.000 C 
BRANCH  16  24
ATOM     17  C   UNL     1       1.864   2.738  21.485  0.00  0.00    +0.000 C 
ATOM     18  C   UNL     1       2.486   3.852  20.680  0.00  0.00    +0.000 A 
ATOM     19  C   UNL     1       1.835   5.200  20.767  0.00  0.00    +0.000 A 
ATOM     20  C   UNL     1       2.402   6.188  20.050  0.00  0.00    +0.000 A 
ATOM     21  C   UNL     1       1.866   7.585  20.030  0.00  0.00    +0.000 C 
ATOM     22  N   UNL     1       3.543   5.895  19.292  0.00  0.00    +0.000 N 
ATOM     23  N   UNL     1       4.286   6.713  18.501  0.00  0.00    +0.000 NA
ATOM     24  C   UNL     1       5.248   5.894  18.061  0.00  0.00    +0.000 A 
ATOM     25  N   UNL     1       5.150   4.599  18.484  0.00  0.00    +0.000 NA
ATOM     26  C   UNL     1       4.090   4.604  19.265  0.00  0.00    +0.000 A 
ATOM     27  N   UNL     1       3.541   3.575  19.972  0.00  0.00    +0.000 NA
ENDBRANCH  16  24
ENDBRANCH   1  16
TORSDOF 4
ENDMDL
MODEL 5
REMARK VINA RESULT:      -8.1      5.309      7.491
REMARK  Name = 
REMARK  6 active torsions:
REMARK  status: ('A' for Active; 'I' for Inactive)
REMARK    1  A    between atoms: C_1  and  C_2
REMARK    2  A    between atoms: C_4  and  C_5
REMARK    3  A    between atoms: C_8  and  C_9
REMARK    4  A    between atoms: C_9  and  C_10
REMARK    5  A    between atoms: N_12  and  N_13
REMARK    6  A    between atoms: C_14  and  C_16
REMARK                            x       y       z     vdW  Elec       q    Type
REMARK                         _______ _______ _______ _____ _____    ______ ____
ROOT
ATOM      1  C   UNL     1       8.055   7.412  18.196  0.00  0.00    +0.000 C 
ATOM      2  O   UNL     1       7.804   7.757  17.038  0.00  0.00    +0.000 OA
ATOM      3  N   UNL     1       8.696   8.261  19.081  0.00  0.00    +0.000 N 
ATOM      4  H   UNL     1       8.725   8.093  20.090  0.00  0.00    +0.000 HD
ENDROOT
BRANCH   3   5
ATOM      5  N   UNL     1       8.939   9.564  18.631  0.00  0.00    +0.000 N 
ATOM      6  C   UNL     1       9.310  10.560  19.509  0.00  0.00    +0.000 C 
ATOM      7  O   UNL     1       9.457  10.371  20.712  0.00  0.00    +0.000 OA
ATOM      8  H   UNL     1       8.799   9.721  17.633  0.00  0.00    +0.000 HD
BRANCH   6   9
ATOM      9  C   UNL     1       9.604  11.899  18.910  0.00  0.00    +0.000 A 
ATOM     10  C   UNL     1      10.382  11.901  17.737  0.00  0.00    +0.000 A 
ATOM     11  C   UNL     1      10.679  13.094  17.071  0.00  0.00    +0.000 A 
ATOM     12  C   UNL     1      10.206  14.304  17.570  0.00  0.00    +0.000 A 
ATOM     13  C   UNL     1       9.450  14.321  18.740  0.00  0.00    +0.000 A 
ATOM     14  C   UNL     1       9.154  13.129  19.417  0.00  0.00    +0.000 A 
ATOM     15 CL   UNL     1       8.260  13.299  20.888  0.00  0.00    +0.000 Cl
ENDBRANCH   6   9
ENDBRANCH   3   5
BRANCH   1  16
ATOM     16  C   UNL     1       7.795   6.008  18.687  0.00  0.00    +0.000 C 
BRANCH  16  24
ATOM     17  C   UNL     1       1.439   2.660  18.446  0.00  0.00    +0.000 C 
ATOM     18  C   UNL     1       2.486   3.746  18.406  0.00  0.00    +0.000 A 
ATOM     19  C   UNL     1       2.006   5.144  18.156  0.00  0.00    +0.000 A 
ATOM     20  C   UNL     1       2.947   6.106  18.129  0.00  0.00    +0.000 A 
ATOM     21  C   UNL     1       2.626   7.548  17.887  0.00  0.00    +0.000 C 
ATOM     22  N   UNL     1       4.284   5.742  18.338  0.00  0.00    +0.000 N 
ATOM     23  N   UNL     1       5.396   6.520  18.361  0.00  0.00    +0.000 NA
ATOM     24  C   UNL     1       6.364   5.635  18.623  0.00  0.00    +0.000 A 
ATOM     25  N   UNL     1       5.953   4.336  18.730  0.00  0.00    +0.000 NA
ATOM     26  C   UNL     1       4.649   4.407  18.565  0.00  0.00    +0.000 A 
ATOM     27  N   UNL     1       3.726   3.403  18.593  0.00  0.00    +0.000 NA
ENDBRANCH  16  24
ENDBRANCH   1  16
TORSDOF 4
ENDMDL
MODEL 6
REMARK VINA RESULT:      -8.1      1.896      2.152
REMARK  Name = 
REMARK  6 active torsions:
REMARK  status: ('A' for Active; 'I' for Inactive)
REMARK    1  A    between atoms: C_1  and  C_2
REMARK    2  A    between atoms: C_4  and  C_5
REMARK    3  A    between atoms: C_8  and  C_9
REMARK    4  A    between atoms: C_9  and  C_10
REMARK    5  A    between atoms: N_12  and  N_13
REMARK    6  A    between atoms: C_14  and  C_16
REMARK                            x       y       z     vdW  Elec       q    Type
REMARK                         _______ _______ _______ _____ _____    ______ ____
ROOT
ATOM      1  C   UNL     1       1.967   6.265  20.376  0.00  0.00    +0.000 C 
ATOM      2  O   UNL     1       1.007   6.418  21.139  0.00  0.00    +0.000 OA
ATOM      3  N   UNL     1       2.325   7.240  19.462  0.00  0.00    +0.000 N 
ATOM      4  H   UNL     1       3.226   7.241  18.976  0.00  0.00    +0.000 HD
ENDROOT
BRANCH   3   5
ATOM      5  N   UNL     1       1.620   8.447  19.526  0.00  0.00    +0.000 N 
ATOM      6  C   UNL     1       1.535   9.279  18.431  0.00  0.00    +0.000 C 
ATOM      7  O   UNL     1       2.053   9.017  17.350  0.00  0.00    +0.000 OA
ATOM      8  H   UNL     1       1.205   8.670  20.432  0.00  0.00    +0.000 HD
BRANCH   6   9
ATOM      9  C   UNL     1       0.704  10.512  18.595  0.00  0.00    +0.000 A 
ATOM     10  C   UNL     1      -0.655  10.313  18.901  0.00  0.00    +0.000 A 
ATOM     11  C   UNL     1      -1.511  11.397  19.119  0.00  0.00    +0.000 A 
ATOM     12  C   UNL     1      -1.023  12.697  19.028  0.00  0.00    +0.000 A 
ATOM     13  C   UNL     1       0.316  12.911  18.707  0.00  0.00    +0.000 A 
ATOM     14  C   UNL     1       1.179  11.829  18.481  0.00  0.00    +0.000 A 
ATOM     15 CL   UNL     1       2.798  12.237  18.031  0.00  0.00    +0.000 Cl
ENDBRANCH   6   9
ENDBRANCH   3   5
BRANCH   1  16
ATOM     16  C   UNL     1       2.732   4.966  20.303  0.00  0.00    +0.000 C 
BRANCH  16  24
ATOM     17  C   UNL     1       6.359   4.019  14.170  0.00  0.00    +0.000 C 
ATOM     18  C   UNL     1       6.033   4.391  15.596  0.00  0.00    +0.000 A 
ATOM     19  C   UNL     1       7.135   4.998  16.410  0.00  0.00    +0.000 A 
ATOM     20  C   UNL     1       6.830   5.332  17.677  0.00  0.00    +0.000 A 
ATOM     21  C   UNL     1       7.824   5.943  18.616  0.00  0.00    +0.000 C 
ATOM     22  N   UNL     1       5.528   5.099  18.138  0.00  0.00    +0.000 N 
ATOM     23  N   UNL     1       4.987   5.351  19.357  0.00  0.00    +0.000 NA
ATOM     24  C   UNL     1       3.721   4.946  19.202  0.00  0.00    +0.000 A 
ATOM     25  N   UNL     1       3.425   4.415  17.978  0.00  0.00    +0.000 NA
ATOM     26  C   UNL     1       4.554   4.525  17.309  0.00  0.00    +0.000 A 
ATOM     27  N   UNL     1       4.825   4.166  16.021  0.00  0.00    +0.000 NA
ENDBRANCH  16  24
ENDBRANCH   1  16
TORSDOF 4
ENDMDL
MODEL 7
REMARK VINA RESULT:      -8.1      1.430      1.988
REMARK  Name = 
REMARK  6 active torsions:
REMARK  status: ('A' for Active; 'I' for Inactive)
REMARK    1  A    between atoms: C_1  and  C_2
REMARK    2  A    between atoms: C_4  and  C_5
REMARK    3  A    between atoms: C_8  and  C_9
REMARK    4  A    between atoms: C_9  and  C_10
REMARK    5  A    between atoms: N_12  and  N_13
REMARK    6  A    between atoms: C_14  and  C_16
REMARK                            x       y       z     vdW  Elec       q    Type
REMARK                         _______ _______ _______ _____ _____    ______ ____
ROOT
ATOM      1  C   UNL     1       2.095   6.923  20.037  0.00  0.00    +0.000 C 
ATOM      2  O   UNL     1       2.167   7.703  19.082  0.00  0.00    +0.000 OA
ATOM      3  N   UNL     1       1.722   7.356  21.297  0.00  0.00    +0.000 N 
ATOM      4  H   UNL     1       1.446   6.715  22.045  0.00  0.00    +0.000 HD
ENDROOT
BRANCH   3   5
ATOM      5  N   UNL     1       1.322   8.693  21.405  0.00  0.00    +0.000 N 
ATOM      6  C   UNL     1       0.009   9.022  21.666  0.00  0.00    +0.000 C 
ATOM      7  O   UNL     1      -0.872   8.183  21.826  0.00  0.00    +0.000 OA
ATOM      8  H   UNL     1       2.054   9.388  21.254  0.00  0.00    +0.000 HD
BRANCH   6   9
ATOM      9  C   UNL     1      -0.293  10.479  21.822  0.00  0.00    +0.000 A 
ATOM     10  C   UNL     1      -1.084  10.836  22.930  0.00  0.00    +0.000 A 
ATOM     11  C   UNL     1      -1.390  12.175  23.194  0.00  0.00    +0.000 A 
ATOM     12  C   UNL     1      -0.914  13.176  22.353  0.00  0.00    +0.000 A 
ATOM     13  C   UNL     1      -0.145  12.836  21.241  0.00  0.00    +0.000 A 
ATOM     14  C   UNL     1       0.160  11.496  20.966  0.00  0.00    +0.000 A 
ATOM     15 CL   UNL     1       1.070  11.211  19.523  0.00  0.00    +0.000 Cl
ENDBRANCH   6   9
ENDBRANCH   3   5
BRANCH   1  16
ATOM     16  C   UNL     1       2.524   5.480  19.926  0.00  0.00    +0.000 C 
BRANCH  16  24
ATOM     17  C   UNL     1       6.424   3.895  14.099  0.00  0.00    +0.000 C 
ATOM     18  C   UNL     1       6.052   4.308  15.503  0.00  0.00    +0.000 A 
ATOM     19  C   UNL     1       7.175   4.671  16.426  0.00  0.00    +0.000 A 
ATOM     20  C   UNL     1       6.832   5.044  17.672  0.00  0.00    +0.000 A 
ATOM     21  C   UNL     1       7.839   5.430  18.710  0.00  0.00    +0.000 C 
ATOM     22  N   UNL     1       5.473   5.072  18.012  0.00  0.00    +0.000 N 
ATOM     23  N   UNL     1       4.886   5.413  19.188  0.00  0.00    +0.000 NA
ATOM     24  C   UNL     1       3.584   5.274  18.913  0.00  0.00    +0.000 A 
ATOM     25  N   UNL     1       3.299   4.828  17.653  0.00  0.00    +0.000 NA
ATOM     26  C   UNL     1       4.482   4.716  17.086  0.00  0.00    +0.000 A 
ATOM     27  N   UNL     1       4.790   4.326  15.816  0.00  0.00    +0.000 NA
ENDBRANCH  16  24
ENDBRANCH   1  16
TORSDOF 4
ENDMDL
MODEL 8
REMARK VINA RESULT:      -8.1      2.007      2.477
REMARK  Name = 
REMARK  6 active torsions:
REMARK  status: ('A' for Active; 'I' for Inactive)
REMARK    1  A    between atoms: C_1  and  C_2
REMARK    2  A    between atoms: C_4  and  C_5
REMARK    3  A    between atoms: C_8  and  C_9
REMARK    4  A    between atoms: C_9  and  C_10
REMARK    5  A    between atoms: N_12  and  N_13
REMARK    6  A    between atoms: C_14  and  C_16
REMARK                            x       y       z     vdW  Elec       q    Type
REMARK                         _______ _______ _______ _____ _____    ______ ____
ROOT
ATOM      1  C   UNL     1       1.860   6.720  20.362  0.00  0.00    +0.000 C 
ATOM      2  O   UNL     1       1.105   7.072  21.274  0.00  0.00    +0.000 OA
ATOM      3  N   UNL     1       2.154   7.560  19.303  0.00  0.00    +0.000 N 
ATOM      4  H   UNL     1       2.929   7.390  18.657  0.00  0.00    +0.000 HD
ENDROOT
BRANCH   3   5
ATOM      5  N   UNL     1       1.644   8.862  19.377  0.00  0.00    +0.000 N 
ATOM      6  C   UNL     1       1.690   9.706  18.289  0.00  0.00    +0.000 C 
ATOM      7  O   UNL     1       2.161   9.375  17.205  0.00  0.00    +0.000 OA
ATOM      8  H   UNL     1       1.270   9.139  20.285  0.00  0.00    +0.000 HD
BRANCH   6   9
ATOM      9  C   UNL     1       1.061  11.052  18.463  0.00  0.00    +0.000 A 
ATOM     10  C   UNL     1       1.943  12.142  18.580  0.00  0.00    +0.000 A 
ATOM     11  C   UNL     1       1.461  13.449  18.703  0.00  0.00    +0.000 A 
ATOM     12  C   UNL     1       0.089  13.685  18.716  0.00  0.00    +0.000 A 
ATOM     13  C   UNL     1      -0.797  12.614  18.619  0.00  0.00    +0.000 A 
ATOM     14  C   UNL     1      -0.321  11.301  18.502  0.00  0.00    +0.000 A 
ATOM     15 CL   UNL     1      -1.527  10.063  18.453  0.00  0.00    +0.000 Cl
ENDBRANCH   6   9
ENDBRANCH   3   5
BRANCH   1  16
ATOM     16  C   UNL     1       2.413   5.319  20.277  0.00  0.00    +0.000 C 
BRANCH  16  24
ATOM     17  C   UNL     1       6.338   3.938  14.415  0.00  0.00    +0.000 C 
ATOM     18  C   UNL     1       5.955   4.352  15.815  0.00  0.00    +0.000 A 
ATOM     19  C   UNL     1       7.057   4.836  16.707  0.00  0.00    +0.000 A 
ATOM     20  C   UNL     1       6.703   5.209  17.951  0.00  0.00    +0.000 A 
ATOM     21  C   UNL     1       7.690   5.709  18.960  0.00  0.00    +0.000 C 
ATOM     22  N   UNL     1       5.353   5.125  18.317  0.00  0.00    +0.000 N 
ATOM     23  N   UNL     1       4.758   5.442  19.495  0.00  0.00    +0.000 NA
ATOM     24  C   UNL     1       3.469   5.181  19.249  0.00  0.00    +0.000 A 
ATOM     25  N   UNL     1       3.204   4.681  18.005  0.00  0.00    +0.000 NA
ATOM     26  C   UNL     1       4.382   4.660  17.418  0.00  0.00    +0.000 A 
ATOM     27  N   UNL     1       4.702   4.266  16.152  0.00  0.00    +0.000 NA
ENDBRANCH  16  24
ENDBRANCH   1  16
TORSDOF 4
ENDMDL
MODEL 9
REMARK VINA RESULT:      -8.1      4.791      7.455
REMARK  Name = 
REMARK  6 active torsions:
REMARK  status: ('A' for Active; 'I' for Inactive)
REMARK    1  A    between atoms: C_1  and  C_2
REMARK    2  A    between atoms: C_4  and  C_5
REMARK    3  A    between atoms: C_8  and  C_9
REMARK    4  A    between atoms: C_9  and  C_10
REMARK    5  A    between atoms: N_12  and  N_13
REMARK    6  A    between atoms: C_14  and  C_16
REMARK                            x       y       z     vdW  Elec       q    Type
REMARK                         _______ _______ _______ _____ _____    ______ ____
ROOT
ATOM      1  C   UNL     1       7.977   6.169  18.809  0.00  0.00    +0.000 C 
ATOM      2  O   UNL     1       8.558   5.944  19.875  0.00  0.00    +0.000 OA
ATOM      3  N   UNL     1       7.962   7.433  18.247  0.00  0.00    +0.000 N 
ATOM      4  H   UNL     1       7.683   7.607  17.278  0.00  0.00    +0.000 HD
ENDROOT
BRANCH   3   5
ATOM      5  N   UNL     1       8.733   8.411  18.888  0.00  0.00    +0.000 N 
ATOM      6  C   UNL     1       8.684   9.728  18.487  0.00  0.00    +0.000 C 
ATOM      7  O   UNL     1       7.970  10.123  17.570  0.00  0.00    +0.000 OA
ATOM      8  H   UNL     1       9.338   8.076  19.638  0.00  0.00    +0.000 HD
BRANCH   6   9
ATOM      9  C   UNL     1       9.502  10.696  19.282  0.00  0.00    +0.000 A 
ATOM     10  C   UNL     1       9.124  10.878  20.625  0.00  0.00    +0.000 A 
ATOM     11  C   UNL     1       9.847  11.726  21.469  0.00  0.00    +0.000 A 
ATOM     12  C   UNL     1      10.957  12.410  20.981  0.00  0.00    +0.000 A 
ATOM     13  C   UNL     1      11.333  12.255  19.649  0.00  0.00    +0.000 A 
ATOM     14  C   UNL     1      10.609  11.411  18.795  0.00  0.00    +0.000 A 
ATOM     15 CL   UNL     1      11.147  11.359  17.152  0.00  0.00    +0.000 Cl
ENDBRANCH   6   9
ENDBRANCH   3   5
BRANCH   1  16
ATOM     16  C   UNL     1       7.145   5.119  18.114  0.00  0.00    +0.000 C 
BRANCH  16  24
ATOM     17  C   UNL     1       1.211   2.561  21.263  0.00  0.00    +0.000 C 
ATOM     18  C   UNL     1       2.182   3.500  20.589  0.00  0.00    +0.000 A 
ATOM     19  C   UNL     1       1.719   4.908  20.363  0.00  0.00    +0.000 A 
ATOM     20  C   UNL     1       2.595   5.739  19.768  0.00  0.00    +0.000 A 
ATOM     21  C   UNL     1       2.279   7.171  19.470  0.00  0.00    +0.000 C 
ATOM     22  N   UNL     1       3.855   5.242  19.413  0.00  0.00    +0.000 N 
ATOM     23  N   UNL     1       4.896   5.877  18.815  0.00  0.00    +0.000 NA
ATOM     24  C   UNL     1       5.826   4.917  18.754  0.00  0.00    +0.000 A 
ATOM     25  N   UNL     1       5.438   3.699  19.236  0.00  0.00    +0.000 NA
ATOM     26  C   UNL     1       4.209   3.907  19.661  0.00  0.00    +0.000 A 
ATOM     27  N   UNL     1       3.348   3.033  20.256  0.00  0.00    +0.000 NA
ENDBRANCH  16  24
ENDBRANCH   1  16
TORSDOF 4
ENDMDL
