MODEL 1
REMARK VINA RESULT:      -7.2      0.000      0.000
REMARK  Name = 
REMARK  8 active torsions:
REMARK  status: ('A' for Active; 'I' for Inactive)
REMARK    1  A    between atoms: C_1  and  C_2
REMARK    2  A    between atoms: C_8  and  C_9
REMARK    3  A    between atoms: C_9  and  N_10
REMARK    4  A    between atoms: C_12  and  C_13
REMARK    5  A    between atoms: C_16  and  N_17
REMARK    6  A    between atoms: C_28  and  N_29
REMARK    7  A    between atoms: N_29  and  C_30
REMARK    8  A    between atoms: N_29  and  C_31
REMARK                            x       y       z     vdW  Elec       q    Type
REMARK                         _______ _______ _______ _____ _____    ______ ____
ROOT
ATOM      1  N   UNL     1      -1.598  12.796  19.607  0.00  0.00    +0.000 NA
ATOM      2  C   UNL     1      -0.194  13.123  19.238  0.00  0.00    +0.000 C 
ATOM      3  C   UNL     1       0.726  12.451  20.293  0.00  0.00    +0.000 C 
ATOM      4  C   UNL     1      -0.173  12.877  21.593  0.00  0.00    +0.000 C 
ATOM      5  C   UNL     1      -1.610  13.146  21.018  0.00  0.00    +0.000 C 
ENDROOT
BRANCH   3   6
ATOM      6  C   UNL     1       1.130  10.979  19.810  0.00  0.00    +0.000 A 
ATOM      7  C   UNL     1       1.776  10.788  18.557  0.00  0.00    +0.000 A 
ATOM      8  C   UNL     1       2.181   9.539  18.019  0.00  0.00    +0.000 A 
ATOM      9  C   UNL     1       2.001   8.351  18.702  0.00  0.00    +0.000 A 
ATOM     10  C   UNL     1       1.457   8.515  19.998  0.00  0.00    +0.000 A 
ATOM     11  C   UNL     1       1.034   9.790  20.548  0.00  0.00    +0.000 A 
BRANCH   9  12
ATOM     12  N   UNL     1       2.332   7.101  18.168  0.00  0.00    +0.000 N 
ATOM     13  C   UNL     1       2.198   5.828  18.933  0.00  0.00    +0.000 C 
ATOM     14  C   UNL     1       3.462   5.440  19.725  0.00  0.00    +0.000 C 
ATOM     15  N   UNL     1       4.657   5.639  18.958  0.00  0.00    +0.000 N 
ATOM     16  C   UNL     1       5.920   5.178  19.177  0.00  0.00    +0.000 A 
ATOM     17  N   UNL     1       6.709   5.597  18.224  0.00  0.00    +0.000 NA
ATOM     18  N   UNL     1       5.954   6.381  17.362  0.00  0.00    +0.000 NA
ATOM     19  C   UNL     1       4.726   6.408  17.834  0.00  0.00    +0.000 A 
ATOM     20  C   UNL     1       3.510   7.088  17.254  0.00  0.00    +0.000 C 
ENDBRANCH   9  12
ENDBRANCH   3   6
BRANCH   4  21
ATOM     21  N   UNL     1       0.227  14.065  22.458  0.00  0.00    +0.000 NA
ATOM     22  C   UNL     1       0.955  15.153  21.786  0.00  0.00    +0.000 C 
ATOM     23  C   UNL     1      -0.937  14.704  23.130  0.00  0.00    +0.000 C 
ENDBRANCH   4  21
BRANCH   1  24
ATOM     24  C   UNL     1      -1.910  11.369  19.456  0.00  0.00    +0.000 C 
BRANCH  24  32
ATOM     25  C   UNL     1      -1.239   9.494  16.958  0.00  0.00    +0.000 C 
ATOM     26  C   UNL     1      -2.362  10.489  17.091  0.00  0.00    +0.000 A 
ATOM     27  C   UNL     1      -3.051  10.846  15.921  0.00  0.00    +0.000 A 
ATOM     28  C   UNL     1      -4.265  11.527  15.986  0.00  0.00    +0.000 A 
ATOM     29  C   UNL     1      -4.854  11.764  17.222  0.00  0.00    +0.000 A 
ATOM     30  C   UNL     1      -4.148  11.481  18.383  0.00  0.00    +0.000 A 
ATOM     31  F   UNL     1      -4.691  11.827  19.560  0.00  0.00    +0.000 F 
ATOM     32  C   UNL     1      -2.847  10.964  18.331  0.00  0.00    +0.000 A 
ENDBRANCH  24  32
ENDBRANCH   1  24
TORSDOF 5
ENDMDL
MODEL 2
REMARK VINA RESULT:      -7.1      3.077      9.372
REMARK  Name = 
REMARK  8 active torsions:
REMARK  status: ('A' for Active; 'I' for Inactive)
REMARK    1  A    between atoms: C_1  and  C_2
REMARK    2  A    between atoms: C_8  and  C_9
REMARK    3  A    between atoms: C_9  and  N_10
REMARK    4  A    between atoms: C_12  and  C_13
REMARK    5  A    between atoms: C_16  and  N_17
REMARK    6  A    between atoms: C_28  and  N_29
REMARK    7  A    between atoms: N_29  and  C_30
REMARK    8  A    between atoms: N_29  and  C_31
REMARK                            x       y       z     vdW  Elec       q    Type
REMARK                         _______ _______ _______ _____ _____    ______ ____
ROOT
ATOM      1  N   UNL     1       4.648   4.297  18.474  0.00  0.00    +0.000 NA
ATOM      2  C   UNL     1       3.303   4.302  17.838  0.00  0.00    +0.000 C 
ATOM      3  C   UNL     1       2.276   4.671  18.942  0.00  0.00    +0.000 C 
ATOM      4  C   UNL     1       2.916   3.703  20.097  0.00  0.00    +0.000 C 
ATOM      5  C   UNL     1       4.404   3.473  19.647  0.00  0.00    +0.000 C 
ENDROOT
BRANCH   3   6
ATOM      6  C   UNL     1       2.064   6.257  18.987  0.00  0.00    +0.000 A 
ATOM      7  C   UNL     1       1.778   6.908  20.218  0.00  0.00    +0.000 A 
ATOM      8  C   UNL     1       1.569   8.301  20.387  0.00  0.00    +0.000 A 
ATOM      9  C   UNL     1       1.652   9.190  19.334  0.00  0.00    +0.000 A 
ATOM     10  C   UNL     1       2.040   8.591  18.111  0.00  0.00    +0.000 A 
ATOM     11  C   UNL     1       2.247   7.166  17.933  0.00  0.00    +0.000 A 
BRANCH   9  12
ATOM     12  N   UNL     1       1.388  10.559  19.461  0.00  0.00    +0.000 N 
ATOM     13  C   UNL     1       1.124  11.218  20.773  0.00  0.00    +0.000 C 
ATOM     14  C   UNL     1      -0.365  11.244  21.168  0.00  0.00    +0.000 C 
ATOM     15  N   UNL     1      -1.208  11.592  20.061  0.00  0.00    +0.000 N 
ATOM     16  C   UNL     1      -2.512  11.983  20.048  0.00  0.00    +0.000 A 
ATOM     17  N   UNL     1      -2.889  12.206  18.817  0.00  0.00    +0.000 NA
ATOM     18  N   UNL     1      -1.811  11.927  17.987  0.00  0.00    +0.000 NA
ATOM     19  C   UNL     1      -0.816  11.542  18.756  0.00  0.00    +0.000 A 
ATOM     20  C   UNL     1       0.589  11.161  18.356  0.00  0.00    +0.000 C 
ENDBRANCH   9  12
ENDBRANCH   3   6
BRANCH   4  21
ATOM     21  N   UNL     1       2.295   2.348  20.407  0.00  0.00    +0.000 NA
ATOM     22  C   UNL     1       1.590   2.226  21.693  0.00  0.00    +0.000 C 
ATOM     23  C   UNL     1       1.328   1.908  19.366  0.00  0.00    +0.000 C 
ENDBRANCH   4  21
BRANCH   1  24
ATOM     24  C   UNL     1       5.085   5.633  18.898  0.00  0.00    +0.000 C 
BRANCH  24  32
ATOM     25  C   UNL     1       8.112   5.213  19.829  0.00  0.00    +0.000 C 
ATOM     26  C   UNL     1       7.558   6.307  18.956  0.00  0.00    +0.000 A 
ATOM     27  C   UNL     1       8.377   7.423  18.719  0.00  0.00    +0.000 A 
ATOM     28  C   UNL     1       8.068   8.336  17.713  0.00  0.00    +0.000 A 
ATOM     29  C   UNL     1       6.997   8.086  16.864  0.00  0.00    +0.000 A 
ATOM     30  C   UNL     1       6.140   7.027  17.134  0.00  0.00    +0.000 A 
ATOM     31  F   UNL     1       5.049   6.878  16.368  0.00  0.00    +0.000 F 
ATOM     32  C   UNL     1       6.335   6.207  18.254  0.00  0.00    +0.000 A 
ENDBRANCH  24  32
ENDBRANCH   1  24
TORSDOF 5
ENDMDL
MODEL 3
REMARK VINA RESULT:      -7.1      3.400      9.259
REMARK  Name = 
REMARK  8 active torsions:
REMARK  status: ('A' for Active; 'I' for Inactive)
REMARK    1  A    between atoms: C_1  and  C_2
REMARK    2  A    between atoms: C_8  and  C_9
REMARK    3  A    between atoms: C_9  and  N_10
REMARK    4  A    between atoms: C_12  and  C_13
REMARK    5  A    between atoms: C_16  and  N_17
REMARK    6  A    between atoms: C_28  and  N_29
REMARK    7  A    between atoms: N_29  and  C_30
REMARK    8  A    between atoms: N_29  and  C_31
REMARK                            x       y       z     vdW  Elec       q    Type
REMARK                         _______ _______ _______ _____ _____    ______ ____
ROOT
ATOM      1  N   UNL     1       4.651   3.766  17.860  0.00  0.00    +0.000 NA
ATOM      2  C   UNL     1       5.459   4.941  18.287  0.00  0.00    +0.000 C 
ATOM      3  C   UNL     1       5.022   6.142  17.405  0.00  0.00    +0.000 C 
ATOM      4  C   UNL     1       4.991   5.312  15.994  0.00  0.00    +0.000 C 
ATOM      5  C   UNL     1       4.830   3.807  16.418  0.00  0.00    +0.000 C 
ENDROOT
BRANCH   3   6
ATOM      6  C   UNL     1       3.824   6.935  18.112  0.00  0.00    +0.000 A 
ATOM      7  C   UNL     1       3.181   8.011  17.439  0.00  0.00    +0.000 A 
ATOM      8  C   UNL     1       2.113   8.788  17.958  0.00  0.00    +0.000 A 
ATOM      9  C   UNL     1       1.563   8.545  19.202  0.00  0.00    +0.000 A 
ATOM     10  C   UNL     1       2.108   7.414  19.856  0.00  0.00    +0.000 A 
ATOM     11  C   UNL     1       3.205   6.622  19.332  0.00  0.00    +0.000 A 
BRANCH   9  12
ATOM     12  N   UNL     1       0.555   9.337  19.763  0.00  0.00    +0.000 N 
ATOM     13  C   UNL     1      -0.512   9.992  18.951  0.00  0.00    +0.000 C 
ATOM     14  C   UNL     1      -0.146  11.409  18.468  0.00  0.00    +0.000 C 
ATOM     15  N   UNL     1       0.481  12.181  19.500  0.00  0.00    +0.000 N 
ATOM     16  C   UNL     1       0.703  13.523  19.572  0.00  0.00    +0.000 A 
ATOM     17  N   UNL     1       1.306  13.807  20.696  0.00  0.00    +0.000 NA
ATOM     18  N   UNL     1       1.515  12.615  21.377  0.00  0.00    +0.000 NA
ATOM     19  C   UNL     1       1.028  11.648  20.631  0.00  0.00    +0.000 A 
ATOM     20  C   UNL     1       0.968  10.170  20.928  0.00  0.00    +0.000 C 
ENDBRANCH   9  12
ENDBRANCH   3   6
BRANCH   4  21
ATOM     21  N   UNL     1       6.148   5.411  15.009  0.00  0.00    +0.000 NA
ATOM     22  C   UNL     1       7.504   5.328  15.576  0.00  0.00    +0.000 C 
ATOM     23  C   UNL     1       6.085   4.375  13.943  0.00  0.00    +0.000 C 
ENDBRANCH   4  21
BRANCH   1  24
ATOM     24  C   UNL     1       3.225   3.908  18.178  0.00  0.00    +0.000 C 
BRANCH  24  32
ATOM     25  C   UNL     1       0.175   3.051  18.594  0.00  0.00    +0.000 C 
ATOM     26  C   UNL     1       1.281   3.053  19.615  0.00  0.00    +0.000 A 
ATOM     27  C   UNL     1       0.916   2.918  20.964  0.00  0.00    +0.000 A 
ATOM     28  C   UNL     1       1.869   2.627  21.938  0.00  0.00    +0.000 A 
ATOM     29  C   UNL     1       3.180   2.364  21.559  0.00  0.00    +0.000 A 
ATOM     30  C   UNL     1       3.565   2.565  20.240  0.00  0.00    +0.000 A 
ATOM     31  F   UNL     1       4.861   2.417  19.925  0.00  0.00    +0.000 F 
ATOM     32  C   UNL     1       2.656   3.036  19.284  0.00  0.00    +0.000 A 
ENDBRANCH  24  32
ENDBRANCH   1  24
TORSDOF 5
ENDMDL
MODEL 4
REMARK VINA RESULT:      -7.0      2.507      4.976
REMARK  Name = 
REMARK  8 active torsions:
REMARK  status: ('A' for Active; 'I' for Inactive)
REMARK    1  A    between atoms: C_1  and  C_2
REMARK    2  A    between atoms: C_8  and  C_9
REMARK    3  A    between atoms: C_9  and  N_10
REMARK    4  A    between atoms: C_12  and  C_13
REMARK    5  A    between atoms: C_16  and  N_17
REMARK    6  A    between atoms: C_28  and  N_29
REMARK    7  A    between atoms: N_29  and  C_30
REMARK    8  A    between atoms: N_29  and  C_31
REMARK                            x       y       z     vdW  Elec       q    Type
REMARK                         _______ _______ _______ _____ _____    ______ ____
ROOT
ATOM      1  N   UNL     1      -0.158  12.509  20.032  0.00  0.00    +0.000 NA
ATOM      2  C   UNL     1      -1.001  11.336  20.393  0.00  0.00    +0.000 C 
ATOM      3  C   UNL     1      -1.007  10.382  19.169  0.00  0.00    +0.000 C 
ATOM      4  C   UNL     1      -1.218  11.553  18.044  0.00  0.00    +0.000 C 
ATOM      5  C   UNL     1      -0.715  12.870  18.738  0.00  0.00    +0.000 C 
ENDROOT
BRANCH   3   6
ATOM      6  C   UNL     1       0.194   9.329  19.287  0.00  0.00    +0.000 A 
ATOM      7  C   UNL     1       1.030   9.068  18.168  0.00  0.00    +0.000 A 
ATOM      8  C   UNL     1       2.121   8.160  18.146  0.00  0.00    +0.000 A 
ATOM      9  C   UNL     1       2.499   7.438  19.262  0.00  0.00    +0.000 A 
ATOM     10  C   UNL     1       1.754   7.752  20.424  0.00  0.00    +0.000 A 
ATOM     11  C   UNL     1       0.634   8.674  20.447  0.00  0.00    +0.000 A 
BRANCH   9  12
ATOM     12  N   UNL     1       3.529   6.491  19.250  0.00  0.00    +0.000 N 
ATOM     13  C   UNL     1       4.316   6.158  18.027  0.00  0.00    +0.000 C 
ATOM     14  C   UNL     1       3.716   5.010  17.192  0.00  0.00    +0.000 C 
ATOM     15  N   UNL     1       3.268   3.926  18.017  0.00  0.00    +0.000 N 
ATOM     16  C   UNL     1       2.942   2.648  17.675  0.00  0.00    +0.000 A 
ATOM     17  N   UNL     1       2.586   1.988  18.744  0.00  0.00    +0.000 NA
ATOM     18  N   UNL     1       2.651   2.860  19.823  0.00  0.00    +0.000 NA
ATOM     19  C   UNL     1       3.046   4.025  19.359  0.00  0.00    +0.000 A 
ATOM     20  C   UNL     1       3.312   5.301  20.121  0.00  0.00    +0.000 C 
ENDBRANCH   9  12
ENDBRANCH   3   6
BRANCH   4  21
ATOM     21  N   UNL     1      -2.594  11.820  17.450  0.00  0.00    +0.000 NA
ATOM     22  C   UNL     1      -2.925  11.103  16.209  0.00  0.00    +0.000 C 
ATOM     23  C   UNL     1      -3.698  11.525  18.402  0.00  0.00    +0.000 C 
ENDBRANCH   4  21
BRANCH   1  24
ATOM     24  C   UNL     1       1.260  12.165  19.873  0.00  0.00    +0.000 C 
BRANCH  24  32
ATOM     25  C   UNL     1       1.940  14.671  21.734  0.00  0.00    +0.000 C 
ATOM     26  C   UNL     1       2.162  14.535  20.251  0.00  0.00    +0.000 A 
ATOM     27  C   UNL     1       2.456  15.704  19.532  0.00  0.00    +0.000 A 
ATOM     28  C   UNL     1       2.948  15.638  18.230  0.00  0.00    +0.000 A 
ATOM     29  C   UNL     1       3.252  14.402  17.673  0.00  0.00    +0.000 A 
ATOM     30  C   UNL     1       2.898  13.241  18.347  0.00  0.00    +0.000 A 
ATOM     31  F   UNL     1       3.096  12.063  17.735  0.00  0.00    +0.000 F 
ATOM     32  C   UNL     1       2.234  13.293  19.579  0.00  0.00    +0.000 A 
ENDBRANCH  24  32
ENDBRANCH   1  24
TORSDOF 5
ENDMDL
MODEL 5
REMARK VINA RESULT:      -7.0      3.117      9.519
REMARK  Name = 
REMARK  8 active torsions:
REMARK  status: ('A' for Active; 'I' for Inactive)
REMARK    1  A    between atoms: C_1  and  C_2
REMARK    2  A    between atoms: C_8  and  C_9
REMARK    3  A    between atoms: C_9  and  N_10
REMARK    4  A    between atoms: C_12  and  C_13
REMARK    5  A    between atoms: C_16  and  N_17
REMARK    6  A    between atoms: C_28  and  N_29
REMARK    7  A    between atoms: N_29  and  C_30
REMARK    8  A    between atoms: N_29  and  C_31
REMARK                            x       y       z     vdW  Elec       q    Type
REMARK                         _______ _______ _______ _____ _____    ______ ____
ROOT
ATOM      1  N   UNL     1       4.934   4.425  17.928  0.00  0.00    +0.000 NA
ATOM      2  C   UNL     1       3.566   4.480  17.344  0.00  0.00    +0.000 C 
ATOM      3  C   UNL     1       2.565   4.538  18.530  0.00  0.00    +0.000 C 
ATOM      4  C   UNL     1       3.305   3.389  19.431  0.00  0.00    +0.000 C 
ATOM      5  C   UNL     1       4.784   3.356  18.902  0.00  0.00    +0.000 C 
ENDROOT
BRANCH   3   6
ATOM      6  C   UNL     1       2.265   6.061  18.921  0.00  0.00    +0.000 A 
ATOM      7  C   UNL     1       2.167   7.055  17.908  0.00  0.00    +0.000 A 
ATOM      8  C   UNL     1       1.908   8.433  18.127  0.00  0.00    +0.000 A 
ATOM      9  C   UNL     1       1.696   8.951  19.390  0.00  0.00    +0.000 A 
ATOM     10  C   UNL     1       1.683   7.972  20.413  0.00  0.00    +0.000 A 
ATOM     11  C   UNL     1       1.954   6.563  20.194  0.00  0.00    +0.000 A 
BRANCH   9  12
ATOM     12  N   UNL     1       1.503  10.314  19.638  0.00  0.00    +0.000 N 
ATOM     13  C   UNL     1       1.118  10.851  20.976  0.00  0.00    +0.000 C 
ATOM     14  C   UNL     1      -0.405  10.948  21.194  0.00  0.00    +0.000 C 
ATOM     15  N   UNL     1      -1.078  11.472  20.041  0.00  0.00    +0.000 N 
ATOM     16  C   UNL     1      -2.344  11.959  19.918  0.00  0.00    +0.000 A 
ATOM     17  N   UNL     1      -2.549  12.336  18.685  0.00  0.00    +0.000 NA
ATOM     18  N   UNL     1      -1.395  12.066  17.961  0.00  0.00    +0.000 NA
ATOM     19  C   UNL     1      -0.530  11.529  18.794  0.00  0.00    +0.000 A 
ATOM     20  C   UNL     1       0.888  11.087  18.522  0.00  0.00    +0.000 C 
ENDBRANCH   9  12
ENDBRANCH   3   6
BRANCH   4  21
ATOM     21  N   UNL     1       2.775   1.962  19.460  0.00  0.00    +0.000 NA
ATOM     22  C   UNL     1       1.383   1.768  19.022  0.00  0.00    +0.000 C 
ATOM     23  C   UNL     1       3.596   1.028  18.643  0.00  0.00    +0.000 C 
ENDBRANCH   4  21
BRANCH   1  24
ATOM     24  C   UNL     1       5.311   5.665  18.618  0.00  0.00    +0.000 C 
BRANCH  24  32
ATOM     25  C   UNL     1       8.301   5.242  19.660  0.00  0.00    +0.000 C 
ATOM     26  C   UNL     1       7.737   6.432  18.929  0.00  0.00    +0.000 A 
ATOM     27  C   UNL     1       8.507   7.605  18.913  0.00  0.00    +0.000 A 
ATOM     28  C   UNL     1       8.206   8.647  18.038  0.00  0.00    +0.000 A 
ATOM     29  C   UNL     1       7.197   8.483  17.097  0.00  0.00    +0.000 A 
ATOM     30  C   UNL     1       6.385   7.358  17.152  0.00  0.00    +0.000 A 
ATOM     31  F   UNL     1       5.346   7.280  16.307  0.00  0.00    +0.000 F 
ATOM     32  C   UNL     1       6.561   6.386  18.145  0.00  0.00    +0.000 A 
ENDBRANCH  24  32
ENDBRANCH   1  24
TORSDOF 5
ENDMDL
MODEL 6
REMARK VINA RESULT:      -6.9      3.172      9.407
REMARK  Name = 
REMARK  8 active torsions:
REMARK  status: ('A' for Active; 'I' for Inactive)
REMARK    1  A    between atoms: C_1  and  C_2
REMARK    2  A    between atoms: C_8  and  C_9
REMARK    3  A    between atoms: C_9  and  N_10
REMARK    4  A    between atoms: C_12  and  C_13
REMARK    5  A    between atoms: C_16  and  N_17
REMARK    6  A    between atoms: C_28  and  N_29
REMARK    7  A    between atoms: N_29  and  C_30
REMARK    8  A    between atoms: N_29  and  C_31
REMARK                            x       y       z     vdW  Elec       q    Type
REMARK                         _______ _______ _______ _____ _____    ______ ____
ROOT
ATOM      1  N   UNL     1       3.243   3.922  17.224  0.00  0.00    +0.000 NA
ATOM      2  C   UNL     1       1.890   3.923  17.845  0.00  0.00    +0.000 C 
ATOM      3  C   UNL     1       2.053   4.453  19.296  0.00  0.00    +0.000 C 
ATOM      4  C   UNL     1       3.396   3.582  19.642  0.00  0.00    +0.000 C 
ATOM      5  C   UNL     1       4.022   3.237  18.243  0.00  0.00    +0.000 C 
ENDROOT
BRANCH   3   6
ATOM      6  C   UNL     1       1.872   6.043  19.323  0.00  0.00    +0.000 A 
ATOM      7  C   UNL     1       1.641   6.717  20.554  0.00  0.00    +0.000 A 
ATOM      8  C   UNL     1       1.464   8.117  20.708  0.00  0.00    +0.000 A 
ATOM      9  C   UNL     1       1.526   8.988  19.638  0.00  0.00    +0.000 A 
ATOM     10  C   UNL     1       1.859   8.364  18.412  0.00  0.00    +0.000 A 
ATOM     11  C   UNL     1       2.034   6.933  18.249  0.00  0.00    +0.000 A 
BRANCH   9  12
ATOM     12  N   UNL     1       1.291  10.363  19.753  0.00  0.00    +0.000 N 
ATOM     13  C   UNL     1       0.852  11.010  21.023  0.00  0.00    +0.000 C 
ATOM     14  C   UNL     1      -0.678  11.084  21.190  0.00  0.00    +0.000 C 
ATOM     15  N   UNL     1      -1.330  11.480  19.976  0.00  0.00    +0.000 N 
ATOM     16  C   UNL     1      -2.604  11.918  19.773  0.00  0.00    +0.000 A 
ATOM     17  N   UNL     1      -2.781  12.174  18.505  0.00  0.00    +0.000 NA
ATOM     18  N   UNL     1      -1.599  11.870  17.842  0.00  0.00    +0.000 NA
ATOM     19  C   UNL     1      -0.746  11.437  18.744  0.00  0.00    +0.000 A 
ATOM     20  C   UNL     1       0.689  11.012  18.553  0.00  0.00    +0.000 C 
ENDBRANCH   9  12
ENDBRANCH   3   6
BRANCH   4  21
ATOM     21  N   UNL     1       3.300   2.297  20.453  0.00  0.00    +0.000 NA
ATOM     22  C   UNL     1       4.572   1.691  20.878  0.00  0.00    +0.000 C 
ATOM     23  C   UNL     1       2.488   2.457  21.690  0.00  0.00    +0.000 C 
ENDBRANCH   4  21
BRANCH   1  24
ATOM     24  C   UNL     1       3.781   5.273  17.024  0.00  0.00    +0.000 C 
BRANCH  24  32
ATOM     25  C   UNL     1       5.765   4.909  14.547  0.00  0.00    +0.000 C 
ATOM     26  C   UNL     1       6.103   4.871  16.014  0.00  0.00    +0.000 A 
ATOM     27  C   UNL     1       7.363   4.368  16.374  0.00  0.00    +0.000 A 
ATOM     28  C   UNL     1       7.866   4.554  17.660  0.00  0.00    +0.000 A 
ATOM     29  C   UNL     1       7.162   5.337  18.566  0.00  0.00    +0.000 A 
ATOM     30  C   UNL     1       5.885   5.777  18.245  0.00  0.00    +0.000 A 
ATOM     31  F   UNL     1       5.181   6.431  19.181  0.00  0.00    +0.000 F 
ATOM     32  C   UNL     1       5.291   5.440  17.021  0.00  0.00    +0.000 A 
ENDBRANCH  24  32
ENDBRANCH   1  24
TORSDOF 5
ENDMDL
MODEL 7
REMARK VINA RESULT:      -6.8      2.616      5.051
REMARK  Name = 
REMARK  8 active torsions:
REMARK  status: ('A' for Active; 'I' for Inactive)
REMARK    1  A    between atoms: C_1  and  C_2
REMARK    2  A    between atoms: C_8  and  C_9
REMARK    3  A    between atoms: C_9  and  N_10
REMARK    4  A    between atoms: C_12  and  C_13
REMARK    5  A    between atoms: C_16  and  N_17
REMARK    6  A    between atoms: C_28  and  N_29
REMARK    7  A    between atoms: N_29  and  C_30
REMARK    8  A    between atoms: N_29  and  C_31
REMARK                            x       y       z     vdW  Elec       q    Type
REMARK                         _______ _______ _______ _____ _____    ______ ____
ROOT
ATOM      1  N   UNL     1       0.397  13.081  21.113  0.00  0.00    +0.000 NA
ATOM      2  C   UNL     1      -0.426  12.024  21.761  0.00  0.00    +0.000 C 
ATOM      3  C   UNL     1      -0.974  11.113  20.630  0.00  0.00    +0.000 C 
ATOM      4  C   UNL     1      -1.389  12.331  19.619  0.00  0.00    +0.000 C 
ATOM      5  C   UNL     1      -0.508  13.549  20.076  0.00  0.00    +0.000 C 
ENDROOT
BRANCH   3   6
ATOM      6  C   UNL     1       0.041   9.905  20.359  0.00  0.00    +0.000 A 
ATOM      7  C   UNL     1       0.210   8.879  21.329  0.00  0.00    +0.000 A 
ATOM      8  C   UNL     1       1.077   7.762  21.207  0.00  0.00    +0.000 A 
ATOM      9  C   UNL     1       1.847   7.548  20.080  0.00  0.00    +0.000 A 
ATOM     10  C   UNL     1       1.625   8.493  19.049  0.00  0.00    +0.000 A 
ATOM     11  C   UNL     1       0.745   9.640  19.174  0.00  0.00    +0.000 A 
BRANCH   9  12
ATOM     12  N   UNL     1       2.756   6.491  19.960  0.00  0.00    +0.000 N 
ATOM     13  C   UNL     1       3.443   6.149  18.681  0.00  0.00    +0.000 C 
ATOM     14  C   UNL     1       2.675   5.132  17.814  0.00  0.00    +0.000 C 
ATOM     15  N   UNL     1       2.141   4.056  18.596  0.00  0.00    +0.000 N 
ATOM     16  C   UNL     1       1.651   2.849  18.199  0.00  0.00    +0.000 A 
ATOM     17  N   UNL     1       1.269   2.167  19.245  0.00  0.00    +0.000 NA
ATOM     18  N   UNL     1       1.485   2.956  20.368  0.00  0.00    +0.000 NA
ATOM     19  C   UNL     1       1.993   4.096  19.951  0.00  0.00    +0.000 A 
ATOM     20  C   UNL     1       2.441   5.281  20.771  0.00  0.00    +0.000 C 
ENDBRANCH   9  12
ENDBRANCH   3   6
BRANCH   4  21
ATOM     21  N   UNL     1      -2.835  12.798  19.518  0.00  0.00    +0.000 NA
ATOM     22  C   UNL     1      -3.773  11.891  18.838  0.00  0.00    +0.000 C 
ATOM     23  C   UNL     1      -3.438  13.094  20.845  0.00  0.00    +0.000 C 
ENDBRANCH   4  21
BRANCH   1  24
ATOM     24  C   UNL     1       1.619  12.553  20.493  0.00  0.00    +0.000 C 
BRANCH  24  32
ATOM     25  C   UNL     1       3.257  14.877  21.950  0.00  0.00    +0.000 C 
ATOM     26  C   UNL     1       2.920  14.762  20.487  0.00  0.00    +0.000 A 
ATOM     27  C   UNL     1       3.103  15.903  19.690  0.00  0.00    +0.000 A 
ATOM     28  C   UNL     1       3.091  15.814  18.299  0.00  0.00    +0.000 A 
ATOM     29  C   UNL     1       3.001  14.567  17.693  0.00  0.00    +0.000 A 
ATOM     30  C   UNL     1       2.748  13.444  18.468  0.00  0.00    +0.000 A 
ATOM     31  F   UNL     1       2.550  12.271  17.847  0.00  0.00    +0.000 F 
ATOM     32  C   UNL     1       2.575  13.546  19.854  0.00  0.00    +0.000 A 
ENDBRANCH  24  32
ENDBRANCH   1  24
TORSDOF 5
ENDMDL
MODEL 8
REMARK VINA RESULT:      -6.8      2.269      4.485
REMARK  Name = 
REMARK  8 active torsions:
REMARK  status: ('A' for Active; 'I' for Inactive)
REMARK    1  A    between atoms: C_1  and  C_2
REMARK    2  A    between atoms: C_8  and  C_9
REMARK    3  A    between atoms: C_9  and  N_10
REMARK    4  A    between atoms: C_12  and  C_13
REMARK    5  A    between atoms: C_16  and  N_17
REMARK    6  A    between atoms: C_28  and  N_29
REMARK    7  A    between atoms: N_29  and  C_30
REMARK    8  A    between atoms: N_29  and  C_31
REMARK                            x       y       z     vdW  Elec       q    Type
REMARK                         _______ _______ _______ _____ _____    ______ ____
ROOT
ATOM      1  N   UNL     1       0.964  12.412  21.176  0.00  0.00    +0.000 NA
ATOM      2  C   UNL     1       0.316  11.191  21.727  0.00  0.00    +0.000 C 
ATOM      3  C   UNL     1      -0.395  10.476  20.546  0.00  0.00    +0.000 C 
ATOM      4  C   UNL     1      -1.037  11.833  19.892  0.00  0.00    +0.000 C 
ATOM      5  C   UNL     1      -0.135  13.002  20.428  0.00  0.00    +0.000 C 
ENDROOT
BRANCH   3   6
ATOM      6  C   UNL     1       0.599   9.424  19.863  0.00  0.00    +0.000 A 
ATOM      7  C   UNL     1       0.934   9.545  18.486  0.00  0.00    +0.000 A 
ATOM      8  C   UNL     1       1.798   8.678  17.767  0.00  0.00    +0.000 A 
ATOM      9  C   UNL     1       2.437   7.612  18.369  0.00  0.00    +0.000 A 
ATOM     10  C   UNL     1       2.210   7.523  19.764  0.00  0.00    +0.000 A 
ATOM     11  C   UNL     1       1.321   8.403  20.500  0.00  0.00    +0.000 A 
BRANCH   9  12
ATOM     12  N   UNL     1       3.242   6.705  17.671  0.00  0.00    +0.000 N 
ATOM     13  C   UNL     1       3.538   5.329  18.166  0.00  0.00    +0.000 C 
ATOM     14  C   UNL     1       4.799   5.242  19.047  0.00  0.00    +0.000 C 
ATOM     15  N   UNL     1       5.884   6.007  18.506  0.00  0.00    +0.000 N 
ATOM     16  C   UNL     1       7.211   5.978  18.816  0.00  0.00    +0.000 A 
ATOM     17  N   UNL     1       7.851   6.844  18.076  0.00  0.00    +0.000 NA
ATOM     18  N   UNL     1       6.918   7.486  17.272  0.00  0.00    +0.000 NA
ATOM     19  C   UNL     1       5.739   6.979  17.561  0.00  0.00    +0.000 A 
ATOM     20  C   UNL     1       4.399   7.304  16.947  0.00  0.00    +0.000 C 
ENDBRANCH   9  12
ENDBRANCH   3   6
BRANCH   4  21
ATOM     21  N   UNL     1      -2.494  12.200  20.140  0.00  0.00    +0.000 NA
ATOM     22  C   UNL     1      -2.760  13.581  20.573  0.00  0.00    +0.000 C 
ATOM     23  C   UNL     1      -3.355  11.970  18.949  0.00  0.00    +0.000 C 
ENDBRANCH   4  21
BRANCH   1  24
ATOM     24  C   UNL     1       2.070  12.108  20.259  0.00  0.00    +0.000 C 
BRANCH  24  32
ATOM     25  C   UNL     1       4.037  14.090  21.810  0.00  0.00    +0.000 C 
ATOM     26  C   UNL     1       3.350  14.317  20.489  0.00  0.00    +0.000 A 
ATOM     27  C   UNL     1       3.342  15.626  19.981  0.00  0.00    +0.000 A 
ATOM     28  C   UNL     1       2.987  15.877  18.657  0.00  0.00    +0.000 A 
ATOM     29  C   UNL     1       2.740  14.812  17.799  0.00  0.00    +0.000 A 
ATOM     30  C   UNL     1       2.674  13.522  18.308  0.00  0.00    +0.000 A 
ATOM     31  F   UNL     1       2.319  12.527  17.481  0.00  0.00    +0.000 F 
ATOM     32  C   UNL     1       2.848  13.275  19.676  0.00  0.00    +0.000 A 
ENDBRANCH  24  32
ENDBRANCH   1  24
TORSDOF 5
ENDMDL
MODEL 9
REMARK VINA RESULT:      -6.6      1.014      1.172
REMARK  Name = 
REMARK  8 active torsions:
REMARK  status: ('A' for Active; 'I' for Inactive)
REMARK    1  A    between atoms: C_1  and  C_2
REMARK    2  A    between atoms: C_8  and  C_9
REMARK    3  A    between atoms: C_9  and  N_10
REMARK    4  A    between atoms: C_12  and  C_13
REMARK    5  A    between atoms: C_16  and  N_17
REMARK    6  A    between atoms: C_28  and  N_29
REMARK    7  A    between atoms: N_29  and  C_30
REMARK    8  A    between atoms: N_29  and  C_31
REMARK                            x       y       z     vdW  Elec       q    Type
REMARK                         _______ _______ _______ _____ _____    ______ ____
ROOT
ATOM      1  N   UNL     1      -1.441  12.226  19.369  0.00  0.00    +0.000 NA
ATOM      2  C   UNL     1       0.004  12.542  19.207  0.00  0.00    +0.000 C 
ATOM      3  C   UNL     1       0.775  11.726  20.280  0.00  0.00    +0.000 C 
ATOM      4  C   UNL     1      -0.264  12.038  21.506  0.00  0.00    +0.000 C 
ATOM      5  C   UNL     1      -1.615  12.420  20.800  0.00  0.00    +0.000 C 
ENDROOT
BRANCH   3   6
ATOM      6  C   UNL     1       1.202  10.303  19.684  0.00  0.00    +0.000 A 
ATOM      7  C   UNL     1       1.637  10.192  18.335  0.00  0.00    +0.000 A 
ATOM      8  C   UNL     1       2.038   8.991  17.693  0.00  0.00    +0.000 A 
ATOM      9  C   UNL     1       2.068   7.779  18.354  0.00  0.00    +0.000 A 
ATOM     10  C   UNL     1       1.743   7.869  19.728  0.00  0.00    +0.000 A 
ATOM     11  C   UNL     1       1.325   9.094  20.386  0.00  0.00    +0.000 A 
BRANCH   9  12
ATOM     12  N   UNL     1       2.398   6.571  17.727  0.00  0.00    +0.000 N 
ATOM     13  C   UNL     1       1.564   5.340  17.843  0.00  0.00    +0.000 C 
ATOM     14  C   UNL     1       1.950   4.434  19.028  0.00  0.00    +0.000 C 
ATOM     15  N   UNL     1       3.371   4.295  19.154  0.00  0.00    +0.000 N 
ATOM     16  C   UNL     1       4.099   3.394  19.872  0.00  0.00    +0.000 A 
ATOM     17  N   UNL     1       5.372   3.625  19.701  0.00  0.00    +0.000 NA
ATOM     18  N   UNL     1       5.495   4.730  18.868  0.00  0.00    +0.000 NA
ATOM     19  C   UNL     1       4.278   5.127  18.566  0.00  0.00    +0.000 A 
ATOM     20  C   UNL     1       3.855   6.261  17.664  0.00  0.00    +0.000 C 
ENDBRANCH   9  12
ENDBRANCH   3   6
BRANCH   4  21
ATOM     21  N   UNL     1       0.055  13.109  22.541  0.00  0.00    +0.000 NA
ATOM     22  C   UNL     1       0.667  14.349  22.038  0.00  0.00    +0.000 C 
ATOM     23  C   UNL     1      -1.141  13.529  23.320  0.00  0.00    +0.000 C 
ENDBRANCH   4  21
BRANCH   1  24
ATOM     24  C   UNL     1      -1.764  10.837  19.023  0.00  0.00    +0.000 C 
BRANCH  24  32
ATOM     25  C   UNL     1      -1.427   9.139  16.337  0.00  0.00    +0.000 C 
ATOM     26  C   UNL     1      -2.454  10.199  16.637  0.00  0.00    +0.000 A 
ATOM     27  C   UNL     1      -3.195  10.705  15.558  0.00  0.00    +0.000 A 
ATOM     28  C   UNL     1      -4.342  11.467  15.772  0.00  0.00    +0.000 A 
ATOM     29  C   UNL     1      -4.820  11.640  17.066  0.00  0.00    +0.000 A 
ATOM     30  C   UNL     1      -4.057  11.206  18.141  0.00  0.00    +0.000 A 
ATOM     31  F   UNL     1      -4.484  11.489  19.381  0.00  0.00    +0.000 F 
ATOM     32  C   UNL     1      -2.809  10.600  17.946  0.00  0.00    +0.000 A 
ENDBRANCH  24  32
ENDBRANCH   1  24
TORSDOF 5
ENDMDL
