MODEL 1
REMARK VINA RESULT:      -9.0      0.000      0.000
REMARK  Name = 
REMARK  6 active torsions:
REMARK  status: ('A' for Active; 'I' for Inactive)
REMARK    1  A    between atoms: N_1  and  C_2
REMARK    2  A    between atoms: C_2  and  C_3
REMARK    3  A    between atoms: C_6  and  C_7
REMARK    4  A    between atoms: C_11  and  C_12
REMARK    5  A    between atoms: C_29  and  O_30
REMARK    6  A    between atoms: C_29  and  C_31
REMARK                            x       y       z     vdW  Elec       q    Type
REMARK                         _______ _______ _______ _____ _____    ______ ____
ROOT
ATOM      1  C   UNL     1      -0.475  10.774  20.054  0.00  0.00    +0.000 A 
ATOM      2  N   UNL     1      -0.359  11.463  21.251  0.00  0.00    +0.000 NA
ATOM      3  C   UNL     1      -1.386  12.279  21.288  0.00  0.00    +0.000 A 
ATOM      4  N   UNL     1      -2.164  12.133  20.171  0.00  0.00    +0.000 N 
ATOM      5  C   UNL     1      -1.616  11.173  19.345  0.00  0.00    +0.000 A 
ATOM      6  C   UNL     1      -3.306  12.999  19.943  0.00  0.00    +0.000 C 
ATOM      7  O   UNL     1      -3.918  13.474  21.157  0.00  0.00    +0.000 OA
ATOM      8  C   UNL     1      -3.047  13.831  22.148  0.00  0.00    +0.000 A 
ATOM      9  C   UNL     1      -3.459  14.752  23.094  0.00  0.00    +0.000 A 
ATOM     10  N   UNL     1      -2.688  15.152  24.129  0.00  0.00    +0.000 NA
ATOM     11  C   UNL     1      -1.463  14.582  24.233  0.00  0.00    +0.000 A 
ATOM     12  C   UNL     1      -0.971  13.633  23.348  0.00  0.00    +0.000 A 
ATOM     13  C   UNL     1      -1.783  13.257  22.284  0.00  0.00    +0.000 A 
ENDROOT
BRANCH   1  17
ATOM     14  C   UNL     1       2.288   7.680  18.811  0.00  0.00    +0.000 A 
ATOM     15  C   UNL     1       1.891   7.836  20.157  0.00  0.00    +0.000 A 
ATOM     16  C   UNL     1       1.014   8.851  20.570  0.00  0.00    +0.000 A 
ATOM     17  C   UNL     1       0.499   9.766  19.645  0.00  0.00    +0.000 A 
ATOM     18  C   UNL     1       0.922   9.659  18.319  0.00  0.00    +0.000 A 
ATOM     19  C   UNL     1       1.746   8.610  17.908  0.00  0.00    +0.000 A 
BRANCH  14  20
ATOM     20  C   UNL     1       3.301   6.566  18.327  0.00  0.00    +0.000 C 
ATOM     21  C   UNL     1       2.776   5.192  17.839  0.00  0.00    +0.000 C 
ATOM     22  C   UNL     1       3.119   4.601  19.258  0.00  0.00    +0.000 C 
ATOM     23  C   UNL     1       4.155   5.778  19.365  0.00  0.00    +0.000 C 
BRANCH  20  24
ATOM     24  N   UNL     1       4.219   7.122  17.328  0.00  0.00    +0.000 NA
ATOM     25  H   UNL     1       4.555   8.057  17.547  0.00  0.00    +0.000 HD
ATOM     26  H   UNL     1       3.859   7.156  16.376  0.00  0.00    +0.000 HD
ENDBRANCH  20  24
BRANCH  22  27
ATOM     27  C   UNL     1       1.973   4.610  20.283  0.00  0.00    +0.000 C 
ATOM     28  C   UNL     1       0.787   3.684  20.183  0.00  0.00    +0.000 C 
ATOM     29  C   UNL     1       1.745   3.552  21.332  0.00  0.00    +0.000 C 
ENDBRANCH  22  27
BRANCH  22  30
ATOM     30  O   UNL     1       3.780   3.313  19.169  0.00  0.00    +0.000 OA
ATOM     31  H   UNL     1       3.053   2.677  19.118  0.00  0.00    +0.000 HD
ENDBRANCH  22  30
ENDBRANCH  14  20
ENDBRANCH   1  17
BRANCH   5  32
ATOM     32  C   UNL     1      -2.203  10.739  18.063  0.00  0.00    +0.000 A 
ATOM     33  C   UNL     1      -2.990   9.581  17.973  0.00  0.00    +0.000 A 
ATOM     34  C   UNL     1      -3.554   9.183  16.756  0.00  0.00    +0.000 A 
ATOM     35  C   UNL     1      -3.399   9.977  15.624  0.00  0.00    +0.000 A 
ATOM     36  C   UNL     1      -2.652  11.148  15.701  0.00  0.00    +0.000 A 
ATOM     37  C   UNL     1      -2.028  11.504  16.900  0.00  0.00    +0.000 A 
ENDBRANCH   5  32
TORSDOF 6
ENDMDL
MODEL 2
REMARK VINA RESULT:      -8.7      3.252      4.034
REMARK  Name = 
REMARK  6 active torsions:
REMARK  status: ('A' for Active; 'I' for Inactive)
REMARK    1  A    between atoms: N_1  and  C_2
REMARK    2  A    between atoms: C_2  and  C_3
REMARK    3  A    between atoms: C_6  and  C_7
REMARK    4  A    between atoms: C_11  and  C_12
REMARK    5  A    between atoms: C_29  and  O_30
REMARK    6  A    between atoms: C_29  and  C_31
REMARK                            x       y       z     vdW  Elec       q    Type
REMARK                         _______ _______ _______ _____ _____    ______ ____
ROOT
ATOM      1  C   UNL     1       1.235  11.294  18.875  0.00  0.00    +0.000 A 
ATOM      2  N   UNL     1       2.227  12.236  19.096  0.00  0.00    +0.000 NA
ATOM      3  C   UNL     1       1.640  13.403  18.960  0.00  0.00    +0.000 A 
ATOM      4  N   UNL     1       0.311  13.248  18.675  0.00  0.00    +0.000 N 
ATOM      5  C   UNL     1       0.002  11.904  18.609  0.00  0.00    +0.000 A 
ATOM      6  C   UNL     1      -0.526  14.398  18.386  0.00  0.00    +0.000 C 
ATOM      7  O   UNL     1      -0.094  15.602  19.047  0.00  0.00    +0.000 OA
ATOM      8  C   UNL     1       1.258  15.800  19.074  0.00  0.00    +0.000 A 
ATOM      9  C   UNL     1       1.738  17.092  19.188  0.00  0.00    +0.000 A 
ATOM     10  N   UNL     1       3.053  17.395  19.252  0.00  0.00    +0.000 NA
ATOM     11  C   UNL     1       3.921  16.354  19.229  0.00  0.00    +0.000 A 
ATOM     12  C   UNL     1       3.534  15.024  19.141  0.00  0.00    +0.000 A 
ATOM     13  C   UNL     1       2.174  14.748  19.059  0.00  0.00    +0.000 A 
ENDROOT
BRANCH   1  17
ATOM     14  C   UNL     1       2.194   7.076  19.085  0.00  0.00    +0.000 A 
ATOM     15  C   UNL     1       2.273   7.805  17.878  0.00  0.00    +0.000 A 
ATOM     16  C   UNL     1       1.942   9.168  17.798  0.00  0.00    +0.000 A 
ATOM     17  C   UNL     1       1.505   9.860  18.933  0.00  0.00    +0.000 A 
ATOM     18  C   UNL     1       1.370   9.142  20.123  0.00  0.00    +0.000 A 
ATOM     19  C   UNL     1       1.760   7.804  20.205  0.00  0.00    +0.000 A 
BRANCH  14  20
ATOM     20  C   UNL     1       2.529   5.534  19.192  0.00  0.00    +0.000 C 
ATOM     21  C   UNL     1       3.993   5.066  19.391  0.00  0.00    +0.000 C 
ATOM     22  C   UNL     1       4.067   4.767  17.846  0.00  0.00    +0.000 C 
ATOM     23  C   UNL     1       2.502   4.636  17.920  0.00  0.00    +0.000 C 
BRANCH  20  24
ATOM     24  N   UNL     1       1.671   4.903  20.199  0.00  0.00    +0.000 NA
ATOM     25  H   UNL     1       0.927   4.328  19.810  0.00  0.00    +0.000 HD
ATOM     26  H   UNL     1       1.233   5.542  20.861  0.00  0.00    +0.000 HD
ENDBRANCH  20  24
BRANCH  22  27
ATOM     27  C   UNL     1       4.612   5.906  16.968  0.00  0.00    +0.000 C 
ATOM     28  C   UNL     1       6.027   6.412  17.082  0.00  0.00    +0.000 C 
ATOM     29  C   UNL     1       5.577   5.727  15.824  0.00  0.00    +0.000 C 
ENDBRANCH  22  27
BRANCH  22  30
ATOM     30  O   UNL     1       4.698   3.492  17.564  0.00  0.00    +0.000 OA
ATOM     31  H   UNL     1       4.535   3.351  16.622  0.00  0.00    +0.000 HD
ENDBRANCH  22  30
ENDBRANCH  14  20
ENDBRANCH   1  17
BRANCH   5  32
ATOM     32  C   UNL     1      -1.346  11.368  18.345  0.00  0.00    +0.000 A 
ATOM     33  C   UNL     1      -2.486  11.919  18.950  0.00  0.00    +0.000 A 
ATOM     34  C   UNL     1      -3.762  11.414  18.684  0.00  0.00    +0.000 A 
ATOM     35  C   UNL     1      -3.926  10.394  17.752  0.00  0.00    +0.000 A 
ATOM     36  C   UNL     1      -2.813   9.857  17.114  0.00  0.00    +0.000 A 
ATOM     37  C   UNL     1      -1.533  10.314  17.438  0.00  0.00    +0.000 A 
ENDBRANCH   5  32
TORSDOF 6
ENDMDL
MODEL 3
REMARK VINA RESULT:      -8.2      3.262      3.949
REMARK  Name = 
REMARK  6 active torsions:
REMARK  status: ('A' for Active; 'I' for Inactive)
REMARK    1  A    between atoms: N_1  and  C_2
REMARK    2  A    between atoms: C_2  and  C_3
REMARK    3  A    between atoms: C_6  and  C_7
REMARK    4  A    between atoms: C_11  and  C_12
REMARK    5  A    between atoms: C_29  and  O_30
REMARK    6  A    between atoms: C_29  and  C_31
REMARK                            x       y       z     vdW  Elec       q    Type
REMARK                         _______ _______ _______ _____ _____    ______ ____
ROOT
ATOM      1  C   UNL     1       1.345  11.309  18.869  0.00  0.00    +0.000 A 
ATOM      2  N   UNL     1       2.301  12.281  19.117  0.00  0.00    +0.000 NA
ATOM      3  C   UNL     1       1.687  13.429  18.948  0.00  0.00    +0.000 A 
ATOM      4  N   UNL     1       0.373  13.234  18.616  0.00  0.00    +0.000 N 
ATOM      5  C   UNL     1       0.106  11.881  18.552  0.00  0.00    +0.000 A 
ATOM      6  C   UNL     1      -0.484  14.357  18.285  0.00  0.00    +0.000 C 
ATOM      7  O   UNL     1      -0.112  15.579  18.950  0.00  0.00    +0.000 OA
ATOM      8  C   UNL     1       1.233  15.816  19.025  0.00  0.00    +0.000 A 
ATOM      9  C   UNL     1       1.671  17.121  19.143  0.00  0.00    +0.000 A 
ATOM     10  N   UNL     1       2.974  17.463  19.253  0.00  0.00    +0.000 NA
ATOM     11  C   UNL     1       3.871  16.446  19.272  0.00  0.00    +0.000 A 
ATOM     12  C   UNL     1       3.526  15.106  19.183  0.00  0.00    +0.000 A 
ATOM     13  C   UNL     1       2.178  14.790  19.054  0.00  0.00    +0.000 A 
ENDROOT
BRANCH   1  17
ATOM     14  C   UNL     1       2.100   7.050  19.072  0.00  0.00    +0.000 A 
ATOM     15  C   UNL     1       1.693   7.795  20.201  0.00  0.00    +0.000 A 
ATOM     16  C   UNL     1       1.469   9.180  20.147  0.00  0.00    +0.000 A 
ATOM     17  C   UNL     1       1.653   9.883  18.951  0.00  0.00    +0.000 A 
ATOM     18  C   UNL     1       2.106   9.172  17.839  0.00  0.00    +0.000 A 
ATOM     19  C   UNL     1       2.267   7.786  17.888  0.00  0.00    +0.000 A 
BRANCH  14  20
ATOM     20  C   UNL     1       2.391   5.496  19.116  0.00  0.00    +0.000 C 
ATOM     21  C   UNL     1       3.836   4.979  19.336  0.00  0.00    +0.000 C 
ATOM     22  C   UNL     1       3.949   4.750  17.782  0.00  0.00    +0.000 C 
ATOM     23  C   UNL     1       2.380   4.658  17.803  0.00  0.00    +0.000 C 
BRANCH  20  24
ATOM     24  N   UNL     1       1.487   4.842  20.067  0.00  0.00    +0.000 NA
ATOM     25  H   UNL     1       0.979   4.049  19.680  0.00  0.00    +0.000 HD
ATOM     26  H   UNL     1       0.793   5.451  20.498  0.00  0.00    +0.000 HD
ENDBRANCH  20  24
BRANCH  22  27
ATOM     27  C   UNL     1       4.551   5.913  16.975  0.00  0.00    +0.000 C 
ATOM     28  C   UNL     1       5.955   6.414  17.198  0.00  0.00    +0.000 C 
ATOM     29  C   UNL     1       5.590   5.766  15.894  0.00  0.00    +0.000 C 
ENDBRANCH  22  27
BRANCH  22  30
ATOM     30  O   UNL     1       4.555   3.472  17.459  0.00  0.00    +0.000 OA
ATOM     31  H   UNL     1       5.056   3.646  16.650  0.00  0.00    +0.000 HD
ENDBRANCH  22  30
ENDBRANCH  14  20
ENDBRANCH   1  17
BRANCH   5  32
ATOM     32  C   UNL     1      -1.216  11.304  18.243  0.00  0.00    +0.000 A 
ATOM     33  C   UNL     1      -1.350  10.187  17.405  0.00  0.00    +0.000 A 
ATOM     34  C   UNL     1      -2.605   9.637  17.128  0.00  0.00    +0.000 A 
ATOM     35  C   UNL     1      -3.742  10.153  17.742  0.00  0.00    +0.000 A 
ATOM     36  C   UNL     1      -3.627  11.238  18.604  0.00  0.00    +0.000 A 
ATOM     37  C   UNL     1      -2.381  11.832  18.820  0.00  0.00    +0.000 A 
ENDBRANCH   5  32
TORSDOF 6
ENDMDL
MODEL 4
REMARK VINA RESULT:      -8.1      2.420      3.244
REMARK  Name = 
REMARK  6 active torsions:
REMARK  status: ('A' for Active; 'I' for Inactive)
REMARK    1  A    between atoms: N_1  and  C_2
REMARK    2  A    between atoms: C_2  and  C_3
REMARK    3  A    between atoms: C_6  and  C_7
REMARK    4  A    between atoms: C_11  and  C_12
REMARK    5  A    between atoms: C_29  and  O_30
REMARK    6  A    between atoms: C_29  and  C_31
REMARK                            x       y       z     vdW  Elec       q    Type
REMARK                         _______ _______ _______ _____ _____    ______ ____
ROOT
ATOM      1  C   UNL     1       0.786  11.209  20.033  0.00  0.00    +0.000 A 
ATOM      2  N   UNL     1       1.562  12.094  20.767  0.00  0.00    +0.000 NA
ATOM      3  C   UNL     1       0.940  13.248  20.696  0.00  0.00    +0.000 A 
ATOM      4  N   UNL     1      -0.209  13.138  19.960  0.00  0.00    +0.000 N 
ATOM      5  C   UNL     1      -0.350  11.841  19.510  0.00  0.00    +0.000 A 
ATOM      6  C   UNL     1      -1.015  14.307  19.663  0.00  0.00    +0.000 C 
ATOM      7  O   UNL     1      -0.934  15.332  20.672  0.00  0.00    +0.000 OA
ATOM      8  C   UNL     1       0.314  15.545  21.187  0.00  0.00    +0.000 A 
ATOM      9  C   UNL     1       0.608  16.783  21.727  0.00  0.00    +0.000 A 
ATOM     10  N   UNL     1       1.799  17.089  22.287  0.00  0.00    +0.000 NA
ATOM     11  C   UNL     1       2.724  16.099  22.331  0.00  0.00    +0.000 A 
ATOM     12  C   UNL     1       2.514  14.819  21.838  0.00  0.00    +0.000 A 
ATOM     13  C   UNL     1       1.284  14.543  21.252  0.00  0.00    +0.000 A 
ENDROOT
BRANCH   1  17
ATOM     14  C   UNL     1       2.047   7.090  19.594  0.00  0.00    +0.000 A 
ATOM     15  C   UNL     1       2.092   8.007  18.521  0.00  0.00    +0.000 A 
ATOM     16  C   UNL     1       1.663   9.339  18.651  0.00  0.00    +0.000 A 
ATOM     17  C   UNL     1       1.159   9.807  19.869  0.00  0.00    +0.000 A 
ATOM     18  C   UNL     1       1.058   8.900  20.925  0.00  0.00    +0.000 A 
ATOM     19  C   UNL     1       1.544   7.597  20.803  0.00  0.00    +0.000 A 
BRANCH  14  20
ATOM     20  C   UNL     1       2.492   5.578  19.463  0.00  0.00    +0.000 C 
ATOM     21  C   UNL     1       3.992   5.197  19.537  0.00  0.00    +0.000 C 
ATOM     22  C   UNL     1       4.013   5.128  17.964  0.00  0.00    +0.000 C 
ATOM     23  C   UNL     1       2.467   4.871  18.075  0.00  0.00    +0.000 C 
BRANCH  20  24
ATOM     24  N   UNL     1       1.728   4.747  20.398  0.00  0.00    +0.000 NA
ATOM     25  H   UNL     1       1.797   3.748  20.218  0.00  0.00    +0.000 HD
ATOM     26  H   UNL     1       0.734   4.965  20.463  0.00  0.00    +0.000 HD
ENDBRANCH  20  24
BRANCH  22  27
ATOM     27  C   UNL     1       4.437   6.418  17.242  0.00  0.00    +0.000 C 
ATOM     28  C   UNL     1       5.872   6.875  17.172  0.00  0.00    +0.000 C 
ATOM     29  C   UNL     1       5.153   6.470  15.917  0.00  0.00    +0.000 C 
ENDBRANCH  22  27
BRANCH  22  30
ATOM     30  O   UNL     1       4.717   3.957  17.477  0.00  0.00    +0.000 OA
ATOM     31  H   UNL     1       4.891   3.438  18.274  0.00  0.00    +0.000 HD
ENDBRANCH  22  30
ENDBRANCH  14  20
ENDBRANCH   1  17
BRANCH   5  32
ATOM     32  C   UNL     1      -1.486  11.355  18.705  0.00  0.00    +0.000 A 
ATOM     33  C   UNL     1      -1.311  10.401  17.691  0.00  0.00    +0.000 A 
ATOM     34  C   UNL     1      -2.396   9.936  16.941  0.00  0.00    +0.000 A 
ATOM     35  C   UNL     1      -3.685  10.363  17.242  0.00  0.00    +0.000 A 
ATOM     36  C   UNL     1      -3.885  11.281  18.267  0.00  0.00    +0.000 A 
ATOM     37  C   UNL     1      -2.791  11.801  18.965  0.00  0.00    +0.000 A 
ENDBRANCH   5  32
TORSDOF 6
ENDMDL
MODEL 5
REMARK VINA RESULT:      -7.9      2.268      3.500
REMARK  Name = 
REMARK  6 active torsions:
REMARK  status: ('A' for Active; 'I' for Inactive)
REMARK    1  A    between atoms: N_1  and  C_2
REMARK    2  A    between atoms: C_2  and  C_3
REMARK    3  A    between atoms: C_6  and  C_7
REMARK    4  A    between atoms: C_11  and  C_12
REMARK    5  A    between atoms: C_29  and  O_30
REMARK    6  A    between atoms: C_29  and  C_31
REMARK                            x       y       z     vdW  Elec       q    Type
REMARK                         _______ _______ _______ _____ _____    ______ ____
ROOT
ATOM      1  C   UNL     1       0.325  11.093  20.706  0.00  0.00    +0.000 A 
ATOM      2  N   UNL     1      -0.809  10.950  21.490  0.00  0.00    +0.000 NA
ATOM      3  C   UNL     1      -1.096  12.159  21.916  0.00  0.00    +0.000 A 
ATOM      4  N   UNL     1      -0.203  13.073  21.426  0.00  0.00    +0.000 N 
ATOM      5  C   UNL     1       0.734  12.432  20.640  0.00  0.00    +0.000 A 
ATOM      6  C   UNL     1      -0.262  14.463  21.838  0.00  0.00    +0.000 C 
ATOM      7  O   UNL     1      -1.589  14.905  22.178  0.00  0.00    +0.000 OA
ATOM      8  C   UNL     1      -2.338  14.008  22.887  0.00  0.00    +0.000 A 
ATOM      9  C   UNL     1      -3.358  14.483  23.691  0.00  0.00    +0.000 A 
ATOM     10  N   UNL     1      -4.174  13.683  24.410  0.00  0.00    +0.000 NA
ATOM     11  C   UNL     1      -3.975  12.347  24.294  0.00  0.00    +0.000 A 
ATOM     12  C   UNL     1      -2.995  11.776  23.495  0.00  0.00    +0.000 A 
ATOM     13  C   UNL     1      -2.160  12.628  22.782  0.00  0.00    +0.000 A 
ENDROOT
BRANCH   1  17
ATOM     14  C   UNL     1       2.361   7.785  18.791  0.00  0.00    +0.000 A 
ATOM     15  C   UNL     1       1.877   8.894  18.061  0.00  0.00    +0.000 A 
ATOM     16  C   UNL     1       1.197   9.959  18.673  0.00  0.00    +0.000 A 
ATOM     17  C   UNL     1       0.962   9.953  20.052  0.00  0.00    +0.000 A 
ATOM     18  C   UNL     1       1.386   8.840  20.781  0.00  0.00    +0.000 A 
ATOM     19  C   UNL     1       2.115   7.817  20.173  0.00  0.00    +0.000 A 
BRANCH  14  20
ATOM     20  C   UNL     1       3.100   6.559  18.120  0.00  0.00    +0.000 C 
ATOM     21  C   UNL     1       2.315   5.267  17.778  0.00  0.00    +0.000 C 
ATOM     22  C   UNL     1       2.878   4.622  19.100  0.00  0.00    +0.000 C 
ATOM     23  C   UNL     1       4.051   5.659  18.964  0.00  0.00    +0.000 C 
BRANCH  20  24
ATOM     24  N   UNL     1       3.845   7.007  16.939  0.00  0.00    +0.000 NA
ATOM     25  H   UNL     1       3.962   6.291  16.225  0.00  0.00    +0.000 HD
ATOM     26  H   UNL     1       4.771   7.387  17.127  0.00  0.00    +0.000 HD
ENDBRANCH  20  24
BRANCH  22  27
ATOM     27  C   UNL     1       1.988   4.763  20.346  0.00  0.00    +0.000 C 
ATOM     28  C   UNL     1       0.793   3.877  20.595  0.00  0.00    +0.000 C 
ATOM     29  C   UNL     1       1.980   3.809  21.513  0.00  0.00    +0.000 C 
ENDBRANCH  22  27
BRANCH  22  30
ATOM     30  O   UNL     1       3.340   3.262  18.892  0.00  0.00    +0.000 OA
ATOM     31  H   UNL     1       3.497   3.210  17.940  0.00  0.00    +0.000 HD
ENDBRANCH  22  30
ENDBRANCH  14  20
ENDBRANCH   1  17
BRANCH   5  32
ATOM     32  C   UNL     1       1.835  13.111  19.931  0.00  0.00    +0.000 A 
ATOM     33  C   UNL     1       1.830  13.252  18.534  0.00  0.00    +0.000 A 
ATOM     34  C   UNL     1       2.871  13.908  17.870  0.00  0.00    +0.000 A 
ATOM     35  C   UNL     1       3.899  14.498  18.599  0.00  0.00    +0.000 A 
ATOM     36  C   UNL     1       3.904  14.401  19.986  0.00  0.00    +0.000 A 
ATOM     37  C   UNL     1       2.902  13.680  20.641  0.00  0.00    +0.000 A 
ENDBRANCH   5  32
TORSDOF 6
ENDMDL
MODEL 6
REMARK VINA RESULT:      -7.9      2.331      9.848
REMARK  Name = 
REMARK  6 active torsions:
REMARK  status: ('A' for Active; 'I' for Inactive)
REMARK    1  A    between atoms: N_1  and  C_2
REMARK    2  A    between atoms: C_2  and  C_3
REMARK    3  A    between atoms: C_6  and  C_7
REMARK    4  A    between atoms: C_11  and  C_12
REMARK    5  A    between atoms: C_29  and  O_30
REMARK    6  A    between atoms: C_29  and  C_31
REMARK                            x       y       z     vdW  Elec       q    Type
REMARK                         _______ _______ _______ _____ _____    ______ ____
ROOT
ATOM      1  C   UNL     1       3.116   6.623  18.070  0.00  0.00    +0.000 A 
ATOM      2  N   UNL     1       3.974   6.849  17.005  0.00  0.00    +0.000 NA
ATOM      3  C   UNL     1       4.516   5.683  16.737  0.00  0.00    +0.000 A 
ATOM      4  N   UNL     1       4.032   4.717  17.576  0.00  0.00    +0.000 N 
ATOM      5  C   UNL     1       3.125   5.275  18.454  0.00  0.00    +0.000 A 
ATOM      6  C   UNL     1       4.557   3.365  17.533  0.00  0.00    +0.000 C 
ATOM      7  O   UNL     1       5.036   2.976  16.232  0.00  0.00    +0.000 OA
ATOM      8  C   UNL     1       5.729   3.940  15.554  0.00  0.00    +0.000 A 
ATOM      9  C   UNL     1       6.647   3.550  14.597  0.00  0.00    +0.000 A 
ATOM     10  N   UNL     1       7.362   4.420  13.851  0.00  0.00    +0.000 NA
ATOM     11  C   UNL     1       7.124   5.739  14.058  0.00  0.00    +0.000 A 
ATOM     12  C   UNL     1       6.207   6.226  14.977  0.00  0.00    +0.000 A 
ATOM     13  C   UNL     1       5.500   5.304  15.740  0.00  0.00    +0.000 A 
ENDROOT
BRANCH   1  17
ATOM     14  C   UNL     1       0.911   9.878  19.885  0.00  0.00    +0.000 A 
ATOM     15  C   UNL     1       1.237   8.703  20.597  0.00  0.00    +0.000 A 
ATOM     16  C   UNL     1       1.932   7.634  20.007  0.00  0.00    +0.000 A 
ATOM     17  C   UNL     1       2.325   7.696  18.666  0.00  0.00    +0.000 A 
ATOM     18  C   UNL     1       1.965   8.827  17.932  0.00  0.00    +0.000 A 
ATOM     19  C   UNL     1       1.328   9.909  18.544  0.00  0.00    +0.000 A 
BRANCH  14  20
ATOM     20  C   UNL     1       0.101  11.079  20.517  0.00  0.00    +0.000 C 
ATOM     21  C   UNL     1      -1.442  11.000  20.642  0.00  0.00    +0.000 C 
ATOM     22  C   UNL     1      -1.555  11.876  19.338  0.00  0.00    +0.000 C 
ATOM     23  C   UNL     1      -0.116  12.392  19.706  0.00  0.00    +0.000 C 
BRANCH  20  24
ATOM     24  N   UNL     1       0.679  11.450  21.812  0.00  0.00    +0.000 NA
ATOM     25  H   UNL     1       0.020  11.417  22.587  0.00  0.00    +0.000 HD
ATOM     26  H   UNL     1       1.124  12.366  21.845  0.00  0.00    +0.000 HD
ENDBRANCH  20  24
BRANCH  22  27
ATOM     27  C   UNL     1      -1.680  11.098  18.018  0.00  0.00    +0.000 C 
ATOM     28  C   UNL     1      -2.626   9.937  17.846  0.00  0.00    +0.000 C 
ATOM     29  C   UNL     1      -2.843  11.200  17.064  0.00  0.00    +0.000 C 
ENDBRANCH  22  27
BRANCH  22  30
ATOM     30  O   UNL     1      -2.548  12.925  19.467  0.00  0.00    +0.000 OA
ATOM     31  H   UNL     1      -2.399  13.487  18.695  0.00  0.00    +0.000 HD
ENDBRANCH  22  30
ENDBRANCH  14  20
ENDBRANCH   1  17
BRANCH   5  32
ATOM     32  C   UNL     1       2.387   4.522  19.485  0.00  0.00    +0.000 A 
ATOM     33  C   UNL     1       1.190   3.853  19.187  0.00  0.00    +0.000 A 
ATOM     34  C   UNL     1       0.502   3.130  20.167  0.00  0.00    +0.000 A 
ATOM     35  C   UNL     1       1.039   3.003  21.444  0.00  0.00    +0.000 A 
ATOM     36  C   UNL     1       2.243   3.628  21.750  0.00  0.00    +0.000 A 
ATOM     37  C   UNL     1       2.889   4.412  20.790  0.00  0.00    +0.000 A 
ENDBRANCH   5  32
TORSDOF 6
ENDMDL
MODEL 7
REMARK VINA RESULT:      -7.8      2.402      3.114
REMARK  Name = 
REMARK  6 active torsions:
REMARK  status: ('A' for Active; 'I' for Inactive)
REMARK    1  A    between atoms: N_1  and  C_2
REMARK    2  A    between atoms: C_2  and  C_3
REMARK    3  A    between atoms: C_6  and  C_7
REMARK    4  A    between atoms: C_11  and  C_12
REMARK    5  A    between atoms: C_29  and  O_30
REMARK    6  A    between atoms: C_29  and  C_31
REMARK                            x       y       z     vdW  Elec       q    Type
REMARK                         _______ _______ _______ _____ _____    ______ ____
ROOT
ATOM      1  C   UNL     1       0.849  11.214  20.101  0.00  0.00    +0.000 A 
ATOM      2  N   UNL     1       1.592  12.131  20.829  0.00  0.00    +0.000 NA
ATOM      3  C   UNL     1       0.939  13.266  20.733  0.00  0.00    +0.000 A 
ATOM      4  N   UNL     1      -0.198  13.114  19.987  0.00  0.00    +0.000 N 
ATOM      5  C   UNL     1      -0.298  11.806  19.556  0.00  0.00    +0.000 A 
ATOM      6  C   UNL     1      -1.033  14.255  19.663  0.00  0.00    +0.000 C 
ATOM      7  O   UNL     1      -0.991  15.297  20.656  0.00  0.00    +0.000 OA
ATOM      8  C   UNL     1       0.244  15.552  21.182  0.00  0.00    +0.000 A 
ATOM      9  C   UNL     1       0.498  16.806  21.705  0.00  0.00    +0.000 A 
ATOM     10  N   UNL     1       1.673  17.154  22.273  0.00  0.00    +0.000 NA
ATOM     11  C   UNL     1       2.624  16.190  22.343  0.00  0.00    +0.000 A 
ATOM     12  C   UNL     1       2.456  14.898  21.867  0.00  0.00    +0.000 A 
ATOM     13  C   UNL     1       1.240  14.579  21.273  0.00  0.00    +0.000 A 
ENDROOT
BRANCH   1  17
ATOM     14  C   UNL     1       1.919   7.043  19.645  0.00  0.00    +0.000 A 
ATOM     15  C   UNL     1       1.462   7.571  20.873  0.00  0.00    +0.000 A 
ATOM     16  C   UNL     1       1.135   8.928  21.033  0.00  0.00    +0.000 A 
ATOM     17  C   UNL     1       1.263   9.821  19.963  0.00  0.00    +0.000 A 
ATOM     18  C   UNL     1       1.764   9.326  18.757  0.00  0.00    +0.000 A 
ATOM     19  C   UNL     1       2.027   7.966  18.592  0.00  0.00    +0.000 A 
BRANCH  14  20
ATOM     20  C   UNL     1       2.325   5.528  19.450  0.00  0.00    +0.000 C 
ATOM     21  C   UNL     1       3.812   5.100  19.540  0.00  0.00    +0.000 C 
ATOM     22  C   UNL     1       3.870   5.107  17.966  0.00  0.00    +0.000 C 
ATOM     23  C   UNL     1       2.314   4.890  18.028  0.00  0.00    +0.000 C 
BRANCH  20  24
ATOM     24  N   UNL     1       1.516   4.674  20.325  0.00  0.00    +0.000 NA
ATOM     25  H   UNL     1       1.000   5.182  21.040  0.00  0.00    +0.000 HD
ATOM     26  H   UNL     1       2.026   3.932  20.803  0.00  0.00    +0.000 HD
ENDBRANCH  20  24
BRANCH  22  27
ATOM     27  C   UNL     1       4.346   6.418  17.319  0.00  0.00    +0.000 C 
ATOM     28  C   UNL     1       5.793   6.841  17.312  0.00  0.00    +0.000 C 
ATOM     29  C   UNL     1       5.104   6.514  16.019  0.00  0.00    +0.000 C 
ENDBRANCH  22  27
BRANCH  22  30
ATOM     30  O   UNL     1       4.552   3.942  17.437  0.00  0.00    +0.000 OA
ATOM     31  H   UNL     1       3.838   3.383  17.101  0.00  0.00    +0.000 HD
ENDBRANCH  22  30
ENDBRANCH  14  20
ENDBRANCH   1  17
BRANCH   5  32
ATOM     32  C   UNL     1      -1.412  11.276  18.746  0.00  0.00    +0.000 A 
ATOM     33  C   UNL     1      -2.733  11.701  18.950  0.00  0.00    +0.000 A 
ATOM     34  C   UNL     1      -3.782  11.204  18.170  0.00  0.00    +0.000 A 
ATOM     35  C   UNL     1      -3.515  10.326  17.124  0.00  0.00    +0.000 A 
ATOM     36  C   UNL     1      -2.208   9.919  16.882  0.00  0.00    +0.000 A 
ATOM     37  C   UNL     1      -1.172  10.360  17.711  0.00  0.00    +0.000 A 
ENDBRANCH   5  32
TORSDOF 6
ENDMDL
MODEL 8
REMARK VINA RESULT:      -7.7      1.539      1.813
REMARK  Name = 
REMARK  6 active torsions:
REMARK  status: ('A' for Active; 'I' for Inactive)
REMARK    1  A    between atoms: N_1  and  C_2
REMARK    2  A    between atoms: C_2  and  C_3
REMARK    3  A    between atoms: C_6  and  C_7
REMARK    4  A    between atoms: C_11  and  C_12
REMARK    5  A    between atoms: C_29  and  O_30
REMARK    6  A    between atoms: C_29  and  C_31
REMARK                            x       y       z     vdW  Elec       q    Type
REMARK                         _______ _______ _______ _____ _____    ______ ____
ROOT
ATOM      1  C   UNL     1       0.657  10.906  19.435  0.00  0.00    +0.000 A 
ATOM      2  N   UNL     1       1.217  11.813  20.322  0.00  0.00    +0.000 NA
ATOM      3  C   UNL     1       0.346  12.790  20.421  0.00  0.00    +0.000 A 
ATOM      4  N   UNL     1      -0.755  12.542  19.646  0.00  0.00    +0.000 N 
ATOM      5  C   UNL     1      -0.600  11.338  18.990  0.00  0.00    +0.000 A 
ATOM      6  C   UNL     1      -1.811  13.529  19.519  0.00  0.00    +0.000 C 
ATOM      7  O   UNL     1      -1.957  14.367  20.681  0.00  0.00    +0.000 OA
ATOM      8  C   UNL     1      -0.785  14.772  21.257  0.00  0.00    +0.000 A 
ATOM      9  C   UNL     1      -0.778  15.941  21.996  0.00  0.00    +0.000 A 
ATOM     10  N   UNL     1       0.317  16.415  22.630  0.00  0.00    +0.000 NA
ATOM     11  C   UNL     1       1.445  15.668  22.539  0.00  0.00    +0.000 A 
ATOM     12  C   UNL     1       1.529  14.472  21.842  0.00  0.00    +0.000 A 
ATOM     13  C   UNL     1       0.389  14.021  21.187  0.00  0.00    +0.000 A 
ENDROOT
BRANCH   1  17
ATOM     14  C   UNL     1       2.826   7.312  18.370  0.00  0.00    +0.000 A 
ATOM     15  C   UNL     1       2.616   8.364  17.450  0.00  0.00    +0.000 A 
ATOM     16  C   UNL     1       1.894   9.521  17.782  0.00  0.00    +0.000 A 
ATOM     17  C   UNL     1       1.340   9.671  19.058  0.00  0.00    +0.000 A 
ATOM     18  C   UNL     1       1.492   8.619  19.963  0.00  0.00    +0.000 A 
ATOM     19  C   UNL     1       2.263   7.501  19.643  0.00  0.00    +0.000 A 
BRANCH  14  20
ATOM     20  C   UNL     1       3.606   5.985  18.009  0.00  0.00    +0.000 C 
ATOM     21  C   UNL     1       2.833   4.658  17.800  0.00  0.00    +0.000 C 
ATOM     22  C   UNL     1       3.222   4.246  19.270  0.00  0.00    +0.000 C 
ATOM     23  C   UNL     1       4.429   5.238  19.100  0.00  0.00    +0.000 C 
BRANCH  20  24
ATOM     24  N   UNL     1       4.494   6.219  16.866  0.00  0.00    +0.000 NA
ATOM     25  H   UNL     1       4.119   6.862  16.172  0.00  0.00    +0.000 HD
ATOM     26  H   UNL     1       4.787   5.383  16.363  0.00  0.00    +0.000 HD
ENDBRANCH  20  24
BRANCH  22  27
ATOM     27  C   UNL     1       2.197   4.603  20.359  0.00  0.00    +0.000 C 
ATOM     28  C   UNL     1       0.804   4.028  20.383  0.00  0.00    +0.000 C 
ATOM     29  C   UNL     1       1.773   3.687  21.478  0.00  0.00    +0.000 C 
ENDBRANCH  22  27
BRANCH  22  30
ATOM     30  O   UNL     1       3.669   2.868  19.352  0.00  0.00    +0.000 OA
ATOM     31  H   UNL     1       4.347   2.881  20.041  0.00  0.00    +0.000 HD
ENDBRANCH  22  30
ENDBRANCH  14  20
ENDBRANCH   1  17
BRANCH   5  32
ATOM     32  C   UNL     1      -1.602  10.742  18.087  0.00  0.00    +0.000 A 
ATOM     33  C   UNL     1      -2.606   9.887  18.568  0.00  0.00    +0.000 A 
ATOM     34  C   UNL     1      -3.561   9.337  17.708  0.00  0.00    +0.000 A 
ATOM     35  C   UNL     1      -3.572   9.691  16.362  0.00  0.00    +0.000 A 
ATOM     36  C   UNL     1      -2.608  10.565  15.872  0.00  0.00    +0.000 A 
ATOM     37  C   UNL     1      -1.610  11.054  16.719  0.00  0.00    +0.000 A 
ENDBRANCH   5  32
TORSDOF 6
ENDMDL
MODEL 9
REMARK VINA RESULT:      -7.6      2.449      3.738
REMARK  Name = 
REMARK  6 active torsions:
REMARK  status: ('A' for Active; 'I' for Inactive)
REMARK    1  A    between atoms: N_1  and  C_2
REMARK    2  A    between atoms: C_2  and  C_3
REMARK    3  A    between atoms: C_6  and  C_7
REMARK    4  A    between atoms: C_11  and  C_12
REMARK    5  A    between atoms: C_29  and  O_30
REMARK    6  A    between atoms: C_29  and  C_31
REMARK                            x       y       z     vdW  Elec       q    Type
REMARK                         _______ _______ _______ _____ _____    ______ ____
ROOT
ATOM      1  C   UNL     1       0.212  11.288  19.727  0.00  0.00    +0.000 A 
ATOM      2  N   UNL     1      -1.146  11.165  19.979  0.00  0.00    +0.000 NA
ATOM      3  C   UNL     1      -1.554  12.371  20.299  0.00  0.00    +0.000 A 
ATOM      4  N   UNL     1      -0.519  13.265  20.250  0.00  0.00    +0.000 N 
ATOM      5  C   UNL     1       0.642  12.613  19.886  0.00  0.00    +0.000 A 
ATOM      6  C   UNL     1      -0.709  14.645  20.658  0.00  0.00    +0.000 C 
ATOM      7  O   UNL     1      -2.050  15.125  20.448  0.00  0.00    +0.000 OA
ATOM      8  C   UNL     1      -3.042  14.237  20.757  0.00  0.00    +0.000 A 
ATOM      9  C   UNL     1      -4.290  14.727  21.097  0.00  0.00    +0.000 A 
ATOM     10  N   UNL     1      -5.346  13.937  21.391  0.00  0.00    +0.000 NA
ATOM     11  C   UNL     1      -5.146  12.598  21.312  0.00  0.00    +0.000 A 
ATOM     12  C   UNL     1      -3.939  12.014  20.957  0.00  0.00    +0.000 A 
ATOM     13  C   UNL     1      -2.868  12.855  20.678  0.00  0.00    +0.000 A 
ENDROOT
BRANCH   1  17
ATOM     14  C   UNL     1       2.511   7.819  18.532  0.00  0.00    +0.000 A 
ATOM     15  C   UNL     1       1.964   7.947  19.828  0.00  0.00    +0.000 A 
ATOM     16  C   UNL     1       1.237   9.080  20.229  0.00  0.00    +0.000 A 
ATOM     17  C   UNL     1       1.034  10.144  19.343  0.00  0.00    +0.000 A 
ATOM     18  C   UNL     1       1.612  10.057  18.075  0.00  0.00    +0.000 A 
ATOM     19  C   UNL     1       2.280   8.901  17.667  0.00  0.00    +0.000 A 
BRANCH  14  20
ATOM     20  C   UNL     1       3.361   6.569  18.068  0.00  0.00    +0.000 C 
ATOM     21  C   UNL     1       2.660   5.227  17.736  0.00  0.00    +0.000 C 
ATOM     22  C   UNL     1       3.058   4.710  19.170  0.00  0.00    +0.000 C 
ATOM     23  C   UNL     1       4.213   5.773  19.101  0.00  0.00    +0.000 C 
BRANCH  20  24
ATOM     24  N   UNL     1       4.245   6.946  16.961  0.00  0.00    +0.000 NA
ATOM     25  H   UNL     1       4.775   7.800  17.124  0.00  0.00    +0.000 HD
ATOM     26  H   UNL     1       3.790   7.052  16.055  0.00  0.00    +0.000 HD
ENDBRANCH  20  24
BRANCH  22  27
ATOM     27  C   UNL     1       2.007   4.919  20.273  0.00  0.00    +0.000 C 
ATOM     28  C   UNL     1       0.766   4.071  20.384  0.00  0.00    +0.000 C 
ATOM     29  C   UNL     1       1.810   4.012  21.460  0.00  0.00    +0.000 C 
ENDBRANCH  22  27
BRANCH  22  30
ATOM     30  O   UNL     1       3.575   3.355  19.139  0.00  0.00    +0.000 OA
ATOM     31  H   UNL     1       4.345   3.410  18.557  0.00  0.00    +0.000 HD
ENDBRANCH  22  30
ENDBRANCH  14  20
ENDBRANCH   1  17
BRANCH   5  32
ATOM     32  C   UNL     1       1.950  13.270  19.711  0.00  0.00    +0.000 A 
ATOM     33  C   UNL     1       2.444  13.594  18.438  0.00  0.00    +0.000 A 
ATOM     34  C   UNL     1       3.679  14.229  18.281  0.00  0.00    +0.000 A 
ATOM     35  C   UNL     1       4.410  14.616  19.399  0.00  0.00    +0.000 A 
ATOM     36  C   UNL     1       3.923  14.337  20.671  0.00  0.00    +0.000 A 
ATOM     37  C   UNL     1       2.723  13.636  20.824  0.00  0.00    +0.000 A 
ENDBRANCH   5  32
TORSDOF 6
ENDMDL
