MODEL 1
REMARK VINA RESULT:      -9.2      0.000      0.000
REMARK  Name = 
REMARK  6 active torsions:
REMARK  status: ('A' for Active; 'I' for Inactive)
REMARK    1  A    between atoms: C_1  and  S_2
REMARK    2  A    between atoms: S_2  and  C_5
REMARK    3  A    between atoms: C_8  and  C_9
REMARK    4  A    between atoms: C_9  and  C_10
REMARK    5  A    between atoms: C_9  and  C_17
REMARK    6  A    between atoms: C_10  and  C_11
REMARK                            x       y       z     vdW  Elec       q    Type
REMARK                         _______ _______ _______ _____ _____    ______ ____
ROOT
ATOM      1  C   UNL     1       2.165   5.807  19.801  0.00  0.00    +0.000 C 
ENDROOT
BRANCH   1   2
ATOM      2  C   UNL     1       1.736   7.275  20.016  0.00  0.00    +0.000 C 
ATOM      3  O   UNL     1       2.199   8.189  19.329  0.00  0.00    +0.000 OA
ATOM      4  N   UNL     1       0.880   7.526  21.066  0.00  0.00    +0.000 N 
ATOM      5  C   UNL     1       0.317   8.791  21.275  0.00  0.00    +0.000 A 
ATOM      6  C   UNL     1      -0.080   9.627  20.226  0.00  0.00    +0.000 A 
ATOM      7  N   UNL     1      -0.547  10.884  20.419  0.00  0.00    +0.000 NA
ATOM      8  C   UNL     1      -0.570  11.286  21.706  0.00  0.00    +0.000 A 
ATOM      9  C   UNL     1      -0.216  10.446  22.749  0.00  0.00    +0.000 A 
ATOM     10  N   UNL     1       0.189   9.166  22.563  0.00  0.00    +0.000 NA
ATOM     11  H   UNL     1       0.897   6.928  21.880  0.00  0.00    +0.000 HD
ENDBRANCH   1   2
BRANCH   1  15
ATOM     12  C   UNL     1       5.790   5.234  17.428  0.00  0.00    +0.000 A 
ATOM     13  C   UNL     1       4.540   5.207  16.813  0.00  0.00    +0.000 A 
ATOM     14  C   UNL     1       3.380   5.399  17.564  0.00  0.00    +0.000 A 
ATOM     15  C   UNL     1       3.422   5.574  18.954  0.00  0.00    +0.000 A 
ATOM     16  C   UNL     1       4.697   5.595  19.559  0.00  0.00    +0.000 A 
ATOM     17  C   UNL     1       5.880   5.459  18.795  0.00  0.00    +0.000 A 
ATOM     18 CL   UNL     1       7.368   5.623  19.653  0.00  0.00    +0.000 Cl
BRANCH  12  20
ATOM     19  C   UNL     1       6.604   4.273  14.899  0.00  0.00    +0.000 C 
ATOM     20  S   UNL     1       7.210   5.025  16.379  0.00  0.00    +0.000 S 
ATOM     21  O   UNL     1       8.125   4.115  17.037  0.00  0.00    +0.000 OA
ATOM     22  O   UNL     1       7.661   6.360  15.999  0.00  0.00    +0.000 OA
ENDBRANCH  12  20
ENDBRANCH   1  15
BRANCH   1  23
ATOM     23  C   UNL     1       2.193   5.072  21.185  0.00  0.00    +0.000 C 
BRANCH  23  24
ATOM     24  C   UNL     1       1.652   3.617  21.212  0.00  0.00    +0.000 C 
ATOM     25  C   UNL     1       2.700   2.502  21.221  0.00  0.00    +0.000 C 
ATOM     26  C   UNL     1       3.013   2.178  19.772  0.00  0.00    +0.000 C 
ATOM     27  C   UNL     1       1.711   2.491  19.101  0.00  0.00    +0.000 C 
ATOM     28  O   UNL     1       1.432   2.134  17.963  0.00  0.00    +0.000 OA
ATOM     29  C   UNL     1       0.789   3.298  19.977  0.00  0.00    +0.000 C 
ENDBRANCH  23  24
ENDBRANCH   1  23
TORSDOF 5
ENDMDL
MODEL 2
REMARK VINA RESULT:      -9.0      4.094      7.356
REMARK  Name = 
REMARK  6 active torsions:
REMARK  status: ('A' for Active; 'I' for Inactive)
REMARK    1  A    between atoms: C_1  and  S_2
REMARK    2  A    between atoms: S_2  and  C_5
REMARK    3  A    between atoms: C_8  and  C_9
REMARK    4  A    between atoms: C_9  and  C_10
REMARK    5  A    between atoms: C_9  and  C_17
REMARK    6  A    between atoms: C_10  and  C_11
REMARK                            x       y       z     vdW  Elec       q    Type
REMARK                         _______ _______ _______ _____ _____    ______ ____
ROOT
ATOM      1  C   UNL     1       3.089   5.859  18.287  0.00  0.00    +0.000 C 
ENDROOT
BRANCH   1   2
ATOM      2  C   UNL     1       4.180   5.951  17.198  0.00  0.00    +0.000 C 
ATOM      3  O   UNL     1       4.744   7.017  16.940  0.00  0.00    +0.000 OA
ATOM      4  N   UNL     1       4.432   4.810  16.470  0.00  0.00    +0.000 N 
ATOM      5  C   UNL     1       5.487   4.734  15.553  0.00  0.00    +0.000 A 
ATOM      6  C   UNL     1       6.723   5.352  15.769  0.00  0.00    +0.000 A 
ATOM      7  N   UNL     1       7.720   5.353  14.850  0.00  0.00    +0.000 NA
ATOM      8  C   UNL     1       7.417   4.739  13.688  0.00  0.00    +0.000 A 
ATOM      9  C   UNL     1       6.208   4.091  13.489  0.00  0.00    +0.000 A 
ATOM     10  N   UNL     1       5.236   4.032  14.431  0.00  0.00    +0.000 NA
ATOM     11  H   UNL     1       3.693   4.135  16.324  0.00  0.00    +0.000 HD
ENDBRANCH   1   2
BRANCH   1  15
ATOM     12  C   UNL     1       1.189   9.566  19.610  0.00  0.00    +0.000 A 
ATOM     13  C   UNL     1       1.593   9.421  18.283  0.00  0.00    +0.000 A 
ATOM     14  C   UNL     1       2.192   8.236  17.854  0.00  0.00    +0.000 A 
ATOM     15  C   UNL     1       2.451   7.179  18.737  0.00  0.00    +0.000 A 
ATOM     16  C   UNL     1       2.037   7.346  20.076  0.00  0.00    +0.000 A 
ATOM     17  C   UNL     1       1.379   8.522  20.505  0.00  0.00    +0.000 A 
ATOM     18 CL   UNL     1       0.826   8.536  22.139  0.00  0.00    +0.000 Cl
BRANCH  12  20
ATOM     19  C   UNL     1       0.677  12.187  18.688  0.00  0.00    +0.000 C 
ATOM     20  S   UNL     1       0.396  11.095  20.049  0.00  0.00    +0.000 S 
ATOM     21  O   UNL     1       1.054  11.621  21.227  0.00  0.00    +0.000 OA
ATOM     22  O   UNL     1      -1.041  10.840  20.073  0.00  0.00    +0.000 OA
ENDBRANCH  12  20
ENDBRANCH   1  15
BRANCH   1  23
ATOM     23  C   UNL     1       2.046   4.763  17.877  0.00  0.00    +0.000 C 
BRANCH  23  24
ATOM     24  C   UNL     1       2.205   3.367  18.538  0.00  0.00    +0.000 C 
ATOM     25  C   UNL     1       0.916   2.681  18.995  0.00  0.00    +0.000 C 
ATOM     26  C   UNL     1       0.652   3.137  20.418  0.00  0.00    +0.000 C 
ATOM     27  C   UNL     1       2.042   3.370  20.926  0.00  0.00    +0.000 C 
ATOM     28  O   UNL     1       2.315   3.505  22.112  0.00  0.00    +0.000 OA
ATOM     29  C   UNL     1       3.060   3.427  19.818  0.00  0.00    +0.000 C 
ENDBRANCH  23  24
ENDBRANCH   1  23
TORSDOF 5
ENDMDL
MODEL 3
REMARK VINA RESULT:      -9.0      3.982      7.332
REMARK  Name = 
REMARK  6 active torsions:
REMARK  status: ('A' for Active; 'I' for Inactive)
REMARK    1  A    between atoms: C_1  and  S_2
REMARK    2  A    between atoms: S_2  and  C_5
REMARK    3  A    between atoms: C_8  and  C_9
REMARK    4  A    between atoms: C_9  and  C_10
REMARK    5  A    between atoms: C_9  and  C_17
REMARK    6  A    between atoms: C_10  and  C_11
REMARK                            x       y       z     vdW  Elec       q    Type
REMARK                         _______ _______ _______ _____ _____    ______ ____
ROOT
ATOM      1  C   UNL     1       2.985   5.318  18.442  0.00  0.00    +0.000 C 
ENDROOT
BRANCH   1   2
ATOM      2  C   UNL     1       4.070   5.599  17.378  0.00  0.00    +0.000 C 
ATOM      3  O   UNL     1       4.518   6.735  17.201  0.00  0.00    +0.000 OA
ATOM      4  N   UNL     1       4.448   4.543  16.580  0.00  0.00    +0.000 N 
ATOM      5  C   UNL     1       5.513   4.642  15.677  0.00  0.00    +0.000 A 
ATOM      6  C   UNL     1       6.675   5.372  15.953  0.00  0.00    +0.000 A 
ATOM      7  N   UNL     1       7.673   5.541  15.052  0.00  0.00    +0.000 NA
ATOM      8  C   UNL     1       7.447   4.978  13.847  0.00  0.00    +0.000 A 
ATOM      9  C   UNL     1       6.316   4.221  13.586  0.00  0.00    +0.000 A 
ATOM     10  N   UNL     1       5.348   3.996  14.506  0.00  0.00    +0.000 NA
ATOM     11  H   UNL     1       3.787   3.806  16.378  0.00  0.00    +0.000 HD
ENDBRANCH   1   2
BRANCH   1  15
ATOM     12  C   UNL     1       1.190   8.860  20.267  0.00  0.00    +0.000 A 
ATOM     13  C   UNL     1       1.311   7.680  21.000  0.00  0.00    +0.000 A 
ATOM     14  C   UNL     1       1.893   6.549  20.425  0.00  0.00    +0.000 A 
ATOM     15  C   UNL     1       2.325   6.540  19.092  0.00  0.00    +0.000 A 
ATOM     16  C   UNL     1       2.190   7.742  18.365  0.00  0.00    +0.000 A 
ATOM     17  C   UNL     1       1.655   8.909  18.960  0.00  0.00    +0.000 A 
ATOM     18 CL   UNL     1       1.661  10.335  17.989  0.00  0.00    +0.000 Cl
BRANCH  12  20
ATOM     19  C   UNL     1       0.057   9.685  22.720  0.00  0.00    +0.000 C 
ATOM     20  S   UNL     1       0.477  10.258  21.102  0.00  0.00    +0.000 S 
ATOM     21  O   UNL     1      -0.732  10.634  20.399  0.00  0.00    +0.000 OA
ATOM     22  O   UNL     1       1.545  11.237  21.285  0.00  0.00    +0.000 OA
ENDBRANCH  12  20
ENDBRANCH   1  15
BRANCH   1  23
ATOM     23  C   UNL     1       1.961   4.280  17.868  0.00  0.00    +0.000 C 
BRANCH  23  24
ATOM     24  C   UNL     1       1.963   2.868  18.513  0.00  0.00    +0.000 C 
ATOM     25  C   UNL     1       0.669   2.437  19.208  0.00  0.00    +0.000 C 
ATOM     26  C   UNL     1       0.761   2.909  20.647  0.00  0.00    +0.000 C 
ATOM     27  C   UNL     1       2.238   2.860  20.891  0.00  0.00    +0.000 C 
ATOM     28  O   UNL     1       2.742   2.917  22.006  0.00  0.00    +0.000 OA
ATOM     29  C   UNL     1       3.030   2.739  19.616  0.00  0.00    +0.000 C 
ENDBRANCH  23  24
ENDBRANCH   1  23
TORSDOF 5
ENDMDL
MODEL 4
REMARK VINA RESULT:      -8.9      4.026      7.261
REMARK  Name = 
REMARK  6 active torsions:
REMARK  status: ('A' for Active; 'I' for Inactive)
REMARK    1  A    between atoms: C_1  and  S_2
REMARK    2  A    between atoms: S_2  and  C_5
REMARK    3  A    between atoms: C_8  and  C_9
REMARK    4  A    between atoms: C_9  and  C_10
REMARK    5  A    between atoms: C_9  and  C_17
REMARK    6  A    between atoms: C_10  and  C_11
REMARK                            x       y       z     vdW  Elec       q    Type
REMARK                         _______ _______ _______ _____ _____    ______ ____
ROOT
ATOM      1  C   UNL     1       2.841   6.108  18.539  0.00  0.00    +0.000 C 
ENDROOT
BRANCH   1   2
ATOM      2  C   UNL     1       3.973   6.154  17.489  0.00  0.00    +0.000 C 
ATOM      3  O   UNL     1       4.541   7.210  17.199  0.00  0.00    +0.000 OA
ATOM      4  N   UNL     1       4.258   4.979  16.829  0.00  0.00    +0.000 N 
ATOM      5  C   UNL     1       5.349   4.865  15.958  0.00  0.00    +0.000 A 
ATOM      6  C   UNL     1       6.572   5.502  16.189  0.00  0.00    +0.000 A 
ATOM      7  N   UNL     1       7.603   5.465  15.310  0.00  0.00    +0.000 NA
ATOM      8  C   UNL     1       7.348   4.791  14.170  0.00  0.00    +0.000 A 
ATOM      9  C   UNL     1       6.151   4.125  13.957  0.00  0.00    +0.000 A 
ATOM     10  N   UNL     1       5.144   4.107  14.864  0.00  0.00    +0.000 NA
ATOM     11  H   UNL     1       3.529   4.293  16.689  0.00  0.00    +0.000 HD
ENDBRANCH   1   2
BRANCH   1  15
ATOM     12  C   UNL     1       1.036   9.890  19.781  0.00  0.00    +0.000 A 
ATOM     13  C   UNL     1       1.404   9.694  18.451  0.00  0.00    +0.000 A 
ATOM     14  C   UNL     1       1.972   8.485  18.047  0.00  0.00    +0.000 A 
ATOM     15  C   UNL     1       2.237   7.454  18.959  0.00  0.00    +0.000 A 
ATOM     16  C   UNL     1       1.861   7.673  20.302  0.00  0.00    +0.000 A 
ATOM     17  C   UNL     1       1.232   8.874  20.706  0.00  0.00    +0.000 A 
ATOM     18 CL   UNL     1       0.722   8.953  22.352  0.00  0.00    +0.000 Cl
BRANCH  12  20
ATOM     19  C   UNL     1       0.347  12.411  18.708  0.00  0.00    +0.000 C 
ATOM     20  S   UNL     1       0.280  11.447  20.187  0.00  0.00    +0.000 S 
ATOM     21  O   UNL     1       1.083  12.084  21.210  0.00  0.00    +0.000 OA
ATOM     22  O   UNL     1      -1.134  11.183  20.434  0.00  0.00    +0.000 OA
ENDBRANCH  12  20
ENDBRANCH   1  15
BRANCH   1  23
ATOM     23  C   UNL     1       1.774   5.049  18.098  0.00  0.00    +0.000 C 
BRANCH  23  24
ATOM     24  C   UNL     1       1.542   3.852  19.059  0.00  0.00    +0.000 C 
ATOM     25  C   UNL     1       2.453   3.780  20.286  0.00  0.00    +0.000 C 
ATOM     26  C   UNL     1       3.685   2.993  19.877  0.00  0.00    +0.000 C 
ATOM     27  C   UNL     1       3.127   2.072  18.836  0.00  0.00    +0.000 C 
ATOM     28  O   UNL     1       3.720   1.086  18.416  0.00  0.00    +0.000 OA
ATOM     29  C   UNL     1       1.763   2.497  18.360  0.00  0.00    +0.000 C 
ENDBRANCH  23  24
ENDBRANCH   1  23
TORSDOF 5
ENDMDL
MODEL 5
REMARK VINA RESULT:      -8.7      1.115      1.372
REMARK  Name = 
REMARK  6 active torsions:
REMARK  status: ('A' for Active; 'I' for Inactive)
REMARK    1  A    between atoms: C_1  and  S_2
REMARK    2  A    between atoms: S_2  and  C_5
REMARK    3  A    between atoms: C_8  and  C_9
REMARK    4  A    between atoms: C_9  and  C_10
REMARK    5  A    between atoms: C_9  and  C_17
REMARK    6  A    between atoms: C_10  and  C_11
REMARK                            x       y       z     vdW  Elec       q    Type
REMARK                         _______ _______ _______ _____ _____    ______ ____
ROOT
ATOM      1  C   UNL     1       2.039   6.060  19.729  0.00  0.00    +0.000 C 
ENDROOT
BRANCH   1   2
ATOM      2  C   UNL     1       1.619   7.497  20.110  0.00  0.00    +0.000 C 
ATOM      3  O   UNL     1       2.165   8.482  19.606  0.00  0.00    +0.000 OA
ATOM      4  N   UNL     1       0.672   7.628  21.101  0.00  0.00    +0.000 N 
ATOM      5  C   UNL     1       0.117   8.869  21.435  0.00  0.00    +0.000 A 
ATOM      6  C   UNL     1      -0.161   9.855  20.484  0.00  0.00    +0.000 A 
ATOM      7  N   UNL     1      -0.620  11.088  20.809  0.00  0.00    +0.000 NA
ATOM      8  C   UNL     1      -0.758  11.308  22.133  0.00  0.00    +0.000 A 
ATOM      9  C   UNL     1      -0.522  10.318  23.074  0.00  0.00    +0.000 A 
ATOM     10  N   UNL     1      -0.127   9.065  22.746  0.00  0.00    +0.000 NA
ATOM     11  H   UNL     1       0.599   6.922  21.821  0.00  0.00    +0.000 HD
ENDBRANCH   1   2
BRANCH   1  15
ATOM     12  C   UNL     1       5.764   5.589  17.494  0.00  0.00    +0.000 A 
ATOM     13  C   UNL     1       5.627   5.011  18.756  0.00  0.00    +0.000 A 
ATOM     14  C   UNL     1       4.437   5.151  19.469  0.00  0.00    +0.000 A 
ATOM     15  C   UNL     1       3.365   5.907  18.975  0.00  0.00    +0.000 A 
ATOM     16  C   UNL     1       3.524   6.487  17.698  0.00  0.00    +0.000 A 
ATOM     17  C   UNL     1       4.708   6.301  16.945  0.00  0.00    +0.000 A 
ATOM     18 CL   UNL     1       4.714   6.968  15.353  0.00  0.00    +0.000 Cl
BRANCH  12  20
ATOM     19  C   UNL     1       6.874   4.544  15.115  0.00  0.00    +0.000 C 
ATOM     20  S   UNL     1       7.303   5.316  16.645  0.00  0.00    +0.000 S 
ATOM     21  O   UNL     1       8.097   4.400  17.438  0.00  0.00    +0.000 OA
ATOM     22  O   UNL     1       7.839   6.629  16.300  0.00  0.00    +0.000 OA
ENDBRANCH  12  20
ENDBRANCH   1  15
BRANCH   1  23
ATOM     23  C   UNL     1       1.922   5.139  20.991  0.00  0.00    +0.000 C 
BRANCH  23  24
ATOM     24  C   UNL     1       1.193   3.782  20.800  0.00  0.00    +0.000 C 
ATOM     25  C   UNL     1       1.986   2.527  21.171  0.00  0.00    +0.000 C 
ATOM     26  C   UNL     1       2.747   2.101  19.930  0.00  0.00    +0.000 C 
ATOM     27  C   UNL     1       1.838   2.573  18.837  0.00  0.00    +0.000 C 
ATOM     28  O   UNL     1       1.938   2.213  17.671  0.00  0.00    +0.000 OA
ATOM     29  C   UNL     1       0.796   3.542  19.331  0.00  0.00    +0.000 C 
ENDBRANCH  23  24
ENDBRANCH   1  23
TORSDOF 5
ENDMDL
MODEL 6
REMARK VINA RESULT:      -8.4      3.942      7.277
REMARK  Name = 
REMARK  6 active torsions:
REMARK  status: ('A' for Active; 'I' for Inactive)
REMARK    1  A    between atoms: C_1  and  S_2
REMARK    2  A    between atoms: S_2  and  C_5
REMARK    3  A    between atoms: C_8  and  C_9
REMARK    4  A    between atoms: C_9  and  C_10
REMARK    5  A    between atoms: C_9  and  C_17
REMARK    6  A    between atoms: C_10  and  C_11
REMARK                            x       y       z     vdW  Elec       q    Type
REMARK                         _______ _______ _______ _____ _____    ______ ____
ROOT
ATOM      1  C   UNL     1       2.739   5.639  18.692  0.00  0.00    +0.000 C 
ENDROOT
BRANCH   1   2
ATOM      2  C   UNL     1       3.881   5.834  17.671  0.00  0.00    +0.000 C 
ATOM      3  O   UNL     1       4.395   6.939  17.482  0.00  0.00    +0.000 OA
ATOM      4  N   UNL     1       4.239   4.737  16.919  0.00  0.00    +0.000 N 
ATOM      5  C   UNL     1       5.346   4.755  16.063  0.00  0.00    +0.000 A 
ATOM      6  C   UNL     1       6.530   5.433  16.369  0.00  0.00    +0.000 A 
ATOM      7  N   UNL     1       7.573   5.525  15.509  0.00  0.00    +0.000 NA
ATOM      8  C   UNL     1       7.371   4.938  14.312  0.00  0.00    +0.000 A 
ATOM      9  C   UNL     1       6.215   4.232  14.021  0.00  0.00    +0.000 A 
ATOM     10  N   UNL     1       5.198   4.083  14.904  0.00  0.00    +0.000 NA
ATOM     11  H   UNL     1       3.550   4.028  16.709  0.00  0.00    +0.000 HD
ENDBRANCH   1   2
BRANCH   1  15
ATOM     12  C   UNL     1       1.146   9.316  20.437  0.00  0.00    +0.000 A 
ATOM     13  C   UNL     1       1.256   8.163  21.214  0.00  0.00    +0.000 A 
ATOM     14  C   UNL     1       1.773   6.989  20.664  0.00  0.00    +0.000 A 
ATOM     15  C   UNL     1       2.150   6.910  19.317  0.00  0.00    +0.000 A 
ATOM     16  C   UNL     1       2.028   8.087  18.546  0.00  0.00    +0.000 A 
ATOM     17  C   UNL     1       1.558   9.295  19.112  0.00  0.00    +0.000 A 
ATOM     18 CL   UNL     1       1.575  10.679  18.082  0.00  0.00    +0.000 Cl
BRANCH  12  20
ATOM     19  C   UNL     1      -0.979  11.177  20.395  0.00  0.00    +0.000 C 
ATOM     20  S   UNL     1       0.518  10.772  21.241  0.00  0.00    +0.000 S 
ATOM     21  O   UNL     1       1.478  11.840  21.051  0.00  0.00    +0.000 OA
ATOM     22  O   UNL     1       0.126  10.380  22.591  0.00  0.00    +0.000 OA
ENDBRANCH  12  20
ENDBRANCH   1  15
BRANCH   1  23
ATOM     23  C   UNL     1       1.661   4.681  18.080  0.00  0.00    +0.000 C 
BRANCH  23  24
ATOM     24  C   UNL     1       1.402   3.350  18.837  0.00  0.00    +0.000 C 
ATOM     25  C   UNL     1       1.014   3.472  20.312  0.00  0.00    +0.000 C 
ATOM     26  C   UNL     1       2.305   3.478  21.110  0.00  0.00    +0.000 C 
ATOM     27  C   UNL     1       3.199   2.640  20.249  0.00  0.00    +0.000 C 
ATOM     28  O   UNL     1       4.263   2.171  20.633  0.00  0.00    +0.000 OA
ATOM     29  C   UNL     1       2.649   2.446  18.861  0.00  0.00    +0.000 C 
ENDBRANCH  23  24
ENDBRANCH   1  23
TORSDOF 5
ENDMDL
MODEL 7
REMARK VINA RESULT:      -8.4      4.011      7.290
REMARK  Name = 
REMARK  6 active torsions:
REMARK  status: ('A' for Active; 'I' for Inactive)
REMARK    1  A    between atoms: C_1  and  S_2
REMARK    2  A    between atoms: S_2  and  C_5
REMARK    3  A    between atoms: C_8  and  C_9
REMARK    4  A    between atoms: C_9  and  C_10
REMARK    5  A    between atoms: C_9  and  C_17
REMARK    6  A    between atoms: C_10  and  C_11
REMARK                            x       y       z     vdW  Elec       q    Type
REMARK                         _______ _______ _______ _____ _____    ______ ____
ROOT
ATOM      1  C   UNL     1       2.755   5.890  18.579  0.00  0.00    +0.000 C 
ENDROOT
BRANCH   1   2
ATOM      2  C   UNL     1       4.031   5.876  17.708  0.00  0.00    +0.000 C 
ATOM      3  O   UNL     1       4.902   6.740  17.827  0.00  0.00    +0.000 OA
ATOM      4  N   UNL     1       4.108   4.906  16.733  0.00  0.00    +0.000 N 
ATOM      5  C   UNL     1       5.269   4.709  15.975  0.00  0.00    +0.000 A 
ATOM      6  C   UNL     1       6.554   4.843  16.510  0.00  0.00    +0.000 A 
ATOM      7  N   UNL     1       7.680   4.737  15.763  0.00  0.00    +0.000 NA
ATOM      8  C   UNL     1       7.468   4.524  14.449  0.00  0.00    +0.000 A 
ATOM      9  C   UNL     1       6.197   4.350  13.925  0.00  0.00    +0.000 A 
ATOM     10  N   UNL     1       5.073   4.391  14.681  0.00  0.00    +0.000 NA
ATOM     11  H   UNL     1       3.261   4.548  16.314  0.00  0.00    +0.000 HD
ENDBRANCH   1   2
BRANCH   1  15
ATOM     12  C   UNL     1       0.960   9.758  19.535  0.00  0.00    +0.000 A 
ATOM     13  C   UNL     1       1.277   9.441  18.215  0.00  0.00    +0.000 A 
ATOM     14  C   UNL     1       1.842   8.204  17.903  0.00  0.00    +0.000 A 
ATOM     15  C   UNL     1       2.153   7.265  18.896  0.00  0.00    +0.000 A 
ATOM     16  C   UNL     1       1.828   7.605  20.226  0.00  0.00    +0.000 A 
ATOM     17  C   UNL     1       1.203   8.834  20.542  0.00  0.00    +0.000 A 
ATOM     18 CL   UNL     1       0.756   9.063  22.193  0.00  0.00    +0.000 Cl
BRANCH  12  20
ATOM     19  C   UNL     1       1.381  12.270  20.757  0.00  0.00    +0.000 C 
ATOM     20  S   UNL     1       0.203  11.340  19.825  0.00  0.00    +0.000 S 
ATOM     21  O   UNL     1      -0.985  11.131  20.628  0.00  0.00    +0.000 OA
ATOM     22  O   UNL     1       0.095  12.006  18.530  0.00  0.00    +0.000 OA
ENDBRANCH  12  20
ENDBRANCH   1  15
BRANCH   1  23
ATOM     23  C   UNL     1       1.721   4.869  17.993  0.00  0.00    +0.000 C 
BRANCH  23  24
ATOM     24  C   UNL     1       1.313   3.685  18.910  0.00  0.00    +0.000 C 
ATOM     25  C   UNL     1       1.038   4.026  20.377  0.00  0.00    +0.000 C 
ATOM     26  C   UNL     1       2.362   3.918  21.111  0.00  0.00    +0.000 C 
ATOM     27  C   UNL     1       3.067   2.862  20.315  0.00  0.00    +0.000 C 
ATOM     28  O   UNL     1       4.071   2.278  20.705  0.00  0.00    +0.000 OA
ATOM     29  C   UNL     1       2.410   2.607  18.984  0.00  0.00    +0.000 C 
ENDBRANCH  23  24
ENDBRANCH   1  23
TORSDOF 5
ENDMDL
MODEL 8
REMARK VINA RESULT:      -8.4      3.889      7.250
REMARK  Name = 
REMARK  6 active torsions:
REMARK  status: ('A' for Active; 'I' for Inactive)
REMARK    1  A    between atoms: C_1  and  S_2
REMARK    2  A    between atoms: S_2  and  C_5
REMARK    3  A    between atoms: C_8  and  C_9
REMARK    4  A    between atoms: C_9  and  C_10
REMARK    5  A    between atoms: C_9  and  C_17
REMARK    6  A    between atoms: C_10  and  C_11
REMARK                            x       y       z     vdW  Elec       q    Type
REMARK                         _______ _______ _______ _____ _____    ______ ____
ROOT
ATOM      1  C   UNL     1       2.748   5.756  18.902  0.00  0.00    +0.000 C 
ENDROOT
BRANCH   1   2
ATOM      2  C   UNL     1       3.861   5.944  17.848  0.00  0.00    +0.000 C 
ATOM      3  O   UNL     1       4.360   7.051  17.628  0.00  0.00    +0.000 OA
ATOM      4  N   UNL     1       4.208   4.838  17.104  0.00  0.00    +0.000 N 
ATOM      5  C   UNL     1       5.292   4.852  16.218  0.00  0.00    +0.000 A 
ATOM      6  C   UNL     1       6.478   5.545  16.482  0.00  0.00    +0.000 A 
ATOM      7  N   UNL     1       7.497   5.632  15.593  0.00  0.00    +0.000 NA
ATOM      8  C   UNL     1       7.268   5.025  14.411  0.00  0.00    +0.000 A 
ATOM      9  C   UNL     1       6.111   4.304  14.162  0.00  0.00    +0.000 A 
ATOM     10  N   UNL     1       5.119   4.161  15.074  0.00  0.00    +0.000 NA
ATOM     11  H   UNL     1       3.520   4.120  16.923  0.00  0.00    +0.000 HD
ENDBRANCH   1   2
BRANCH   1  15
ATOM     12  C   UNL     1       0.938   9.444  20.393  0.00  0.00    +0.000 A 
ATOM     13  C   UNL     1       1.000   8.316  21.209  0.00  0.00    +0.000 A 
ATOM     14  C   UNL     1       1.586   7.139  20.741  0.00  0.00    +0.000 A 
ATOM     15  C   UNL     1       2.082   7.031  19.435  0.00  0.00    +0.000 A 
ATOM     16  C   UNL     1       2.006   8.182  18.623  0.00  0.00    +0.000 A 
ATOM     17  C   UNL     1       1.466   9.396  19.110  0.00  0.00    +0.000 A 
ATOM     18 CL   UNL     1       1.547  10.751  18.046  0.00  0.00    +0.000 Cl
BRANCH  12  20
ATOM     19  C   UNL     1      -0.377  10.431  22.690  0.00  0.00    +0.000 C 
ATOM     20  S   UNL     1       0.213  10.908  21.095  0.00  0.00    +0.000 S 
ATOM     21  O   UNL     1      -0.909  11.296  20.266  0.00  0.00    +0.000 OA
ATOM     22  O   UNL     1       1.301  11.852  21.332  0.00  0.00    +0.000 OA
ENDBRANCH  12  20
ENDBRANCH   1  15
BRANCH   1  23
ATOM     23  C   UNL     1       1.730   4.681  18.389  0.00  0.00    +0.000 C 
BRANCH  23  24
ATOM     24  C   UNL     1       1.572   3.401  19.253  0.00  0.00    +0.000 C 
ATOM     25  C   UNL     1       2.473   3.299  20.486  0.00  0.00    +0.000 C 
ATOM     26  C   UNL     1       3.762   2.633  20.038  0.00  0.00    +0.000 C 
ATOM     27  C   UNL     1       3.281   1.758  18.922  0.00  0.00    +0.000 C 
ATOM     28  O   UNL     1       3.946   0.850  18.439  0.00  0.00    +0.000 OA
ATOM     29  C   UNL     1       1.896   2.123  18.457  0.00  0.00    +0.000 C 
ENDBRANCH  23  24
ENDBRANCH   1  23
TORSDOF 5
ENDMDL
MODEL 9
REMARK VINA RESULT:      -8.3      3.836      6.864
REMARK  Name = 
REMARK  6 active torsions:
REMARK  status: ('A' for Active; 'I' for Inactive)
REMARK    1  A    between atoms: C_1  and  S_2
REMARK    2  A    between atoms: S_2  and  C_5
REMARK    3  A    between atoms: C_8  and  C_9
REMARK    4  A    between atoms: C_9  and  C_10
REMARK    5  A    between atoms: C_9  and  C_17
REMARK    6  A    between atoms: C_10  and  C_11
REMARK                            x       y       z     vdW  Elec       q    Type
REMARK                         _______ _______ _______ _____ _____    ______ ____
ROOT
ATOM      1  C   UNL     1       2.244   5.753  19.791  0.00  0.00    +0.000 C 
ENDROOT
BRANCH   1   2
ATOM      2  C   UNL     1       3.139   5.431  18.573  0.00  0.00    +0.000 C 
ATOM      3  O   UNL     1       2.667   4.975  17.529  0.00  0.00    +0.000 OA
ATOM      4  N   UNL     1       4.497   5.595  18.738  0.00  0.00    +0.000 N 
ATOM      5  C   UNL     1       5.393   5.466  17.670  0.00  0.00    +0.000 A 
ATOM      6  C   UNL     1       5.092   5.895  16.373  0.00  0.00    +0.000 A 
ATOM      7  N   UNL     1       5.920   5.698  15.319  0.00  0.00    +0.000 NA
ATOM      8  C   UNL     1       7.050   5.021  15.607  0.00  0.00    +0.000 A 
ATOM      9  C   UNL     1       7.368   4.631  16.899  0.00  0.00    +0.000 A 
ATOM     10  N   UNL     1       6.572   4.886  17.965  0.00  0.00    +0.000 NA
ATOM     11  H   UNL     1       4.908   5.479  19.654  0.00  0.00    +0.000 HD
ENDBRANCH   1   2
BRANCH   1  15
ATOM     12  C   UNL     1       0.963   9.894  20.345  0.00  0.00    +0.000 A 
ATOM     13  C   UNL     1       1.466   9.476  19.113  0.00  0.00    +0.000 A 
ATOM     14  C   UNL     1       1.868   8.153  18.929  0.00  0.00    +0.000 A 
ATOM     15  C   UNL     1       1.828   7.218  19.972  0.00  0.00    +0.000 A 
ATOM     16  C   UNL     1       1.319   7.661  21.211  0.00  0.00    +0.000 A 
ATOM     17  C   UNL     1       0.856   8.986  21.389  0.00  0.00    +0.000 A 
ATOM     18 CL   UNL     1       0.152   9.351  22.921  0.00  0.00    +0.000 Cl
BRANCH  12  20
ATOM     19  C   UNL     1       0.777  12.309  18.891  0.00  0.00    +0.000 C 
ATOM     20  S   UNL     1       0.436  11.588  20.467  0.00  0.00    +0.000 S 
ATOM     21  O   UNL     1       1.247  12.239  21.476  0.00  0.00    +0.000 OA
ATOM     22  O   UNL     1      -1.017  11.575  20.601  0.00  0.00    +0.000 OA
ENDBRANCH  12  20
ENDBRANCH   1  15
BRANCH   1  23
ATOM     23  C   UNL     1       1.042   4.748  19.823  0.00  0.00    +0.000 C 
BRANCH  23  24
ATOM     24  C   UNL     1       1.299   3.375  20.501  0.00  0.00    +0.000 C 
ATOM     25  C   UNL     1       2.579   3.257  21.332  0.00  0.00    +0.000 C 
ATOM     26  C   UNL     1       3.678   2.806  20.388  0.00  0.00    +0.000 C 
ATOM     27  C   UNL     1       2.909   1.999  19.387  0.00  0.00    +0.000 C 
ATOM     28  O   UNL     1       3.434   1.236  18.586  0.00  0.00    +0.000 OA
ATOM     29  C   UNL     1       1.424   2.237  19.472  0.00  0.00    +0.000 C 
ENDBRANCH  23  24
ENDBRANCH   1  23
TORSDOF 5
ENDMDL
