MODEL 1
REMARK VINA RESULT:      -8.1      0.000      0.000
REMARK  Name = 
REMARK  9 active torsions:
REMARK  status: ('A' for Active; 'I' for Inactive)
REMARK    1  A    between atoms: C_1  and  C_2
REMARK    2  A    between atoms: C_2  and  N_3
REMARK    3  A    between atoms: N_3  and  C_4
REMARK    4  A    between atoms: N_3  and  C_24
REMARK    5  A    between atoms: C_4  and  C_5
REMARK    6  A    between atoms: C_5  and  C_6
REMARK    7  A    between atoms: C_6  and  N_7
REMARK    8  A    between atoms: C_8  and  C_10
REMARK    9  A    between atoms: C_24  and  C_25
REMARK                            x       y       z     vdW  Elec       q    Type
REMARK                         _______ _______ _______ _____ _____    ______ ____
ROOT
ATOM      1  N   UNL     1       0.317  10.273  18.322  0.00  0.00    +0.000 N 
ATOM      2  C   UNL     1       1.681  10.142  18.213  0.00  0.00    +0.000 C 
ATOM      3  O   UNL     1       2.424  11.105  18.048  0.00  0.00    +0.000 OA
ATOM      4  H   UNL     1      -0.203   9.422  18.516  0.00  0.00    +0.000 HD
ENDROOT
BRANCH   2   5
ATOM      5  C   UNL     1       2.153   8.769  18.326  0.00  0.00    +0.000 A 
ATOM      6  C   UNL     1       3.017   8.086  17.496  0.00  0.00    +0.000 A 
ATOM      7  C   UNL     1       3.305   6.744  17.950  0.00  0.00    +0.000 A 
ATOM      8  C   UNL     1       4.134   5.730  17.458  0.00  0.00    +0.000 A 
ATOM      9 CL   UNL     1       5.037   6.021  16.046  0.00  0.00    +0.000 Cl
ATOM     10  N   UNL     1       4.279   4.532  18.048  0.00  0.00    +0.000 NA
ATOM     11  C   UNL     1       3.593   4.265  19.167  0.00  0.00    +0.000 A 
ATOM     12  C   UNL     1       3.732   3.035  19.794  0.00  0.00    +0.000 A 
ATOM     13  C   UNL     1       3.033   2.711  20.965  0.00  0.00    +0.000 A 
ATOM     14  C   UNL     1       2.165   3.633  21.540  0.00  0.00    +0.000 A 
ATOM     15  C   UNL     1       2.004   4.874  20.943  0.00  0.00    +0.000 A 
ATOM     16  C   UNL     1       2.717   5.189  19.761  0.00  0.00    +0.000 A 
ATOM     17  C   UNL     1       2.597   6.448  19.118  0.00  0.00    +0.000 A 
ATOM     18  S   UNL     1       1.631   7.778  19.609  0.00  0.00    +0.000 S 
ENDBRANCH   2   5
BRANCH   1  19
ATOM     19  C   UNL     1      -0.392  11.526  18.280  0.00  0.00    +0.000 C 
BRANCH  19  20
ATOM     20  C   UNL     1      -1.816  11.292  18.759  0.00  0.00    +0.000 C 
BRANCH  20  21
ATOM     21  C   UNL     1      -2.511  10.150  18.019  0.00  0.00    +0.000 C 
BRANCH  21  22
ATOM     22  N   UNL     1      -3.453  10.578  16.966  0.00  0.00    +0.000 NA
BRANCH  22  24
ATOM     23  C   UNL     1      -3.441  10.077  14.480  0.00  0.00    +0.000 C 
ATOM     24  C   UNL     1      -2.825  10.830  15.655  0.00  0.00    +0.000 C 
ENDBRANCH  22  24
BRANCH  22  25
ATOM     25  C   UNL     1      -4.233  11.753  17.414  0.00  0.00    +0.000 C 
BRANCH  25  26
ATOM     26  C   UNL     1      -5.246  11.469  18.499  0.00  0.00    +0.000 A 
ATOM     27  C   UNL     1      -6.119  10.379  18.403  0.00  0.00    +0.000 A 
ATOM     28  C   UNL     1      -7.064  10.145  19.403  0.00  0.00    +0.000 A 
ATOM     29  C   UNL     1      -7.139  10.995  20.507  0.00  0.00    +0.000 A 
ATOM     30  C   UNL     1      -6.272  12.077  20.616  0.00  0.00    +0.000 A 
ATOM     31  C   UNL     1      -5.329  12.315  19.617  0.00  0.00    +0.000 A 
ENDBRANCH  25  26
ENDBRANCH  22  25
ENDBRANCH  21  22
ENDBRANCH  20  21
ENDBRANCH  19  20
ENDBRANCH   1  19
TORSDOF 8
ENDMDL
MODEL 2
REMARK VINA RESULT:      -8.0      0.517      1.017
REMARK  Name = 
REMARK  9 active torsions:
REMARK  status: ('A' for Active; 'I' for Inactive)
REMARK    1  A    between atoms: C_1  and  C_2
REMARK    2  A    between atoms: C_2  and  N_3
REMARK    3  A    between atoms: N_3  and  C_4
REMARK    4  A    between atoms: N_3  and  C_24
REMARK    5  A    between atoms: C_4  and  C_5
REMARK    6  A    between atoms: C_5  and  C_6
REMARK    7  A    between atoms: C_6  and  N_7
REMARK    8  A    between atoms: C_8  and  C_10
REMARK    9  A    between atoms: C_24  and  C_25
REMARK                            x       y       z     vdW  Elec       q    Type
REMARK                         _______ _______ _______ _____ _____    ______ ____
ROOT
ATOM      1  N   UNL     1       0.483  10.051  18.593  0.00  0.00    +0.000 N 
ATOM      2  C   UNL     1       1.778   9.847  18.183  0.00  0.00    +0.000 C 
ATOM      3  O   UNL     1       2.480  10.753  17.744  0.00  0.00    +0.000 OA
ATOM      4  H   UNL     1       0.006   9.248  18.996  0.00  0.00    +0.000 HD
ENDROOT
BRANCH   2   5
ATOM      5  C   UNL     1       2.236   8.473  18.333  0.00  0.00    +0.000 A 
ATOM      6  C   UNL     1       3.081   7.754  17.514  0.00  0.00    +0.000 A 
ATOM      7  C   UNL     1       3.360   6.424  18.006  0.00  0.00    +0.000 A 
ATOM      8  C   UNL     1       4.171   5.385  17.536  0.00  0.00    +0.000 A 
ATOM      9 CL   UNL     1       5.058   5.621  16.103  0.00  0.00    +0.000 Cl
ATOM     10  N   UNL     1       4.310   4.204  18.161  0.00  0.00    +0.000 NA
ATOM     11  C   UNL     1       3.636   3.981  19.297  0.00  0.00    +0.000 A 
ATOM     12  C   UNL     1       3.770   2.769  19.960  0.00  0.00    +0.000 A 
ATOM     13  C   UNL     1       3.083   2.491  21.150  0.00  0.00    +0.000 A 
ATOM     14  C   UNL     1       2.234   3.441  21.707  0.00  0.00    +0.000 A 
ATOM     15  C   UNL     1       2.078   4.665  21.074  0.00  0.00    +0.000 A 
ATOM     16  C   UNL     1       2.779   4.933  19.873  0.00  0.00    +0.000 A 
ATOM     17  C   UNL     1       2.664   6.173  19.192  0.00  0.00    +0.000 A 
ATOM     18  S   UNL     1       1.720   7.529  19.654  0.00  0.00    +0.000 S 
ENDBRANCH   2   5
BRANCH   1  19
ATOM     19  C   UNL     1      -0.191  11.323  18.581  0.00  0.00    +0.000 C 
BRANCH  19  20
ATOM     20  C   UNL     1      -1.659  11.098  18.906  0.00  0.00    +0.000 C 
BRANCH  20  21
ATOM     21  C   UNL     1      -2.351  10.165  17.912  0.00  0.00    +0.000 C 
BRANCH  21  22
ATOM     22  N   UNL     1      -3.682  10.618  17.463  0.00  0.00    +0.000 NA
BRANCH  22  24
ATOM     23  C   UNL     1      -2.740  10.037  15.181  0.00  0.00    +0.000 C 
ATOM     24  C   UNL     1      -3.820  10.738  16.000  0.00  0.00    +0.000 C 
ENDBRANCH  22  24
BRANCH  22  25
ATOM     25  C   UNL     1      -4.054  11.883  18.135  0.00  0.00    +0.000 C 
BRANCH  25  26
ATOM     26  C   UNL     1      -5.191  11.766  19.126  0.00  0.00    +0.000 A 
ATOM     27  C   UNL     1      -5.195  12.515  20.308  0.00  0.00    +0.000 A 
ATOM     28  C   UNL     1      -6.241  12.377  21.222  0.00  0.00    +0.000 A 
ATOM     29  C   UNL     1      -7.289  11.494  20.959  0.00  0.00    +0.000 A 
ATOM     30  C   UNL     1      -7.297  10.751  19.783  0.00  0.00    +0.000 A 
ATOM     31  C   UNL     1      -6.253  10.885  18.869  0.00  0.00    +0.000 A 
ENDBRANCH  25  26
ENDBRANCH  22  25
ENDBRANCH  21  22
ENDBRANCH  20  21
ENDBRANCH  19  20
ENDBRANCH   1  19
TORSDOF 8
ENDMDL
MODEL 3
REMARK VINA RESULT:      -7.9      2.366      9.520
REMARK  Name = 
REMARK  9 active torsions:
REMARK  status: ('A' for Active; 'I' for Inactive)
REMARK    1  A    between atoms: C_1  and  C_2
REMARK    2  A    between atoms: C_2  and  N_3
REMARK    3  A    between atoms: N_3  and  C_4
REMARK    4  A    between atoms: N_3  and  C_24
REMARK    5  A    between atoms: C_4  and  C_5
REMARK    6  A    between atoms: C_5  and  C_6
REMARK    7  A    between atoms: C_6  and  N_7
REMARK    8  A    between atoms: C_8  and  C_10
REMARK    9  A    between atoms: C_24  and  C_25
REMARK                            x       y       z     vdW  Elec       q    Type
REMARK                         _______ _______ _______ _____ _____    ______ ____
ROOT
ATOM      1  N   UNL     1       1.471   9.275  17.887  0.00  0.00    +0.000 N 
ATOM      2  C   UNL     1       0.698   9.758  18.916  0.00  0.00    +0.000 C 
ATOM      3  O   UNL     1       1.093   9.787  20.078  0.00  0.00    +0.000 OA
ATOM      4  H   UNL     1       1.076   9.350  16.953  0.00  0.00    +0.000 HD
ENDROOT
BRANCH   2   5
ATOM      5  C   UNL     1      -0.610  10.238  18.496  0.00  0.00    +0.000 A 
ATOM      6  C   UNL     1      -1.248  10.050  17.288  0.00  0.00    +0.000 A 
ATOM      7  C   UNL     1      -2.572  10.631  17.243  0.00  0.00    +0.000 A 
ATOM      8  C   UNL     1      -3.569  10.653  16.262  0.00  0.00    +0.000 A 
ATOM      9 CL   UNL     1      -3.280   9.868  14.781  0.00  0.00    +0.000 Cl
ATOM     10  N   UNL     1      -4.764  11.246  16.425  0.00  0.00    +0.000 NA
ATOM     11  C   UNL     1      -5.035  11.867  17.580  0.00  0.00    +0.000 A 
ATOM     12  C   UNL     1      -6.265  12.481  17.770  0.00  0.00    +0.000 A 
ATOM     13  C   UNL     1      -6.592  13.145  18.961  0.00  0.00    +0.000 A 
ATOM     14  C   UNL     1      -5.674  13.204  20.003  0.00  0.00    +0.000 A 
ATOM     15  C   UNL     1      -4.436  12.598  19.852  0.00  0.00    +0.000 A 
ATOM     16  C   UNL     1      -4.119  11.930  18.644  0.00  0.00    +0.000 A 
ATOM     17  C   UNL     1      -2.872  11.284  18.442  0.00  0.00    +0.000 A 
ATOM     18  S   UNL     1      -1.568  11.172  19.551  0.00  0.00    +0.000 S 
ENDBRANCH   2   5
BRANCH   1  19
ATOM     19  C   UNL     1       2.814   8.777  18.034  0.00  0.00    +0.000 C 
BRANCH  19  20
ATOM     20  C   UNL     1       2.780   7.259  17.951  0.00  0.00    +0.000 C 
BRANCH  20  21
ATOM     21  C   UNL     1       4.049   6.670  17.337  0.00  0.00    +0.000 C 
BRANCH  21  22
ATOM     22  N   UNL     1       4.305   5.258  17.683  0.00  0.00    +0.000 NA
BRANCH  22  24
ATOM     23  C   UNL     1       6.767   4.680  17.505  0.00  0.00    +0.000 C 
ATOM     24  C   UNL     1       5.373   4.622  16.889  0.00  0.00    +0.000 C 
ENDBRANCH  22  24
BRANCH  22  25
ATOM     25  C   UNL     1       3.053   4.471  17.613  0.00  0.00    +0.000 C 
BRANCH  25  26
ATOM     26  C   UNL     1       2.595   3.884  18.929  0.00  0.00    +0.000 A 
ATOM     27  C   UNL     1       1.268   4.015  19.354  0.00  0.00    +0.000 A 
ATOM     28  C   UNL     1       0.869   3.489  20.583  0.00  0.00    +0.000 A 
ATOM     29  C   UNL     1       1.791   2.824  21.393  0.00  0.00    +0.000 A 
ATOM     30  C   UNL     1       3.111   2.683  20.977  0.00  0.00    +0.000 A 
ATOM     31  C   UNL     1       3.514   3.211  19.750  0.00  0.00    +0.000 A 
ENDBRANCH  25  26
ENDBRANCH  22  25
ENDBRANCH  21  22
ENDBRANCH  20  21
ENDBRANCH  19  20
ENDBRANCH   1  19
TORSDOF 8
ENDMDL
MODEL 4
REMARK VINA RESULT:      -7.9      2.599     10.152
REMARK  Name = 
REMARK  9 active torsions:
REMARK  status: ('A' for Active; 'I' for Inactive)
REMARK    1  A    between atoms: C_1  and  C_2
REMARK    2  A    between atoms: C_2  and  N_3
REMARK    3  A    between atoms: N_3  and  C_4
REMARK    4  A    between atoms: N_3  and  C_24
REMARK    5  A    between atoms: C_4  and  C_5
REMARK    6  A    between atoms: C_5  and  C_6
REMARK    7  A    between atoms: C_6  and  N_7
REMARK    8  A    between atoms: C_8  and  C_10
REMARK    9  A    between atoms: C_24  and  C_25
REMARK                            x       y       z     vdW  Elec       q    Type
REMARK                         _______ _______ _______ _____ _____    ______ ____
ROOT
ATOM      1  N   UNL     1       1.029   9.640  17.948  0.00  0.00    +0.000 N 
ATOM      2  C   UNL     1       0.603  10.725  18.675  0.00  0.00    +0.000 C 
ATOM      3  O   UNL     1       1.358  11.371  19.396  0.00  0.00    +0.000 OA
ATOM      4  H   UNL     1       0.340   9.210  17.335  0.00  0.00    +0.000 HD
ENDROOT
BRANCH   2   5
ATOM      5  C   UNL     1      -0.807  11.040  18.497  0.00  0.00    +0.000 A 
ATOM      6  C   UNL     1      -1.599  10.839  17.386  0.00  0.00    +0.000 A 
ATOM      7  C   UNL     1      -2.977  11.227  17.587  0.00  0.00    +0.000 A 
ATOM      8  C   UNL     1      -4.112  11.168  16.771  0.00  0.00    +0.000 A 
ATOM      9 CL   UNL     1      -3.962  10.528  15.202  0.00  0.00    +0.000 Cl
ATOM     10  N   UNL     1      -5.333  11.573  17.160  0.00  0.00    +0.000 NA
ATOM     11  C   UNL     1      -5.496  12.075  18.390  0.00  0.00    +0.000 A 
ATOM     12  C   UNL     1      -6.750  12.494  18.812  0.00  0.00    +0.000 A 
ATOM     13  C   UNL     1      -6.968  13.027  20.090  0.00  0.00    +0.000 A 
ATOM     14  C   UNL     1      -5.912  13.151  20.986  0.00  0.00    +0.000 A 
ATOM     15  C   UNL     1      -4.645  12.739  20.601  0.00  0.00    +0.000 A 
ATOM     16  C   UNL     1      -4.439  12.201  19.307  0.00  0.00    +0.000 A 
ATOM     17  C   UNL     1      -3.166  11.753  18.868  0.00  0.00    +0.000 A 
ATOM     18  S   UNL     1      -1.699  11.759  19.758  0.00  0.00    +0.000 S 
ENDBRANCH   2   5
BRANCH   1  19
ATOM     19  C   UNL     1       2.382   9.149  17.923  0.00  0.00    +0.000 C 
BRANCH  19  20
ATOM     20  C   UNL     1       2.346   7.628  17.917  0.00  0.00    +0.000 C 
BRANCH  20  21
ATOM     21  C   UNL     1       2.494   7.026  19.314  0.00  0.00    +0.000 C 
BRANCH  21  22
ATOM     22  N   UNL     1       2.893   5.605  19.335  0.00  0.00    +0.000 NA
BRANCH  22  24
ATOM     23  C   UNL     1       1.104   3.864  19.780  0.00  0.00    +0.000 C 
ATOM     24  C   UNL     1       2.181   4.790  20.336  0.00  0.00    +0.000 C 
ENDBRANCH  22  24
BRANCH  22  25
ATOM     25  C   UNL     1       4.360   5.480  19.496  0.00  0.00    +0.000 C 
BRANCH  25  26
ATOM     26  C   UNL     1       5.099   5.025  18.257  0.00  0.00    +0.000 A 
ATOM     27  C   UNL     1       6.498   5.022  18.214  0.00  0.00    +0.000 A 
ATOM     28  C   UNL     1       7.162   4.621  17.054  0.00  0.00    +0.000 A 
ATOM     29  C   UNL     1       6.435   4.217  15.934  0.00  0.00    +0.000 A 
ATOM     30  C   UNL     1       5.045   4.210  15.970  0.00  0.00    +0.000 A 
ATOM     31  C   UNL     1       4.377   4.612  17.126  0.00  0.00    +0.000 A 
ENDBRANCH  25  26
ENDBRANCH  22  25
ENDBRANCH  21  22
ENDBRANCH  20  21
ENDBRANCH  19  20
ENDBRANCH   1  19
TORSDOF 8
ENDMDL
MODEL 5
REMARK VINA RESULT:      -7.8      3.149      9.846
REMARK  Name = 
REMARK  9 active torsions:
REMARK  status: ('A' for Active; 'I' for Inactive)
REMARK    1  A    between atoms: C_1  and  C_2
REMARK    2  A    between atoms: C_2  and  N_3
REMARK    3  A    between atoms: N_3  and  C_4
REMARK    4  A    between atoms: N_3  and  C_24
REMARK    5  A    between atoms: C_4  and  C_5
REMARK    6  A    between atoms: C_5  and  C_6
REMARK    7  A    between atoms: C_6  and  N_7
REMARK    8  A    between atoms: C_8  and  C_10
REMARK    9  A    between atoms: C_24  and  C_25
REMARK                            x       y       z     vdW  Elec       q    Type
REMARK                         _______ _______ _______ _____ _____    ______ ____
ROOT
ATOM      1  N   UNL     1       2.026   7.881  19.268  0.00  0.00    +0.000 N 
ATOM      2  C   UNL     1       1.743   8.914  18.407  0.00  0.00    +0.000 C 
ATOM      3  O   UNL     1       2.336   9.064  17.342  0.00  0.00    +0.000 OA
ATOM      4  H   UNL     1       1.439   7.810  20.095  0.00  0.00    +0.000 HD
ENDROOT
BRANCH   2   5
ATOM      5  C   UNL     1       0.676   9.790  18.866  0.00  0.00    +0.000 A 
ATOM      6  C   UNL     1      -0.455  10.196  18.189  0.00  0.00    +0.000 A 
ATOM      7  C   UNL     1      -1.328  11.032  18.982  0.00  0.00    +0.000 A 
ATOM      8  C   UNL     1      -2.569  11.625  18.726  0.00  0.00    +0.000 A 
ATOM      9 CL   UNL     1      -3.297  11.383  17.208  0.00  0.00    +0.000 Cl
ATOM     10  N   UNL     1      -3.240  12.369  19.622  0.00  0.00    +0.000 NA
ATOM     11  C   UNL     1      -2.706  12.577  20.832  0.00  0.00    +0.000 A 
ATOM     12  C   UNL     1      -3.386  13.339  21.773  0.00  0.00    +0.000 A 
ATOM     13  C   UNL     1      -2.865  13.584  23.051  0.00  0.00    +0.000 A 
ATOM     14  C   UNL     1      -1.630  13.060  23.417  0.00  0.00    +0.000 A 
ATOM     15  C   UNL     1      -0.924  12.290  22.504  0.00  0.00    +0.000 A 
ATOM     16  C   UNL     1      -1.463  12.049  21.216  0.00  0.00    +0.000 A 
ATOM     17  C   UNL     1      -0.786  11.259  20.250  0.00  0.00    +0.000 A 
ATOM     18  S   UNL     1       0.726  10.469  20.428  0.00  0.00    +0.000 S 
ENDBRANCH   2   5
BRANCH   1  19
ATOM     19  C   UNL     1       3.012   6.860  19.028  0.00  0.00    +0.000 C 
BRANCH  19  20
ATOM     20  C   UNL     1       2.396   5.506  19.348  0.00  0.00    +0.000 C 
BRANCH  20  21
ATOM     21  C   UNL     1       1.994   4.726  18.097  0.00  0.00    +0.000 C 
BRANCH  21  22
ATOM     22  N   UNL     1       2.755   3.481  17.875  0.00  0.00    +0.000 NA
BRANCH  22  24
ATOM     23  C   UNL     1       0.646   2.429  18.812  0.00  0.00    +0.000 C 
ATOM     24  C   UNL     1       2.113   2.271  18.424  0.00  0.00    +0.000 C 
ENDBRANCH  22  24
BRANCH  22  25
ATOM     25  C   UNL     1       4.139   3.620  18.381  0.00  0.00    +0.000 C 
BRANCH  25  26
ATOM     26  C   UNL     1       5.141   4.116  17.362  0.00  0.00    +0.000 A 
ATOM     27  C   UNL     1       4.910   3.963  15.990  0.00  0.00    +0.000 A 
ATOM     28  C   UNL     1       5.857   4.404  15.065  0.00  0.00    +0.000 A 
ATOM     29  C   UNL     1       7.037   5.006  15.504  0.00  0.00    +0.000 A 
ATOM     30  C   UNL     1       7.273   5.169  16.865  0.00  0.00    +0.000 A 
ATOM     31  C   UNL     1       6.330   4.726  17.792  0.00  0.00    +0.000 A 
ENDBRANCH  25  26
ENDBRANCH  22  25
ENDBRANCH  21  22
ENDBRANCH  20  21
ENDBRANCH  19  20
ENDBRANCH   1  19
TORSDOF 8
ENDMDL
MODEL 6
REMARK VINA RESULT:      -7.8      2.638      9.542
REMARK  Name = 
REMARK  9 active torsions:
REMARK  status: ('A' for Active; 'I' for Inactive)
REMARK    1  A    between atoms: C_1  and  C_2
REMARK    2  A    between atoms: C_2  and  N_3
REMARK    3  A    between atoms: N_3  and  C_4
REMARK    4  A    between atoms: N_3  and  C_24
REMARK    5  A    between atoms: C_4  and  C_5
REMARK    6  A    between atoms: C_5  and  C_6
REMARK    7  A    between atoms: C_6  and  N_7
REMARK    8  A    between atoms: C_8  and  C_10
REMARK    9  A    between atoms: C_24  and  C_25
REMARK                            x       y       z     vdW  Elec       q    Type
REMARK                         _______ _______ _______ _____ _____    ______ ____
ROOT
ATOM      1  N   UNL     1       0.951  10.043  17.861  0.00  0.00    +0.000 N 
ATOM      2  C   UNL     1       0.153  10.254  18.960  0.00  0.00    +0.000 C 
ATOM      3  O   UNL     1       0.546  10.053  20.106  0.00  0.00    +0.000 OA
ATOM      4  H   UNL     1       0.553  10.296  16.961  0.00  0.00    +0.000 HD
ENDROOT
BRANCH   2   5
ATOM      5  C   UNL     1      -1.178  10.747  18.639  0.00  0.00    +0.000 A 
ATOM      6  C   UNL     1      -1.897  10.583  17.474  0.00  0.00    +0.000 A 
ATOM      7  C   UNL     1      -3.218  11.170  17.530  0.00  0.00    +0.000 A 
ATOM      8  C   UNL     1      -4.279  11.213  16.620  0.00  0.00    +0.000 A 
ATOM      9 CL   UNL     1      -4.097  10.453  15.109  0.00  0.00    +0.000 Cl
ATOM     10  N   UNL     1      -5.457  11.809  16.874  0.00  0.00    +0.000 NA
ATOM     11  C   UNL     1      -5.645  12.411  18.055  0.00  0.00    +0.000 A 
ATOM     12  C   UNL     1      -6.856  13.028  18.337  0.00  0.00    +0.000 A 
ATOM     13  C   UNL     1      -7.097  13.672  19.559  0.00  0.00    +0.000 A 
ATOM     14  C   UNL     1      -6.110  13.710  20.538  0.00  0.00    +0.000 A 
ATOM     15  C   UNL     1      -4.889  13.101  20.291  0.00  0.00    +0.000 A 
ATOM     16  C   UNL     1      -4.659  12.452  19.054  0.00  0.00    +0.000 A 
ATOM     17  C   UNL     1      -3.432  11.804  18.757  0.00  0.00    +0.000 A 
ATOM     18  S   UNL     1      -2.056  11.667  19.772  0.00  0.00    +0.000 S 
ENDBRANCH   2   5
BRANCH   1  19
ATOM     19  C   UNL     1       2.317   9.593  17.913  0.00  0.00    +0.000 C 
BRANCH  19  20
ATOM     20  C   UNL     1       2.331   8.074  17.832  0.00  0.00    +0.000 C 
BRANCH  20  21
ATOM     21  C   UNL     1       3.740   7.500  17.687  0.00  0.00    +0.000 C 
BRANCH  21  22
ATOM     22  N   UNL     1       3.830   6.036  17.854  0.00  0.00    +0.000 NA
BRANCH  22  24
ATOM     23  C   UNL     1       4.605   3.870  16.789  0.00  0.00    +0.000 C 
ATOM     24  C   UNL     1       4.777   5.378  16.935  0.00  0.00    +0.000 C 
ENDBRANCH  22  24
BRANCH  22  25
ATOM     25  C   UNL     1       2.488   5.419  17.762  0.00  0.00    +0.000 C 
BRANCH  25  26
ATOM     26  C   UNL     1       2.084   4.592  18.962  0.00  0.00    +0.000 A 
ATOM     27  C   UNL     1       2.519   4.930  20.249  0.00  0.00    +0.000 A 
ATOM     28  C   UNL     1       2.157   4.142  21.342  0.00  0.00    +0.000 A 
ATOM     29  C   UNL     1       1.354   3.015  21.157  0.00  0.00    +0.000 A 
ATOM     30  C   UNL     1       0.911   2.675  19.884  0.00  0.00    +0.000 A 
ATOM     31  C   UNL     1       1.274   3.459  18.789  0.00  0.00    +0.000 A 
ENDBRANCH  25  26
ENDBRANCH  22  25
ENDBRANCH  21  22
ENDBRANCH  20  21
ENDBRANCH  19  20
ENDBRANCH   1  19
TORSDOF 8
ENDMDL
MODEL 7
REMARK VINA RESULT:      -7.8      1.737      2.878
REMARK  Name = 
REMARK  9 active torsions:
REMARK  status: ('A' for Active; 'I' for Inactive)
REMARK    1  A    between atoms: C_1  and  C_2
REMARK    2  A    between atoms: C_2  and  N_3
REMARK    3  A    between atoms: N_3  and  C_4
REMARK    4  A    between atoms: N_3  and  C_24
REMARK    5  A    between atoms: C_4  and  C_5
REMARK    6  A    between atoms: C_5  and  C_6
REMARK    7  A    between atoms: C_6  and  N_7
REMARK    8  A    between atoms: C_8  and  C_10
REMARK    9  A    between atoms: C_24  and  C_25
REMARK                            x       y       z     vdW  Elec       q    Type
REMARK                         _______ _______ _______ _____ _____    ______ ____
ROOT
ATOM      1  N   UNL     1       0.119   9.972  18.803  0.00  0.00    +0.000 N 
ATOM      2  C   UNL     1       0.886   9.514  19.847  0.00  0.00    +0.000 C 
ATOM      3  O   UNL     1       0.868  10.040  20.957  0.00  0.00    +0.000 OA
ATOM      4  H   UNL     1       0.160   9.432  17.943  0.00  0.00    +0.000 HD
ENDROOT
BRANCH   2   5
ATOM      5  C   UNL     1       1.697   8.352  19.518  0.00  0.00    +0.000 A 
ATOM      6  C   UNL     1       1.814   7.162  20.206  0.00  0.00    +0.000 A 
ATOM      7  C   UNL     1       2.678   6.205  19.551  0.00  0.00    +0.000 A 
ATOM      8  C   UNL     1       3.049   4.892  19.858  0.00  0.00    +0.000 A 
ATOM      9 CL   UNL     1       2.417   4.167  21.261  0.00  0.00    +0.000 Cl
ATOM     10  N   UNL     1       3.870   4.150  19.095  0.00  0.00    +0.000 NA
ATOM     11  C   UNL     1       4.382   4.680  17.977  0.00  0.00    +0.000 A 
ATOM     12  C   UNL     1       5.228   3.927  17.173  0.00  0.00    +0.000 A 
ATOM     13  C   UNL     1       5.789   4.441  15.995  0.00  0.00    +0.000 A 
ATOM     14  C   UNL     1       5.506   5.742  15.595  0.00  0.00    +0.000 A 
ATOM     15  C   UNL     1       4.662   6.522  16.371  0.00  0.00    +0.000 A 
ATOM     16  C   UNL     1       4.101   5.990  17.558  0.00  0.00    +0.000 A 
ATOM     17  C   UNL     1       3.223   6.742  18.381  0.00  0.00    +0.000 A 
ATOM     18  S   UNL     1       2.679   8.349  18.126  0.00  0.00    +0.000 S 
ENDBRANCH   2   5
BRANCH   1  19
ATOM     19  C   UNL     1      -0.795  11.083  18.882  0.00  0.00    +0.000 C 
BRANCH  19  20
ATOM     20  C   UNL     1      -1.698  11.055  17.659  0.00  0.00    +0.000 C 
BRANCH  20  21
ATOM     21  C   UNL     1      -3.170  10.845  18.013  0.00  0.00    +0.000 C 
BRANCH  21  22
ATOM     22  N   UNL     1      -4.097  10.912  16.866  0.00  0.00    +0.000 NA
BRANCH  22  24
ATOM     23  C   UNL     1      -3.594  10.046  14.537  0.00  0.00    +0.000 C 
ATOM     24  C   UNL     1      -3.441  11.159  15.569  0.00  0.00    +0.000 C 
ENDBRANCH  22  24
BRANCH  22  25
ATOM     25  C   UNL     1      -5.163  11.908  17.118  0.00  0.00    +0.000 C 
BRANCH  25  26
ATOM     26  C   UNL     1      -5.900  11.733  18.427  0.00  0.00    +0.000 A 
ATOM     27  C   UNL     1      -5.849  12.719  19.420  0.00  0.00    +0.000 A 
ATOM     28  C   UNL     1      -6.516  12.530  20.631  0.00  0.00    +0.000 A 
ATOM     29  C   UNL     1      -7.241  11.359  20.856  0.00  0.00    +0.000 A 
ATOM     30  C   UNL     1      -7.303  10.377  19.873  0.00  0.00    +0.000 A 
ATOM     31  C   UNL     1      -6.636  10.561  18.663  0.00  0.00    +0.000 A 
ENDBRANCH  25  26
ENDBRANCH  22  25
ENDBRANCH  21  22
ENDBRANCH  20  21
ENDBRANCH  19  20
ENDBRANCH   1  19
TORSDOF 8
ENDMDL
MODEL 8
REMARK VINA RESULT:      -7.8      2.510      9.521
REMARK  Name = 
REMARK  9 active torsions:
REMARK  status: ('A' for Active; 'I' for Inactive)
REMARK    1  A    between atoms: C_1  and  C_2
REMARK    2  A    between atoms: C_2  and  N_3
REMARK    3  A    between atoms: N_3  and  C_4
REMARK    4  A    between atoms: N_3  and  C_24
REMARK    5  A    between atoms: C_4  and  C_5
REMARK    6  A    between atoms: C_5  and  C_6
REMARK    7  A    between atoms: C_6  and  N_7
REMARK    8  A    between atoms: C_8  and  C_10
REMARK    9  A    between atoms: C_24  and  C_25
REMARK                            x       y       z     vdW  Elec       q    Type
REMARK                         _______ _______ _______ _____ _____    ______ ____
ROOT
ATOM      1  N   UNL     1       0.985   9.521  17.809  0.00  0.00    +0.000 N 
ATOM      2  C   UNL     1       0.475  10.421  18.713  0.00  0.00    +0.000 C 
ATOM      3  O   UNL     1       1.137  10.862  19.649  0.00  0.00    +0.000 OA
ATOM      4  H   UNL     1       0.376   9.264  17.037  0.00  0.00    +0.000 HD
ENDROOT
BRANCH   2   5
ATOM      5  C   UNL     1      -0.903  10.808  18.448  0.00  0.00    +0.000 A 
ATOM      6  C   UNL     1      -1.647  10.610  17.304  0.00  0.00    +0.000 A 
ATOM      7  C   UNL     1      -3.009  11.082  17.417  0.00  0.00    +0.000 A 
ATOM      8  C   UNL     1      -4.101  11.056  16.543  0.00  0.00    +0.000 A 
ATOM      9 CL   UNL     1      -3.908  10.349  15.009  0.00  0.00    +0.000 Cl
ATOM     10  N   UNL     1      -5.314  11.545  16.851  0.00  0.00    +0.000 NA
ATOM     11  C   UNL     1      -5.511  12.102  18.052  0.00  0.00    +0.000 A 
ATOM     12  C   UNL     1      -6.759  12.609  18.390  0.00  0.00    +0.000 A 
ATOM     13  C   UNL     1      -7.011  13.202  19.635  0.00  0.00    +0.000 A 
ATOM     14  C   UNL     1      -5.997  13.301  20.581  0.00  0.00    +0.000 A 
ATOM     15  C   UNL     1      -4.738  12.803  20.280  0.00  0.00    +0.000 A 
ATOM     16  C   UNL     1      -4.498  12.204  19.020  0.00  0.00    +0.000 A 
ATOM     17  C   UNL     1      -3.232  11.668  18.666  0.00  0.00    +0.000 A 
ATOM     18  S   UNL     1      -1.815  11.625  19.633  0.00  0.00    +0.000 S 
ENDBRANCH   2   5
BRANCH   1  19
ATOM     19  C   UNL     1       2.332   9.011  17.831  0.00  0.00    +0.000 C 
BRANCH  19  20
ATOM     20  C   UNL     1       2.361   7.754  18.687  0.00  0.00    +0.000 C 
BRANCH  20  21
ATOM     21  C   UNL     1       2.952   6.551  17.954  0.00  0.00    +0.000 C 
BRANCH  21  22
ATOM     22  N   UNL     1       4.307   6.164  18.394  0.00  0.00    +0.000 NA
BRANCH  22  24
ATOM     23  C   UNL     1       5.070   6.565  16.010  0.00  0.00    +0.000 C 
ATOM     24  C   UNL     1       5.209   5.763  17.299  0.00  0.00    +0.000 C 
ENDBRANCH  22  24
BRANCH  22  25
ATOM     25  C   UNL     1       4.235   5.112  19.433  0.00  0.00    +0.000 C 
BRANCH  25  26
ATOM     26  C   UNL     1       3.055   4.175  19.309  0.00  0.00    +0.000 A 
ATOM     27  C   UNL     1       3.014   3.195  18.310  0.00  0.00    +0.000 A 
ATOM     28  C   UNL     1       1.906   2.355  18.195  0.00  0.00    +0.000 A 
ATOM     29  C   UNL     1       0.835   2.484  19.080  0.00  0.00    +0.000 A 
ATOM     30  C   UNL     1       0.868   3.450  20.080  0.00  0.00    +0.000 A 
ATOM     31  C   UNL     1       1.973   4.293  20.196  0.00  0.00    +0.000 A 
ENDBRANCH  25  26
ENDBRANCH  22  25
ENDBRANCH  21  22
ENDBRANCH  20  21
ENDBRANCH  19  20
ENDBRANCH   1  19
TORSDOF 8
ENDMDL
MODEL 9
REMARK VINA RESULT:      -7.8      1.984      3.090
REMARK  Name = 
REMARK  9 active torsions:
REMARK  status: ('A' for Active; 'I' for Inactive)
REMARK    1  A    between atoms: C_1  and  C_2
REMARK    2  A    between atoms: C_2  and  N_3
REMARK    3  A    between atoms: N_3  and  C_4
REMARK    4  A    between atoms: N_3  and  C_24
REMARK    5  A    between atoms: C_4  and  C_5
REMARK    6  A    between atoms: C_5  and  C_6
REMARK    7  A    between atoms: C_6  and  N_7
REMARK    8  A    between atoms: C_8  and  C_10
REMARK    9  A    between atoms: C_24  and  C_25
REMARK                            x       y       z     vdW  Elec       q    Type
REMARK                         _______ _______ _______ _____ _____    ______ ____
ROOT
ATOM      1  N   UNL     1       0.879   9.748  19.841  0.00  0.00    +0.000 N 
ATOM      2  C   UNL     1       0.913   8.602  20.598  0.00  0.00    +0.000 C 
ATOM      3  O   UNL     1       0.308   8.498  21.662  0.00  0.00    +0.000 OA
ATOM      4  H   UNL     1       1.364   9.712  18.948  0.00  0.00    +0.000 HD
ENDROOT
BRANCH   2   5
ATOM      5  C   UNL     1       1.711   7.533  20.017  0.00  0.00    +0.000 A 
ATOM      6  C   UNL     1       1.845   6.229  20.446  0.00  0.00    +0.000 A 
ATOM      7  C   UNL     1       2.686   5.427  19.586  0.00  0.00    +0.000 A 
ATOM      8  C   UNL     1       3.062   4.080  19.610  0.00  0.00    +0.000 A 
ATOM      9 CL   UNL     1       2.470   3.084  20.856  0.00  0.00    +0.000 Cl
ATOM     10  N   UNL     1       3.857   3.510  18.688  0.00  0.00    +0.000 NA
ATOM     11  C   UNL     1       4.337   4.256  17.686  0.00  0.00    +0.000 A 
ATOM     12  C   UNL     1       5.156   3.685  16.721  0.00  0.00    +0.000 A 
ATOM     13  C   UNL     1       5.683   4.427  15.655  0.00  0.00    +0.000 A 
ATOM     14  C   UNL     1       5.393   5.782  15.534  0.00  0.00    +0.000 A 
ATOM     15  C   UNL     1       4.574   6.386  16.477  0.00  0.00    +0.000 A 
ATOM     16  C   UNL     1       4.047   5.624  17.548  0.00  0.00    +0.000 A 
ATOM     17  C   UNL     1       3.196   6.190  18.533  0.00  0.00    +0.000 A 
ATOM     18  S   UNL     1       2.650   7.814  18.624  0.00  0.00    +0.000 S 
ENDBRANCH   2   5
BRANCH   1  19
ATOM     19  C   UNL     1       0.133  10.933  20.178  0.00  0.00    +0.000 C 
BRANCH  19  20
ATOM     20  C   UNL     1      -0.839  11.231  19.047  0.00  0.00    +0.000 C 
BRANCH  20  21
ATOM     21  C   UNL     1      -1.470   9.970  18.458  0.00  0.00    +0.000 C 
BRANCH  21  22
ATOM     22  N   UNL     1      -2.631  10.213  17.579  0.00  0.00    +0.000 NA
BRANCH  22  24
ATOM     23  C   UNL     1      -3.421  10.559  15.195  0.00  0.00    +0.000 C 
ATOM     24  C   UNL     1      -2.357  10.016  16.143  0.00  0.00    +0.000 C 
ENDBRANCH  22  24
BRANCH  22  25
ATOM     25  C   UNL     1      -3.200  11.556  17.830  0.00  0.00    +0.000 C 
BRANCH  25  26
ATOM     26  C   UNL     1      -4.516  11.560  18.575  0.00  0.00    +0.000 A 
ATOM     27  C   UNL     1      -4.693  12.345  19.721  0.00  0.00    +0.000 A 
ATOM     28  C   UNL     1      -5.905  12.318  20.410  0.00  0.00    +0.000 A 
ATOM     29  C   UNL     1      -6.950  11.511  19.957  0.00  0.00    +0.000 A 
ATOM     30  C   UNL     1      -6.787  10.733  18.816  0.00  0.00    +0.000 A 
ATOM     31  C   UNL     1      -5.575  10.756  18.127  0.00  0.00    +0.000 A 
ENDBRANCH  25  26
ENDBRANCH  22  25
ENDBRANCH  21  22
ENDBRANCH  20  21
ENDBRANCH  19  20
ENDBRANCH   1  19
TORSDOF 8
ENDMDL
