MODEL 1
REMARK VINA RESULT:      -8.3      0.000      0.000
REMARK  Name = 
REMARK  7 active torsions:
REMARK  status: ('A' for Active; 'I' for Inactive)
REMARK    1  A    between atoms: C_1  and  C_2
REMARK    2  A    between atoms: C_5  and  N_6
REMARK    3  A    between atoms: C_7  and  C_9
REMARK    4  A    between atoms: N_21  and  C_22
REMARK    5  A    between atoms: C_22  and  C_23
REMARK    6  A    between atoms: N_25  and  C_26
REMARK    7  A    between atoms: C_31  and  O_32
REMARK                            x       y       z     vdW  Elec       q    Type
REMARK                         _______ _______ _______ _____ _____    ______ ____
ROOT
ATOM      1  C   UNL     1      -0.089   9.615  23.258  0.00  0.00    +0.000 C 
ATOM      2  C   UNL     1       0.354   9.818  21.832  0.00  0.00    +0.000 C 
ATOM      3  C   UNL     1       0.981  10.954  21.468  0.00  0.00    +0.000 C 
ATOM      4  C   UNL     1       1.435  11.372  20.090  0.00  0.00    +0.000 C 
ATOM      5  C   UNL     1       0.869  10.597  18.879  0.00  0.00    +0.000 C 
ATOM      6  C   UNL     1       1.465   9.172  18.954  0.00  0.00    +0.000 C 
ATOM      7  O   UNL     1       2.390   8.863  18.194  0.00  0.00    +0.000 OA
ATOM      8  N   UNL     1       1.085   8.338  20.011  0.00  0.00    +0.000 N 
ATOM      9  C   UNL     1      -0.004   8.678  20.917  0.00  0.00    +0.000 C 
ENDROOT
BRANCH   5  10
ATOM     10  N   UNL     1      -0.588  10.669  18.747  0.00  0.00    +0.000 N 
ATOM     11  C   UNL     1      -1.219  11.832  18.355  0.00  0.00    +0.000 C 
ATOM     12  O   UNL     1      -0.622  12.863  18.067  0.00  0.00    +0.000 OA
ATOM     13  H   UNL     1      -1.083   9.800  18.601  0.00  0.00    +0.000 HD
BRANCH  11  14
ATOM     14  C   UNL     1      -2.705  11.795  18.278  0.00  0.00    +0.000 A 
ATOM     15  C   UNL     1      -3.373  11.355  17.129  0.00  0.00    +0.000 A 
ATOM     16  C   UNL     1      -4.769  11.279  17.121  0.00  0.00    +0.000 A 
ATOM     17  C   UNL     1      -5.517  11.634  18.256  0.00  0.00    +0.000 A 
ATOM     18  C   UNL     1      -6.917  11.546  18.267  0.00  0.00    +0.000 A 
ATOM     19  C   UNL     1      -7.644  11.891  19.407  0.00  0.00    +0.000 A 
ATOM     20  C   UNL     1      -6.982  12.334  20.551  0.00  0.00    +0.000 A 
ATOM     21  C   UNL     1      -5.589  12.428  20.556  0.00  0.00    +0.000 A 
ATOM     22  C   UNL     1      -4.843  12.076  19.420  0.00  0.00    +0.000 A 
ATOM     23  C   UNL     1      -3.441  12.147  19.417  0.00  0.00    +0.000 A 
ENDBRANCH  11  14
ENDBRANCH   5  10
BRANCH   8  24
ATOM     24  C   UNL     1       2.093   7.370  20.469  0.00  0.00    +0.000 C 
BRANCH  24  25
ATOM     25  C   UNL     1       2.509   6.163  19.596  0.00  0.00    +0.000 C 
ATOM     26  O   UNL     1       1.846   5.146  19.439  0.00  0.00    +0.000 OA
ATOM     27  N   UNL     1       3.784   6.292  19.070  0.00  0.00    +0.000 N 
ATOM     28  H   UNL     1       4.287   7.152  19.260  0.00  0.00    +0.000 HD
BRANCH  27  29
ATOM     29  C   UNL     1       4.520   5.248  18.347  0.00  0.00    +0.000 C 
ATOM     30  C   UNL     1       4.263   5.254  16.858  0.00  0.00    +0.000 C 
ATOM     31  C   UNL     1       5.514   5.852  16.292  0.00  0.00    +0.000 C 
ATOM     32  O   UNL     1       5.652   6.201  15.130  0.00  0.00    +0.000 OA
ATOM     33  O   UNL     1       6.525   5.835  17.204  0.00  0.00    +0.000 OA
ATOM     34  C   UNL     1       6.048   5.286  18.419  0.00  0.00    +0.000 C 
BRANCH  34  35
ATOM     35  O   UNL     1       6.547   3.957  18.532  0.00  0.00    +0.000 OA
ATOM     36  H   UNL     1       7.476   4.011  18.242  0.00  0.00    +0.000 HD
ENDBRANCH  34  35
ENDBRANCH  27  29
ENDBRANCH  24  25
ENDBRANCH   8  24
TORSDOF 6
ENDMDL
MODEL 2
REMARK VINA RESULT:      -8.1      3.500      8.925
REMARK  Name = 
REMARK  7 active torsions:
REMARK  status: ('A' for Active; 'I' for Inactive)
REMARK    1  A    between atoms: C_1  and  C_2
REMARK    2  A    between atoms: C_5  and  N_6
REMARK    3  A    between atoms: C_7  and  C_9
REMARK    4  A    between atoms: N_21  and  C_22
REMARK    5  A    between atoms: C_22  and  C_23
REMARK    6  A    between atoms: N_25  and  C_26
REMARK    7  A    between atoms: C_31  and  O_32
REMARK                            x       y       z     vdW  Elec       q    Type
REMARK                         _______ _______ _______ _____ _____    ______ ____
ROOT
ATOM      1  C   UNL     1      -0.437   9.811  23.145  0.00  0.00    +0.000 C 
ATOM      2  C   UNL     1      -0.147  10.106  21.696  0.00  0.00    +0.000 C 
ATOM      3  C   UNL     1      -1.129  10.041  20.777  0.00  0.00    +0.000 C 
ATOM      4  C   UNL     1      -1.027  10.230  19.282  0.00  0.00    +0.000 C 
ATOM      5  C   UNL     1       0.380  10.184  18.645  0.00  0.00    +0.000 C 
ATOM      6  C   UNL     1       1.126  11.444  19.141  0.00  0.00    +0.000 C 
ATOM      7  O   UNL     1       1.263  12.406  18.377  0.00  0.00    +0.000 OA
ATOM      8  N   UNL     1       1.447  11.545  20.499  0.00  0.00    +0.000 N 
ATOM      9  C   UNL     1       1.298  10.425  21.419  0.00  0.00    +0.000 C 
ENDROOT
BRANCH   5  10
ATOM     10  N   UNL     1       1.084   8.914  18.833  0.00  0.00    +0.000 N 
ATOM     11  C   UNL     1       2.124   8.537  18.008  0.00  0.00    +0.000 C 
ATOM     12  O   UNL     1       2.547   9.232  17.091  0.00  0.00    +0.000 OA
ATOM     13  H   UNL     1       1.046   8.495  19.753  0.00  0.00    +0.000 HD
BRANCH  11  14
ATOM     14  C   UNL     1       2.749   7.215  18.280  0.00  0.00    +0.000 A 
ATOM     15  C   UNL     1       3.930   6.813  17.645  0.00  0.00    +0.000 A 
ATOM     16  C   UNL     1       4.516   5.587  17.974  0.00  0.00    +0.000 A 
ATOM     17  C   UNL     1       3.938   4.748  18.942  0.00  0.00    +0.000 A 
ATOM     18  C   UNL     1       4.525   3.523  19.293  0.00  0.00    +0.000 A 
ATOM     19  C   UNL     1       3.944   2.708  20.266  0.00  0.00    +0.000 A 
ATOM     20  C   UNL     1       2.765   3.102  20.897  0.00  0.00    +0.000 A 
ATOM     21  C   UNL     1       2.169   4.318  20.557  0.00  0.00    +0.000 A 
ATOM     22  C   UNL     1       2.746   5.154  19.587  0.00  0.00    +0.000 A 
ATOM     23  C   UNL     1       2.167   6.388  19.250  0.00  0.00    +0.000 A 
ENDBRANCH  11  14
ENDBRANCH   5  10
BRANCH   8  24
ATOM     24  C   UNL     1       1.478  12.904  21.060  0.00  0.00    +0.000 C 
BRANCH  24  25
ATOM     25  C   UNL     1       2.704  13.828  20.871  0.00  0.00    +0.000 C 
ATOM     26  O   UNL     1       3.619  13.957  21.674  0.00  0.00    +0.000 OA
ATOM     27  N   UNL     1       2.626  14.598  19.722  0.00  0.00    +0.000 N 
ATOM     28  H   UNL     1       1.828  14.457  19.113  0.00  0.00    +0.000 HD
BRANCH  27  29
ATOM     29  C   UNL     1       3.545  15.683  19.357  0.00  0.00    +0.000 C 
ATOM     30  C   UNL     1       3.719  15.847  17.865  0.00  0.00    +0.000 C 
ATOM     31  C   UNL     1       2.917  17.072  17.555  0.00  0.00    +0.000 C 
ATOM     32  O   UNL     1       2.644  17.456  16.428  0.00  0.00    +0.000 OA
ATOM     33  O   UNL     1       2.640  17.780  18.684  0.00  0.00    +0.000 OA
ATOM     34  C   UNL     1       3.175  17.099  19.805  0.00  0.00    +0.000 C 
BRANCH  34  35
ATOM     35  O   UNL     1       4.353  17.784  20.220  0.00  0.00    +0.000 OA
ATOM     36  H   UNL     1       4.093  18.722  20.272  0.00  0.00    +0.000 HD
ENDBRANCH  34  35
ENDBRANCH  27  29
ENDBRANCH  24  25
ENDBRANCH   8  24
TORSDOF 6
ENDMDL
MODEL 3
REMARK VINA RESULT:      -8.1      3.756      8.664
REMARK  Name = 
REMARK  7 active torsions:
REMARK  status: ('A' for Active; 'I' for Inactive)
REMARK    1  A    between atoms: C_1  and  C_2
REMARK    2  A    between atoms: C_5  and  N_6
REMARK    3  A    between atoms: C_7  and  C_9
REMARK    4  A    between atoms: N_21  and  C_22
REMARK    5  A    between atoms: C_22  and  C_23
REMARK    6  A    between atoms: N_25  and  C_26
REMARK    7  A    between atoms: C_31  and  O_32
REMARK                            x       y       z     vdW  Elec       q    Type
REMARK                         _______ _______ _______ _____ _____    ______ ____
ROOT
ATOM      1  C   UNL     1      -1.167  11.144  23.062  0.00  0.00    +0.000 C 
ATOM      2  C   UNL     1      -0.678  11.320  21.648  0.00  0.00    +0.000 C 
ATOM      3  C   UNL     1      -1.547  11.309  20.619  0.00  0.00    +0.000 C 
ATOM      4  C   UNL     1      -1.250  11.399  19.141  0.00  0.00    +0.000 C 
ATOM      5  C   UNL     1       0.207  11.162  18.683  0.00  0.00    +0.000 C 
ATOM      6  C   UNL     1       1.030  12.360  19.211  0.00  0.00    +0.000 C 
ATOM      7  O   UNL     1       1.366  13.255  18.427  0.00  0.00    +0.000 OA
ATOM      8  N   UNL     1       1.200  12.504  20.592  0.00  0.00    +0.000 N 
ATOM      9  C   UNL     1       0.816  11.462  21.536  0.00  0.00    +0.000 C 
ENDROOT
BRANCH   5  10
ATOM     10  N   UNL     1       0.732   9.836  19.013  0.00  0.00    +0.000 N 
ATOM     11  C   UNL     1       1.792   9.287  18.319  0.00  0.00    +0.000 C 
ATOM     12  O   UNL     1       2.378   9.865  17.410  0.00  0.00    +0.000 OA
ATOM     13  H   UNL     1       0.560   9.488  19.947  0.00  0.00    +0.000 HD
BRANCH  11  14
ATOM     14  C   UNL     1       2.225   7.924  18.727  0.00  0.00    +0.000 A 
ATOM     15  C   UNL     1       1.859   7.371  19.960  0.00  0.00    +0.000 A 
ATOM     16  C   UNL     1       2.238   6.064  20.279  0.00  0.00    +0.000 A 
ATOM     17  C   UNL     1       2.981   5.288  19.373  0.00  0.00    +0.000 A 
ATOM     18  C   UNL     1       3.353   3.969  19.673  0.00  0.00    +0.000 A 
ATOM     19  C   UNL     1       4.081   3.208  18.757  0.00  0.00    +0.000 A 
ATOM     20  C   UNL     1       4.452   3.756  17.531  0.00  0.00    +0.000 A 
ATOM     21  C   UNL     1       4.089   5.067  17.218  0.00  0.00    +0.000 A 
ATOM     22  C   UNL     1       3.350   5.843  18.125  0.00  0.00    +0.000 A 
ATOM     23  C   UNL     1       2.962   7.157  17.815  0.00  0.00    +0.000 A 
ENDBRANCH  11  14
ENDBRANCH   5  10
BRANCH   8  24
ATOM     24  C   UNL     1       1.323  13.882  21.091  0.00  0.00    +0.000 C 
BRANCH  24  25
ATOM     25  C   UNL     1       2.702  14.508  21.406  0.00  0.00    +0.000 C 
ATOM     26  O   UNL     1       3.176  14.639  22.527  0.00  0.00    +0.000 OA
ATOM     27  N   UNL     1       3.332  15.015  20.282  0.00  0.00    +0.000 N 
ATOM     28  H   UNL     1       2.872  14.893  19.387  0.00  0.00    +0.000 HD
BRANCH  27  29
ATOM     29  C   UNL     1       4.565  15.813  20.281  0.00  0.00    +0.000 C 
ATOM     30  C   UNL     1       5.819  14.982  20.143  0.00  0.00    +0.000 C 
ATOM     31  C   UNL     1       6.237  15.218  18.725  0.00  0.00    +0.000 C 
ATOM     32  O   UNL     1       7.111  14.591  18.147  0.00  0.00    +0.000 OA
ATOM     33  O   UNL     1       5.613  16.309  18.202  0.00  0.00    +0.000 OA
ATOM     34  C   UNL     1       4.730  16.850  19.168  0.00  0.00    +0.000 C 
BRANCH  34  35
ATOM     35  O   UNL     1       5.328  18.026  19.705  0.00  0.00    +0.000 OA
ATOM     36  H   UNL     1       5.163  18.719  19.040  0.00  0.00    +0.000 HD
ENDBRANCH  34  35
ENDBRANCH  27  29
ENDBRANCH  24  25
ENDBRANCH   8  24
TORSDOF 6
ENDMDL
MODEL 4
REMARK VINA RESULT:      -8.1      3.721     10.009
REMARK  Name = 
REMARK  7 active torsions:
REMARK  status: ('A' for Active; 'I' for Inactive)
REMARK    1  A    between atoms: C_1  and  C_2
REMARK    2  A    between atoms: C_5  and  N_6
REMARK    3  A    between atoms: C_7  and  C_9
REMARK    4  A    between atoms: N_21  and  C_22
REMARK    5  A    between atoms: C_22  and  C_23
REMARK    6  A    between atoms: N_25  and  C_26
REMARK    7  A    between atoms: C_31  and  O_32
REMARK                            x       y       z     vdW  Elec       q    Type
REMARK                         _______ _______ _______ _____ _____    ______ ____
ROOT
ATOM      1  C   UNL     1      -2.732   9.869  17.868  0.00  0.00    +0.000 C 
ATOM      2  C   UNL     1      -1.420  10.258  18.498  0.00  0.00    +0.000 C 
ATOM      3  C   UNL     1      -0.392  10.672  17.733  0.00  0.00    +0.000 C 
ATOM      4  C   UNL     1       1.009  11.034  18.164  0.00  0.00    +0.000 C 
ATOM      5  C   UNL     1       1.463  10.604  19.577  0.00  0.00    +0.000 C 
ATOM      6  C   UNL     1       0.633  11.444  20.576  0.00  0.00    +0.000 C 
ATOM      7  O   UNL     1       1.164  12.402  21.147  0.00  0.00    +0.000 OA
ATOM      8  N   UNL     1      -0.747  11.225  20.656  0.00  0.00    +0.000 N 
ATOM      9  C   UNL     1      -1.395  10.100  19.995  0.00  0.00    +0.000 C 
ENDROOT
BRANCH   5  10
ATOM     10  N   UNL     1       1.448   9.157  19.798  0.00  0.00    +0.000 N 
ATOM     11  C   UNL     1       2.147   8.295  18.977  0.00  0.00    +0.000 C 
ATOM     12  O   UNL     1       2.840   8.668  18.037  0.00  0.00    +0.000 OA
ATOM     13  H   UNL     1       1.227   8.833  20.731  0.00  0.00    +0.000 HD
BRANCH  11  14
ATOM     14  C   UNL     1       2.040   6.843  19.284  0.00  0.00    +0.000 A 
ATOM     15  C   UNL     1       1.580   6.384  20.524  0.00  0.00    +0.000 A 
ATOM     16  C   UNL     1       1.438   5.011  20.750  0.00  0.00    +0.000 A 
ATOM     17  C   UNL     1       1.745   4.080  19.744  0.00  0.00    +0.000 A 
ATOM     18  C   UNL     1       1.591   2.701  19.951  0.00  0.00    +0.000 A 
ATOM     19  C   UNL     1       1.889   1.789  18.937  0.00  0.00    +0.000 A 
ATOM     20  C   UNL     1       2.352   2.243  17.703  0.00  0.00    +0.000 A 
ATOM     21  C   UNL     1       2.511   3.612  17.481  0.00  0.00    +0.000 A 
ATOM     22  C   UNL     1       2.207   4.542  18.489  0.00  0.00    +0.000 A 
ATOM     23  C   UNL     1       2.345   5.923  18.273  0.00  0.00    +0.000 A 
ENDBRANCH  11  14
ENDBRANCH   5  10
BRANCH   8  24
ATOM     24  C   UNL     1      -1.570  12.391  21.009  0.00  0.00    +0.000 C 
BRANCH  24  25
ATOM     25  C   UNL     1      -1.970  12.685  22.474  0.00  0.00    +0.000 C 
ATOM     26  O   UNL     1      -1.333  12.340  23.461  0.00  0.00    +0.000 OA
ATOM     27  N   UNL     1      -3.204  13.304  22.581  0.00  0.00    +0.000 N 
ATOM     28  H   UNL     1      -3.689  13.541  21.723  0.00  0.00    +0.000 HD
BRANCH  27  29
ATOM     29  C   UNL     1      -3.927  13.556  23.834  0.00  0.00    +0.000 C 
ATOM     30  C   UNL     1      -5.114  14.477  23.667  0.00  0.00    +0.000 C 
ATOM     31  C   UNL     1      -6.286  13.548  23.741  0.00  0.00    +0.000 C 
ATOM     32  O   UNL     1      -7.437  13.860  23.475  0.00  0.00    +0.000 OA
ATOM     33  O   UNL     1      -5.930  12.345  24.270  0.00  0.00    +0.000 OA
ATOM     34  C   UNL     1      -4.541  12.349  24.547  0.00  0.00    +0.000 C 
BRANCH  34  35
ATOM     35  O   UNL     1      -4.369  12.496  25.953  0.00  0.00    +0.000 OA
ATOM     36  H   UNL     1      -5.033  11.904  26.351  0.00  0.00    +0.000 HD
ENDBRANCH  34  35
ENDBRANCH  27  29
ENDBRANCH  24  25
ENDBRANCH   8  24
TORSDOF 6
ENDMDL
MODEL 5
REMARK VINA RESULT:      -8.0      1.691      2.283
REMARK  Name = 
REMARK  7 active torsions:
REMARK  status: ('A' for Active; 'I' for Inactive)
REMARK    1  A    between atoms: C_1  and  C_2
REMARK    2  A    between atoms: C_5  and  N_6
REMARK    3  A    between atoms: C_7  and  C_9
REMARK    4  A    between atoms: N_21  and  C_22
REMARK    5  A    between atoms: C_22  and  C_23
REMARK    6  A    between atoms: N_25  and  C_26
REMARK    7  A    between atoms: C_31  and  O_32
REMARK                            x       y       z     vdW  Elec       q    Type
REMARK                         _______ _______ _______ _____ _____    ______ ____
ROOT
ATOM      1  C   UNL     1       0.467   9.568  23.002  0.00  0.00    +0.000 C 
ATOM      2  C   UNL     1       0.704   9.880  21.547  0.00  0.00    +0.000 C 
ATOM      3  C   UNL     1       1.204  11.075  21.178  0.00  0.00    +0.000 C 
ATOM      4  C   UNL     1       1.445  11.599  19.783  0.00  0.00    +0.000 C 
ATOM      5  C   UNL     1       0.773  10.854  18.607  0.00  0.00    +0.000 C 
ATOM      6  C   UNL     1       1.464   9.473  18.515  0.00  0.00    +0.000 C 
ATOM      7  O   UNL     1       2.297   9.273  17.624  0.00  0.00    +0.000 OA
ATOM      8  N   UNL     1       1.280   8.557  19.557  0.00  0.00    +0.000 N 
ATOM      9  C   UNL     1       0.301   8.769  20.615  0.00  0.00    +0.000 C 
ENDROOT
BRANCH   5  10
ATOM     10  N   UNL     1      -0.689  10.829  18.668  0.00  0.00    +0.000 N 
ATOM     11  C   UNL     1      -1.445  11.921  18.292  0.00  0.00    +0.000 C 
ATOM     12  O   UNL     1      -0.962  12.963  17.863  0.00  0.00    +0.000 OA
ATOM     13  H   UNL     1      -1.139   9.923  18.645  0.00  0.00    +0.000 HD
BRANCH  11  14
ATOM     14  C   UNL     1      -2.921  11.790  18.418  0.00  0.00    +0.000 A 
ATOM     15  C   UNL     1      -3.697  11.190  17.418  0.00  0.00    +0.000 A 
ATOM     16  C   UNL     1      -5.073  11.034  17.604  0.00  0.00    +0.000 A 
ATOM     17  C   UNL     1      -5.695  11.465  18.788  0.00  0.00    +0.000 A 
ATOM     18  C   UNL     1      -7.073  11.298  18.994  0.00  0.00    +0.000 A 
ATOM     19  C   UNL     1      -7.673  11.722  20.181  0.00  0.00    +0.000 A 
ATOM     20  C   UNL     1      -6.905  12.324  21.176  0.00  0.00    +0.000 A 
ATOM     21  C   UNL     1      -5.532  12.498  20.986  0.00  0.00    +0.000 A 
ATOM     22  C   UNL     1      -4.913  12.069  19.801  0.00  0.00    +0.000 A 
ATOM     23  C   UNL     1      -3.531  12.220  19.604  0.00  0.00    +0.000 A 
ENDBRANCH  11  14
ENDBRANCH   5  10
BRANCH   8  24
ATOM     24  C   UNL     1       2.399   7.640  19.819  0.00  0.00    +0.000 C 
BRANCH  24  25
ATOM     25  C   UNL     1       2.188   6.110  19.900  0.00  0.00    +0.000 C 
ATOM     26  O   UNL     1       1.433   5.543  20.680  0.00  0.00    +0.000 OA
ATOM     27  N   UNL     1       3.028   5.405  19.054  0.00  0.00    +0.000 N 
ATOM     28  H   UNL     1       3.646   5.937  18.451  0.00  0.00    +0.000 HD
BRANCH  27  29
ATOM     29  C   UNL     1       3.183   3.945  19.026  0.00  0.00    +0.000 C 
ATOM     30  C   UNL     1       2.021   3.206  19.647  0.00  0.00    +0.000 C 
ATOM     31  C   UNL     1       1.280   2.666  18.463  0.00  0.00    +0.000 C 
ATOM     32  O   UNL     1       0.174   2.152  18.513  0.00  0.00    +0.000 OA
ATOM     33  O   UNL     1       2.051   2.700  17.341  0.00  0.00    +0.000 OA
ATOM     34  C   UNL     1       3.306   3.277  17.655  0.00  0.00    +0.000 C 
BRANCH  34  35
ATOM     35  O   UNL     1       4.270   2.231  17.725  0.00  0.00    +0.000 OA
ATOM     36  H   UNL     1       4.905   2.520  18.406  0.00  0.00    +0.000 HD
ENDBRANCH  34  35
ENDBRANCH  27  29
ENDBRANCH  24  25
ENDBRANCH   8  24
TORSDOF 6
ENDMDL
MODEL 6
REMARK VINA RESULT:      -8.0      2.055      3.585
REMARK  Name = 
REMARK  7 active torsions:
REMARK  status: ('A' for Active; 'I' for Inactive)
REMARK    1  A    between atoms: C_1  and  C_2
REMARK    2  A    between atoms: C_5  and  N_6
REMARK    3  A    between atoms: C_7  and  C_9
REMARK    4  A    between atoms: N_21  and  C_22
REMARK    5  A    between atoms: C_22  and  C_23
REMARK    6  A    between atoms: N_25  and  C_26
REMARK    7  A    between atoms: C_31  and  O_32
REMARK                            x       y       z     vdW  Elec       q    Type
REMARK                         _______ _______ _______ _____ _____    ______ ____
ROOT
ATOM      1  C   UNL     1       0.793  13.193  21.397  0.00  0.00    +0.000 C 
ATOM      2  C   UNL     1       0.088  12.534  20.240  0.00  0.00    +0.000 C 
ATOM      3  C   UNL     1      -0.123  13.212  19.095  0.00  0.00    +0.000 C 
ATOM      4  C   UNL     1      -0.864  12.757  17.860  0.00  0.00    +0.000 C 
ATOM      5  C   UNL     1      -1.767  11.509  17.981  0.00  0.00    +0.000 C 
ATOM      6  C   UNL     1      -0.822  10.305  18.205  0.00  0.00    +0.000 C 
ATOM      7  O   UNL     1      -0.589   9.537  17.265  0.00  0.00    +0.000 OA
ATOM      8  N   UNL     1      -0.096  10.232  19.399  0.00  0.00    +0.000 N 
ATOM      9  C   UNL     1      -0.355  11.124  20.522  0.00  0.00    +0.000 C 
ENDROOT
BRANCH   5  10
ATOM     10  N   UNL     1      -2.857  11.647  18.949  0.00  0.00    +0.000 N 
ATOM     11  C   UNL     1      -4.166  11.810  18.541  0.00  0.00    +0.000 C 
ATOM     12  O   UNL     1      -4.512  11.825  17.365  0.00  0.00    +0.000 OA
ATOM     13  H   UNL     1      -2.703  11.277  19.877  0.00  0.00    +0.000 HD
BRANCH  11  14
ATOM     14  C   UNL     1      -5.187  11.965  19.613  0.00  0.00    +0.000 A 
ATOM     15  C   UNL     1      -6.440  11.345  19.532  0.00  0.00    +0.000 A 
ATOM     16  C   UNL     1      -7.347  11.468  20.588  0.00  0.00    +0.000 A 
ATOM     17  C   UNL     1      -7.018  12.203  21.740  0.00  0.00    +0.000 A 
ATOM     18  C   UNL     1      -7.912  12.319  22.815  0.00  0.00    +0.000 A 
ATOM     19  C   UNL     1      -7.564  13.043  23.957  0.00  0.00    +0.000 A 
ATOM     20  C   UNL     1      -6.320  13.665  24.038  0.00  0.00    +0.000 A 
ATOM     21  C   UNL     1      -5.419  13.558  22.977  0.00  0.00    +0.000 A 
ATOM     22  C   UNL     1      -5.751  12.827  21.825  0.00  0.00    +0.000 A 
ATOM     23  C   UNL     1      -4.847  12.696  20.758  0.00  0.00    +0.000 A 
ENDBRANCH  11  14
ENDBRANCH   5  10
BRANCH   8  24
ATOM     24  C   UNL     1       1.217   9.575  19.321  0.00  0.00    +0.000 C 
BRANCH  24  25
ATOM     25  C   UNL     1       1.540   8.312  20.155  0.00  0.00    +0.000 C 
ATOM     26  O   UNL     1       1.418   8.221  21.370  0.00  0.00    +0.000 OA
ATOM     27  N   UNL     1       2.092   7.293  19.397  0.00  0.00    +0.000 N 
ATOM     28  H   UNL     1       2.186   7.445  18.399  0.00  0.00    +0.000 HD
BRANCH  27  29
ATOM     29  C   UNL     1       2.655   6.044  19.925  0.00  0.00    +0.000 C 
ATOM     30  C   UNL     1       1.609   5.093  20.459  0.00  0.00    +0.000 C 
ATOM     31  C   UNL     1       1.524   4.040  19.397  0.00  0.00    +0.000 C 
ATOM     32  O   UNL     1       0.668   3.171  19.349  0.00  0.00    +0.000 OA
ATOM     33  O   UNL     1       2.600   4.092  18.564  0.00  0.00    +0.000 OA
ATOM     34  C   UNL     1       3.442   5.162  18.954  0.00  0.00    +0.000 C 
BRANCH  34  35
ATOM     35  O   UNL     1       4.572   4.615  19.626  0.00  0.00    +0.000 OA
ATOM     36  H   UNL     1       5.339   4.877  19.084  0.00  0.00    +0.000 HD
ENDBRANCH  34  35
ENDBRANCH  27  29
ENDBRANCH  24  25
ENDBRANCH   8  24
TORSDOF 6
ENDMDL
MODEL 7
REMARK VINA RESULT:      -8.0      2.098      2.831
REMARK  Name = 
REMARK  7 active torsions:
REMARK  status: ('A' for Active; 'I' for Inactive)
REMARK    1  A    between atoms: C_1  and  C_2
REMARK    2  A    between atoms: C_5  and  N_6
REMARK    3  A    between atoms: C_7  and  C_9
REMARK    4  A    between atoms: N_21  and  C_22
REMARK    5  A    between atoms: C_22  and  C_23
REMARK    6  A    between atoms: N_25  and  C_26
REMARK    7  A    between atoms: C_31  and  O_32
REMARK                            x       y       z     vdW  Elec       q    Type
REMARK                         _______ _______ _______ _____ _____    ______ ____
ROOT
ATOM      1  C   UNL     1       0.344   9.521  22.918  0.00  0.00    +0.000 C 
ATOM      2  C   UNL     1       0.622   9.860  21.476  0.00  0.00    +0.000 C 
ATOM      3  C   UNL     1       1.151  11.054  21.146  0.00  0.00    +0.000 C 
ATOM      4  C   UNL     1       1.435  11.604  19.769  0.00  0.00    +0.000 C 
ATOM      5  C   UNL     1       0.781  10.895  18.561  0.00  0.00    +0.000 C 
ATOM      6  C   UNL     1       1.450   9.505  18.455  0.00  0.00    +0.000 C 
ATOM      7  O   UNL     1       2.303   9.310  17.582  0.00  0.00    +0.000 OA
ATOM      8  N   UNL     1       1.226   8.570  19.472  0.00  0.00    +0.000 N 
ATOM      9  C   UNL     1       0.224   8.776  20.510  0.00  0.00    +0.000 C 
ENDROOT
BRANCH   5  10
ATOM     10  N   UNL     1      -0.683  10.894  18.586  0.00  0.00    +0.000 N 
ATOM     11  C   UNL     1      -1.410  12.013  18.232  0.00  0.00    +0.000 C 
ATOM     12  O   UNL     1      -0.900  13.061  17.854  0.00  0.00    +0.000 OA
ATOM     13  H   UNL     1      -1.147   9.998  18.517  0.00  0.00    +0.000 HD
BRANCH  11  14
ATOM     14  C   UNL     1      -2.892  11.903  18.317  0.00  0.00    +0.000 A 
ATOM     15  C   UNL     1      -3.657  11.407  17.255  0.00  0.00    +0.000 A 
ATOM     16  C   UNL     1      -5.040  11.265  17.399  0.00  0.00    +0.000 A 
ATOM     17  C   UNL     1      -5.679  11.608  18.603  0.00  0.00    +0.000 A 
ATOM     18  C   UNL     1      -7.063  11.454  18.767  0.00  0.00    +0.000 A 
ATOM     19  C   UNL     1      -7.680  11.789  19.973  0.00  0.00    +0.000 A 
ATOM     20  C   UNL     1      -6.922  12.288  21.031  0.00  0.00    +0.000 A 
ATOM     21  C   UNL     1      -5.543  12.447  20.883  0.00  0.00    +0.000 A 
ATOM     22  C   UNL     1      -4.907  12.107  19.679  0.00  0.00    +0.000 A 
ATOM     23  C   UNL     1      -3.518  12.244  19.523  0.00  0.00    +0.000 A 
ENDBRANCH  11  14
ENDBRANCH   5  10
BRANCH   8  24
ATOM     24  C   UNL     1       2.322   7.629  19.742  0.00  0.00    +0.000 C 
BRANCH  24  25
ATOM     25  C   UNL     1       2.055   6.125  19.987  0.00  0.00    +0.000 C 
ATOM     26  O   UNL     1       1.519   5.659  20.985  0.00  0.00    +0.000 OA
ATOM     27  N   UNL     1       2.581   5.316  18.995  0.00  0.00    +0.000 N 
ATOM     28  H   UNL     1       3.034   5.767  18.208  0.00  0.00    +0.000 HD
BRANCH  27  29
ATOM     29  C   UNL     1       2.638   3.849  19.029  0.00  0.00    +0.000 C 
ATOM     30  C   UNL     1       3.070   3.296  20.368  0.00  0.00    +0.000 C 
ATOM     31  C   UNL     1       1.795   2.779  20.958  0.00  0.00    +0.000 C 
ATOM     32  O   UNL     1       1.666   2.408  22.114  0.00  0.00    +0.000 OA
ATOM     33  O   UNL     1       0.828   2.650  20.008  0.00  0.00    +0.000 OA
ATOM     34  C   UNL     1       1.338   3.088  18.761  0.00  0.00    +0.000 C 
BRANCH  34  35
ATOM     35  O   UNL     1       1.620   1.939  17.969  0.00  0.00    +0.000 OA
ATOM     36  H   UNL     1       0.984   1.264  18.268  0.00  0.00    +0.000 HD
ENDBRANCH  34  35
ENDBRANCH  27  29
ENDBRANCH  24  25
ENDBRANCH   8  24
TORSDOF 6
ENDMDL
MODEL 8
REMARK VINA RESULT:      -8.0      3.698      7.242
REMARK  Name = 
REMARK  7 active torsions:
REMARK  status: ('A' for Active; 'I' for Inactive)
REMARK    1  A    between atoms: C_1  and  C_2
REMARK    2  A    between atoms: C_5  and  N_6
REMARK    3  A    between atoms: C_7  and  C_9
REMARK    4  A    between atoms: N_21  and  C_22
REMARK    5  A    between atoms: C_22  and  C_23
REMARK    6  A    between atoms: N_25  and  C_26
REMARK    7  A    between atoms: C_31  and  O_32
REMARK                            x       y       z     vdW  Elec       q    Type
REMARK                         _______ _______ _______ _____ _____    ______ ____
ROOT
ATOM      1  C   UNL     1       2.986   3.554  15.791  0.00  0.00    +0.000 C 
ATOM      2  C   UNL     1       3.897   3.949  16.925  0.00  0.00    +0.000 C 
ATOM      3  C   UNL     1       3.839   3.300  18.104  0.00  0.00    +0.000 C 
ATOM      4  C   UNL     1       4.609   3.588  19.370  0.00  0.00    +0.000 C 
ATOM      5  C   UNL     1       5.323   4.953  19.484  0.00  0.00    +0.000 C 
ATOM      6  C   UNL     1       6.474   4.932  18.451  0.00  0.00    +0.000 C 
ATOM      7  O   UNL     1       7.633   4.759  18.842  0.00  0.00    +0.000 OA
ATOM      8  N   UNL     1       6.155   4.906  17.089  0.00  0.00    +0.000 N 
ATOM      9  C   UNL     1       4.796   5.112  16.604  0.00  0.00    +0.000 C 
ENDROOT
BRANCH   5  10
ATOM     10  N   UNL     1       4.426   6.108  19.412  0.00  0.00    +0.000 N 
ATOM     11  C   UNL     1       3.172   6.084  19.989  0.00  0.00    +0.000 C 
ATOM     12  O   UNL     1       2.733   5.126  20.614  0.00  0.00    +0.000 OA
ATOM     13  H   UNL     1       4.849   7.014  19.257  0.00  0.00    +0.000 HD
BRANCH  11  14
ATOM     14  C   UNL     1       2.340   7.307  19.831  0.00  0.00    +0.000 A 
ATOM     15  C   UNL     1       2.203   7.952  18.596  0.00  0.00    +0.000 A 
ATOM     16  C   UNL     1       1.363   9.064  18.480  0.00  0.00    +0.000 A 
ATOM     17  C   UNL     1       0.645   9.544  19.588  0.00  0.00    +0.000 A 
ATOM     18  C   UNL     1      -0.214  10.648  19.480  0.00  0.00    +0.000 A 
ATOM     19  C   UNL     1      -0.929  11.105  20.588  0.00  0.00    +0.000 A 
ATOM     20  C   UNL     1      -0.791  10.469  21.821  0.00  0.00    +0.000 A 
ATOM     21  C   UNL     1       0.060   9.369  21.944  0.00  0.00    +0.000 A 
ATOM     22  C   UNL     1       0.780   8.892  20.836  0.00  0.00    +0.000 A 
ATOM     23  C   UNL     1       1.625   7.776  20.941  0.00  0.00    +0.000 A 
ENDBRANCH  11  14
ENDBRANCH   5  10
BRANCH   8  24
ATOM     24  C   UNL     1       7.106   4.207  16.213  0.00  0.00    +0.000 C 
BRANCH  24  25
ATOM     25  C   UNL     1       7.149   4.472  14.690  0.00  0.00    +0.000 C 
ATOM     26  O   UNL     1       7.731   5.407  14.154  0.00  0.00    +0.000 OA
ATOM     27  N   UNL     1       6.362   3.591  13.967  0.00  0.00    +0.000 N 
ATOM     28  H   UNL     1       5.889   2.854  14.478  0.00  0.00    +0.000 HD
BRANCH  27  29
ATOM     29  C   UNL     1       6.065   3.689  12.532  0.00  0.00    +0.000 C 
ATOM     30  C   UNL     1       7.036   2.923  11.664  0.00  0.00    +0.000 C 
ATOM     31  C   UNL     1       6.253   1.715  11.251  0.00  0.00    +0.000 C 
ATOM     32  O   UNL     1       6.726   0.743  10.684  0.00  0.00    +0.000 OA
ATOM     33  O   UNL     1       4.921   1.893  11.469  0.00  0.00    +0.000 OA
ATOM     34  C   UNL     1       4.709   3.164  12.057  0.00  0.00    +0.000 C 
BRANCH  34  35
ATOM     35  O   UNL     1       4.191   4.035  11.058  0.00  0.00    +0.000 OA
ATOM     36  H   UNL     1       3.304   4.284  11.375  0.00  0.00    +0.000 HD
ENDBRANCH  34  35
ENDBRANCH  27  29
ENDBRANCH  24  25
ENDBRANCH   8  24
TORSDOF 6
ENDMDL
MODEL 9
REMARK VINA RESULT:      -7.9      3.542      8.359
REMARK  Name = 
REMARK  7 active torsions:
REMARK  status: ('A' for Active; 'I' for Inactive)
REMARK    1  A    between atoms: C_1  and  C_2
REMARK    2  A    between atoms: C_5  and  N_6
REMARK    3  A    between atoms: C_7  and  C_9
REMARK    4  A    between atoms: N_21  and  C_22
REMARK    5  A    between atoms: C_22  and  C_23
REMARK    6  A    between atoms: N_25  and  C_26
REMARK    7  A    between atoms: C_31  and  O_32
REMARK                            x       y       z     vdW  Elec       q    Type
REMARK                         _______ _______ _______ _____ _____    ______ ____
ROOT
ATOM      1  C   UNL     1      -0.720  10.213  23.054  0.00  0.00    +0.000 C 
ATOM      2  C   UNL     1      -0.343  10.473  21.619  0.00  0.00    +0.000 C 
ATOM      3  C   UNL     1      -1.282  10.463  20.654  0.00  0.00    +0.000 C 
ATOM      4  C   UNL     1      -1.097  10.629  19.165  0.00  0.00    +0.000 C 
ATOM      5  C   UNL     1       0.333  10.486  18.596  0.00  0.00    +0.000 C 
ATOM      6  C   UNL     1       1.135  11.701  19.120  0.00  0.00    +0.000 C 
ATOM      7  O   UNL     1       1.370  12.644  18.356  0.00  0.00    +0.000 OA
ATOM      8  N   UNL     1       1.396  11.795  20.491  0.00  0.00    +0.000 N 
ATOM      9  C   UNL     1       1.131  10.695  21.410  0.00  0.00    +0.000 C 
ENDROOT
BRANCH   5  10
ATOM     10  N   UNL     1       0.943   9.175  18.828  0.00  0.00    +0.000 N 
ATOM     11  C   UNL     1       2.031   8.747  18.094  0.00  0.00    +0.000 C 
ATOM     12  O   UNL     1       2.574   9.426  17.229  0.00  0.00    +0.000 OA
ATOM     13  H   UNL     1       0.798   8.750  19.734  0.00  0.00    +0.000 HD
BRANCH  11  14
ATOM     14  C   UNL     1       2.552   7.388  18.400  0.00  0.00    +0.000 A 
ATOM     15  C   UNL     1       3.670   6.861  17.742  0.00  0.00    +0.000 A 
ATOM     16  C   UNL     1       4.162   5.603  18.102  0.00  0.00    +0.000 A 
ATOM     17  C   UNL     1       3.553   4.856  19.125  0.00  0.00    +0.000 A 
ATOM     18  C   UNL     1       4.047   3.601  19.508  0.00  0.00    +0.000 A 
ATOM     19  C   UNL     1       3.437   2.877  20.534  0.00  0.00    +0.000 A 
ATOM     20  C   UNL     1       2.321   3.396  21.188  0.00  0.00    +0.000 A 
ATOM     21  C   UNL     1       1.817   4.645  20.818  0.00  0.00    +0.000 A 
ATOM     22  C   UNL     1       2.424   5.388  19.793  0.00  0.00    +0.000 A 
ATOM     23  C   UNL     1       1.940   6.653  19.424  0.00  0.00    +0.000 A 
ENDBRANCH  11  14
ENDBRANCH   5  10
BRANCH   8  24
ATOM     24  C   UNL     1       1.489  13.154  21.042  0.00  0.00    +0.000 C 
BRANCH  24  25
ATOM     25  C   UNL     1       2.844  13.893  21.147  0.00  0.00    +0.000 C 
ATOM     26  O   UNL     1       3.461  14.089  22.187  0.00  0.00    +0.000 OA
ATOM     27  N   UNL     1       3.265  14.420  19.937  0.00  0.00    +0.000 N 
ATOM     28  H   UNL     1       2.693  14.240  19.120  0.00  0.00    +0.000 HD
BRANCH  27  29
ATOM     29  C   UNL     1       4.417  15.312  19.748  0.00  0.00    +0.000 C 
ATOM     30  C   UNL     1       5.720  14.574  19.550  0.00  0.00    +0.000 C 
ATOM     31  C   UNL     1       5.981  14.719  18.082  0.00  0.00    +0.000 C 
ATOM     32  O   UNL     1       6.848  14.116  17.469  0.00  0.00    +0.000 OA
ATOM     33  O   UNL     1       5.215  15.706  17.541  0.00  0.00    +0.000 OA
ATOM     34  C   UNL     1       4.384  16.258  18.546  0.00  0.00    +0.000 C 
BRANCH  34  35
ATOM     35  O   UNL     1       4.923  17.520  18.925  0.00  0.00    +0.000 OA
ATOM     36  H   UNL     1       5.801  17.555  18.506  0.00  0.00    +0.000 HD
ENDBRANCH  34  35
ENDBRANCH  27  29
ENDBRANCH  24  25
ENDBRANCH   8  24
TORSDOF 6
ENDMDL
