MODEL 1
REMARK VINA RESULT:      -8.7      0.000      0.000
REMARK  Name = 
REMARK  10 active torsions:
REMARK  status: ('A' for Active; 'I' for Inactive)
REMARK    1  A    between atoms: C_1  and  C_2
REMARK    2  A    between atoms: C_2  and  C_3
REMARK    3  A    between atoms: C_4  and  C_5
REMARK    4  A    between atoms: C_7  and  O_8
REMARK    5  A    between atoms: C_12  and  C_13
REMARK    6  A    between atoms: C_15  and  C_16
REMARK    7  A    between atoms: C_17  and  C_18
REMARK    8  A    between atoms: C_21  and  C_22
REMARK    9  A    between atoms: C_26  and  O_27
REMARK   10  A    between atoms: O_27  and  C_28
REMARK                            x       y       z     vdW  Elec       q    Type
REMARK                         _______ _______ _______ _____ _____    ______ ____
ROOT
ATOM      1  C   UNL     1       3.452   3.648  19.119  0.00  0.00    +0.000 C 
ATOM      2  C   UNL     1       2.903   3.608  17.666  0.00  0.00    +0.000 C 
ATOM      3  C   UNL     1       1.504   4.247  17.581  0.00  0.00    +0.000 C 
ATOM      4  C   UNL     1       3.829   4.194  16.568  0.00  0.00    +0.000 C 
ATOM      5  C   UNL     1       5.282   4.535  16.933  0.00  0.00    +0.000 C 
ATOM      6  C   UNL     1       5.793   5.817  16.281  0.00  0.00    +0.000 C 
ATOM      7  O   UNL     1       5.591   6.142  15.120  0.00  0.00    +0.000 OA
ATOM      8  O   UNL     1       6.652   6.468  17.112  0.00  0.00    +0.000 OA
ATOM      9  C   UNL     1       6.505   5.988  18.446  0.00  0.00    +0.000 C 
ATOM     10  C   UNL     1       7.857   5.701  19.082  0.00  0.00    +0.000 C 
ATOM     11  C   UNL     1       5.617   4.742  18.400  0.00  0.00    +0.000 C 
ATOM     12  C   UNL     1       4.405   4.841  19.342  0.00  0.00    +0.000 C 
ENDROOT
BRANCH   1  14
ATOM     13  C   UNL     1       3.722   1.134  18.505  0.00  0.00    +0.000 C 
ATOM     14  C   UNL     1       4.095   2.271  19.448  0.00  0.00    +0.000 C 
ENDBRANCH   1  14
BRANCH   5  15
ATOM     15  O   UNL     1       6.131   3.488  16.418  0.00  0.00    +0.000 OA
ATOM     16  H   UNL     1       6.446   3.791  15.543  0.00  0.00    +0.000 HD
ENDBRANCH   5  15
BRANCH  12  17
ATOM     17  C   UNL     1       3.679   6.166  19.262  0.00  0.00    +0.000 C 
ATOM     18  C   UNL     1       2.593   6.442  20.004  0.00  0.00    +0.000 C 
BRANCH  18  19
ATOM     19  C   UNL     1       1.919   7.747  20.030  0.00  0.00    +0.000 A 
ATOM     20  C   UNL     1       1.816   8.490  18.864  0.00  0.00    +0.000 A 
ATOM     21  C   UNL     1       1.121   9.700  18.896  0.00  0.00    +0.000 A 
ATOM     22  C   UNL     1       0.523  10.150  20.079  0.00  0.00    +0.000 A 
ATOM     23  C   UNL     1       0.698   9.322  21.191  0.00  0.00    +0.000 A 
ATOM     24  N   UNL     1       1.380   8.145  21.195  0.00  0.00    +0.000 NA
BRANCH  22  25
ATOM     25  C   UNL     1      -0.258  11.402  20.140  0.00  0.00    +0.000 A 
ATOM     26  C   UNL     1       0.360  12.639  20.398  0.00  0.00    +0.000 A 
ATOM     27  C   UNL     1      -0.377  13.823  20.434  0.00  0.00    +0.000 A 
ATOM     28  C   UNL     1      -1.750  13.794  20.199  0.00  0.00    +0.000 A 
ATOM     29  C   UNL     1      -2.394  12.585  19.938  0.00  0.00    +0.000 A 
ATOM     30  C   UNL     1      -1.651  11.402  19.923  0.00  0.00    +0.000 A 
BRANCH  29  31
ATOM     31  O   UNL     1      -3.740  12.684  19.718  0.00  0.00    +0.000 OA
ATOM     32  C   UNL     1      -4.291  11.823  18.726  0.00  0.00    +0.000 C 
ENDBRANCH  29  31
ENDBRANCH  22  25
ENDBRANCH  18  19
ENDBRANCH  12  17
TORSDOF 6
ENDMDL
MODEL 2
REMARK VINA RESULT:      -8.7      1.050      1.632
REMARK  Name = 
REMARK  10 active torsions:
REMARK  status: ('A' for Active; 'I' for Inactive)
REMARK    1  A    between atoms: C_1  and  C_2
REMARK    2  A    between atoms: C_2  and  C_3
REMARK    3  A    between atoms: C_4  and  C_5
REMARK    4  A    between atoms: C_7  and  O_8
REMARK    5  A    between atoms: C_12  and  C_13
REMARK    6  A    between atoms: C_15  and  C_16
REMARK    7  A    between atoms: C_17  and  C_18
REMARK    8  A    between atoms: C_21  and  C_22
REMARK    9  A    between atoms: C_26  and  O_27
REMARK   10  A    between atoms: O_27  and  C_28
REMARK                            x       y       z     vdW  Elec       q    Type
REMARK                         _______ _______ _______ _____ _____    ______ ____
ROOT
ATOM      1  C   UNL     1       3.416   3.708  19.126  0.00  0.00    +0.000 C 
ATOM      2  C   UNL     1       2.887   3.629  17.667  0.00  0.00    +0.000 C 
ATOM      3  C   UNL     1       1.490   4.267  17.545  0.00  0.00    +0.000 C 
ATOM      4  C   UNL     1       3.829   4.184  16.567  0.00  0.00    +0.000 C 
ATOM      5  C   UNL     1       5.278   4.532  16.942  0.00  0.00    +0.000 C 
ATOM      6  C   UNL     1       5.800   5.795  16.263  0.00  0.00    +0.000 C 
ATOM      7  O   UNL     1       5.614   6.089  15.091  0.00  0.00    +0.000 OA
ATOM      8  O   UNL     1       6.649   6.468  17.088  0.00  0.00    +0.000 OA
ATOM      9  C   UNL     1       6.482   6.024  18.433  0.00  0.00    +0.000 C 
ATOM     10  C   UNL     1       7.824   5.752  19.095  0.00  0.00    +0.000 C 
ATOM     11  C   UNL     1       5.592   4.778  18.408  0.00  0.00    +0.000 C 
ATOM     12  C   UNL     1       4.368   4.904  19.330  0.00  0.00    +0.000 C 
ENDROOT
BRANCH   1  14
ATOM     13  C   UNL     1       3.738   1.190  18.550  0.00  0.00    +0.000 C 
ATOM     14  C   UNL     1       4.052   2.339  19.500  0.00  0.00    +0.000 C 
ENDBRANCH   1  14
BRANCH   5  15
ATOM     15  O   UNL     1       6.132   3.470  16.468  0.00  0.00    +0.000 OA
ATOM     16  H   UNL     1       6.919   3.467  17.049  0.00  0.00    +0.000 HD
ENDBRANCH   5  15
BRANCH  12  17
ATOM     17  C   UNL     1       3.645   6.228  19.204  0.00  0.00    +0.000 C 
ATOM     18  C   UNL     1       2.593   6.553  19.974  0.00  0.00    +0.000 C 
BRANCH  18  19
ATOM     19  C   UNL     1       1.927   7.863  19.953  0.00  0.00    +0.000 A 
ATOM     20  C   UNL     1       1.760   8.529  18.748  0.00  0.00    +0.000 A 
ATOM     21  C   UNL     1       1.073   9.744  18.740  0.00  0.00    +0.000 A 
ATOM     22  C   UNL     1       0.545  10.274  19.924  0.00  0.00    +0.000 A 
ATOM     23  C   UNL     1       0.782   9.520  21.076  0.00  0.00    +0.000 A 
ATOM     24  N   UNL     1       1.458   8.341  21.118  0.00  0.00    +0.000 NA
BRANCH  22  25
ATOM     25  C   UNL     1      -0.225  11.534  19.947  0.00  0.00    +0.000 A 
ATOM     26  C   UNL     1      -1.404  11.658  20.705  0.00  0.00    +0.000 A 
ATOM     27  C   UNL     1      -2.119  12.856  20.742  0.00  0.00    +0.000 A 
ATOM     28  C   UNL     1      -1.659  13.960  20.029  0.00  0.00    +0.000 A 
ATOM     29  C   UNL     1      -0.494  13.873  19.269  0.00  0.00    +0.000 A 
ATOM     30  C   UNL     1       0.204  12.664  19.223  0.00  0.00    +0.000 A 
BRANCH  29  31
ATOM     31  O   UNL     1      -0.140  15.023  18.619  0.00  0.00    +0.000 OA
ATOM     32  C   UNL     1       0.927  15.776  19.186  0.00  0.00    +0.000 C 
ENDBRANCH  29  31
ENDBRANCH  22  25
ENDBRANCH  18  19
ENDBRANCH  12  17
TORSDOF 6
ENDMDL
MODEL 3
REMARK VINA RESULT:      -8.7      1.014      1.220
REMARK  Name = 
REMARK  10 active torsions:
REMARK  status: ('A' for Active; 'I' for Inactive)
REMARK    1  A    between atoms: C_1  and  C_2
REMARK    2  A    between atoms: C_2  and  C_3
REMARK    3  A    between atoms: C_4  and  C_5
REMARK    4  A    between atoms: C_7  and  O_8
REMARK    5  A    between atoms: C_12  and  C_13
REMARK    6  A    between atoms: C_15  and  C_16
REMARK    7  A    between atoms: C_17  and  C_18
REMARK    8  A    between atoms: C_21  and  C_22
REMARK    9  A    between atoms: C_26  and  O_27
REMARK   10  A    between atoms: O_27  and  C_28
REMARK                            x       y       z     vdW  Elec       q    Type
REMARK                         _______ _______ _______ _____ _____    ______ ____
ROOT
ATOM      1  C   UNL     1       3.504   3.600  19.114  0.00  0.00    +0.000 C 
ATOM      2  C   UNL     1       2.933   3.562  17.670  0.00  0.00    +0.000 C 
ATOM      3  C   UNL     1       1.519   4.169  17.614  0.00  0.00    +0.000 C 
ATOM      4  C   UNL     1       3.827   4.181  16.564  0.00  0.00    +0.000 C 
ATOM      5  C   UNL     1       5.279   4.551  16.910  0.00  0.00    +0.000 C 
ATOM      6  C   UNL     1       5.749   5.852  16.264  0.00  0.00    +0.000 C 
ATOM      7  O   UNL     1       5.521   6.184  15.110  0.00  0.00    +0.000 OA
ATOM      8  O   UNL     1       6.606   6.514  17.088  0.00  0.00    +0.000 OA
ATOM      9  C   UNL     1       6.491   6.017  18.419  0.00  0.00    +0.000 C 
ATOM     10  C   UNL     1       7.860   5.755  19.031  0.00  0.00    +0.000 C 
ATOM     11  C   UNL     1       5.632   4.750  18.374  0.00  0.00    +0.000 C 
ATOM     12  C   UNL     1       4.433   4.812  19.336  0.00  0.00    +0.000 C 
ENDROOT
BRANCH   1  14
ATOM     13  C   UNL     1       3.736   1.071  18.542  0.00  0.00    +0.000 C 
ATOM     14  C   UNL     1       4.184   2.234  19.418  0.00  0.00    +0.000 C 
ENDBRANCH   1  14
BRANCH   5  15
ATOM     15  O   UNL     1       6.143   3.530  16.370  0.00  0.00    +0.000 OA
ATOM     16  H   UNL     1       6.718   3.971  15.714  0.00  0.00    +0.000 HD
ENDBRANCH   5  15
BRANCH  12  17
ATOM     17  C   UNL     1       3.676   6.120  19.281  0.00  0.00    +0.000 C 
ATOM     18  C   UNL     1       2.596   6.363  20.044  0.00  0.00    +0.000 C 
BRANCH  18  19
ATOM     19  C   UNL     1       1.893   7.652  20.095  0.00  0.00    +0.000 A 
ATOM     20  C   UNL     1       1.886   8.476  18.978  0.00  0.00    +0.000 A 
ATOM     21  C   UNL     1       1.164   9.668  19.026  0.00  0.00    +0.000 A 
ATOM     22  C   UNL     1       0.443  10.022  20.173  0.00  0.00    +0.000 A 
ATOM     23  C   UNL     1       0.529   9.121  21.237  0.00  0.00    +0.000 A 
ATOM     24  N   UNL     1       1.235   7.958  21.226  0.00  0.00    +0.000 NA
BRANCH  22  25
ATOM     25  C   UNL     1      -0.369  11.254  20.245  0.00  0.00    +0.000 A 
ATOM     26  C   UNL     1      -0.565  12.069  19.115  0.00  0.00    +0.000 A 
ATOM     27  C   UNL     1      -1.350  13.220  19.180  0.00  0.00    +0.000 A 
ATOM     28  C   UNL     1      -1.966  13.574  20.378  0.00  0.00    +0.000 A 
ATOM     29  C   UNL     1      -1.794  12.788  21.517  0.00  0.00    +0.000 A 
ATOM     30  C   UNL     1      -0.991  11.647  21.446  0.00  0.00    +0.000 A 
BRANCH  29  31
ATOM     31  O   UNL     1      -2.453  13.232  22.630  0.00  0.00    +0.000 OA
ATOM     32  C   UNL     1      -3.085  12.243  23.436  0.00  0.00    +0.000 C 
ENDBRANCH  29  31
ENDBRANCH  22  25
ENDBRANCH  18  19
ENDBRANCH  12  17
TORSDOF 6
ENDMDL
MODEL 4
REMARK VINA RESULT:      -8.7      0.997      1.242
REMARK  Name = 
REMARK  10 active torsions:
REMARK  status: ('A' for Active; 'I' for Inactive)
REMARK    1  A    between atoms: C_1  and  C_2
REMARK    2  A    between atoms: C_2  and  C_3
REMARK    3  A    between atoms: C_4  and  C_5
REMARK    4  A    between atoms: C_7  and  O_8
REMARK    5  A    between atoms: C_12  and  C_13
REMARK    6  A    between atoms: C_15  and  C_16
REMARK    7  A    between atoms: C_17  and  C_18
REMARK    8  A    between atoms: C_21  and  C_22
REMARK    9  A    between atoms: C_26  and  O_27
REMARK   10  A    between atoms: O_27  and  C_28
REMARK                            x       y       z     vdW  Elec       q    Type
REMARK                         _______ _______ _______ _____ _____    ______ ____
ROOT
ATOM      1  C   UNL     1       3.411   3.676  19.162  0.00  0.00    +0.000 C 
ATOM      2  C   UNL     1       2.878   3.590  17.705  0.00  0.00    +0.000 C 
ATOM      3  C   UNL     1       1.467   4.196  17.591  0.00  0.00    +0.000 C 
ATOM      4  C   UNL     1       3.802   4.170  16.603  0.00  0.00    +0.000 C 
ATOM      5  C   UNL     1       5.244   4.551  16.973  0.00  0.00    +0.000 C 
ATOM      6  C   UNL     1       5.734   5.829  16.297  0.00  0.00    +0.000 C 
ATOM      7  O   UNL     1       5.537   6.123  15.127  0.00  0.00    +0.000 OA
ATOM      8  O   UNL     1       6.570   6.518  17.121  0.00  0.00    +0.000 OA
ATOM      9  C   UNL     1       6.420   6.066  18.464  0.00  0.00    +0.000 C 
ATOM     10  C   UNL     1       7.771   5.823  19.120  0.00  0.00    +0.000 C 
ATOM     11  C   UNL     1       5.559   4.799  18.439  0.00  0.00    +0.000 C 
ATOM     12  C   UNL     1       4.336   4.894  19.366  0.00  0.00    +0.000 C 
ENDROOT
BRANCH   1  14
ATOM     13  C   UNL     1       3.723   1.148  18.623  0.00  0.00    +0.000 C 
ATOM     14  C   UNL     1       4.081   2.321  19.529  0.00  0.00    +0.000 C 
ENDBRANCH   1  14
BRANCH   5  15
ATOM     15  O   UNL     1       6.121   3.511  16.491  0.00  0.00    +0.000 OA
ATOM     16  H   UNL     1       6.219   3.656  15.529  0.00  0.00    +0.000 HD
ENDBRANCH   5  15
BRANCH  12  17
ATOM     17  C   UNL     1       3.582   6.200  19.248  0.00  0.00    +0.000 C 
ATOM     18  C   UNL     1       2.534   6.504  20.032  0.00  0.00    +0.000 C 
BRANCH  18  19
ATOM     19  C   UNL     1       1.838   7.798  20.018  0.00  0.00    +0.000 A 
ATOM     20  C   UNL     1       1.282   8.292  21.188  0.00  0.00    +0.000 A 
ATOM     21  C   UNL     1       0.678   9.550  21.167  0.00  0.00    +0.000 A 
ATOM     22  C   UNL     1       0.647  10.309  19.991  0.00  0.00    +0.000 A 
ATOM     23  C   UNL     1       1.231   9.706  18.874  0.00  0.00    +0.000 A 
ATOM     24  N   UNL     1       1.816   8.478  18.860  0.00  0.00    +0.000 NA
BRANCH  22  25
ATOM     25  C   UNL     1       0.056  11.661  19.942  0.00  0.00    +0.000 A 
ATOM     26  C   UNL     1       0.507  12.625  19.022  0.00  0.00    +0.000 A 
ATOM     27  C   UNL     1      -0.067  13.895  18.964  0.00  0.00    +0.000 A 
ATOM     28  C   UNL     1      -1.117  14.223  19.819  0.00  0.00    +0.000 A 
ATOM     29  C   UNL     1      -1.590  13.290  20.742  0.00  0.00    +0.000 A 
ATOM     30  C   UNL     1      -0.995  12.028  20.806  0.00  0.00    +0.000 A 
BRANCH  29  31
ATOM     31  O   UNL     1      -2.626  13.725  21.523  0.00  0.00    +0.000 OA
ATOM     32  C   UNL     1      -3.646  12.776  21.817  0.00  0.00    +0.000 C 
ENDBRANCH  29  31
ENDBRANCH  22  25
ENDBRANCH  18  19
ENDBRANCH  12  17
TORSDOF 6
ENDMDL
MODEL 5
REMARK VINA RESULT:      -8.4      2.445      3.847
REMARK  Name = 
REMARK  10 active torsions:
REMARK  status: ('A' for Active; 'I' for Inactive)
REMARK    1  A    between atoms: C_1  and  C_2
REMARK    2  A    between atoms: C_2  and  C_3
REMARK    3  A    between atoms: C_4  and  C_5
REMARK    4  A    between atoms: C_7  and  O_8
REMARK    5  A    between atoms: C_12  and  C_13
REMARK    6  A    between atoms: C_15  and  C_16
REMARK    7  A    between atoms: C_17  and  C_18
REMARK    8  A    between atoms: C_21  and  C_22
REMARK    9  A    between atoms: C_26  and  O_27
REMARK   10  A    between atoms: O_27  and  C_28
REMARK                            x       y       z     vdW  Elec       q    Type
REMARK                         _______ _______ _______ _____ _____    ______ ____
ROOT
ATOM      1  C   UNL     1       4.517   4.627  17.179  0.00  0.00    +0.000 C 
ATOM      2  C   UNL     1       5.510   4.507  18.367  0.00  0.00    +0.000 C 
ATOM      3  C   UNL     1       5.943   5.895  18.876  0.00  0.00    +0.000 C 
ATOM      4  C   UNL     1       5.053   3.619  19.555  0.00  0.00    +0.000 C 
ATOM      5  C   UNL     1       3.803   2.741  19.382  0.00  0.00    +0.000 C 
ATOM      6  C   UNL     1       2.924   2.675  20.628  0.00  0.00    +0.000 C 
ATOM      7  O   UNL     1       3.337   2.552  21.772  0.00  0.00    +0.000 OA
ATOM      8  O   UNL     1       1.610   2.594  20.284  0.00  0.00    +0.000 OA
ATOM      9  C   UNL     1       1.431   2.991  18.927  0.00  0.00    +0.000 C 
ATOM     10  C   UNL     1       0.545   2.009  18.175  0.00  0.00    +0.000 C 
ATOM     11  C   UNL     1       2.818   3.116  18.288  0.00  0.00    +0.000 C 
ATOM     12  C   UNL     1       3.050   4.491  17.638  0.00  0.00    +0.000 C 
ENDROOT
BRANCH   1  14
ATOM     13  C   UNL     1       6.059   4.033  15.169  0.00  0.00    +0.000 C 
ATOM     14  C   UNL     1       4.921   3.599  16.084  0.00  0.00    +0.000 C 
ENDBRANCH   1  14
BRANCH   5  15
ATOM     15  O   UNL     1       4.237   1.384  19.155  0.00  0.00    +0.000 OA
ATOM     16  H   UNL     1       3.573   0.977  18.563  0.00  0.00    +0.000 HD
ENDBRANCH   5  15
BRANCH  12  17
ATOM     17  C   UNL     1       2.620   5.654  18.505  0.00  0.00    +0.000 C 
ATOM     18  C   UNL     1       2.486   6.903  18.024  0.00  0.00    +0.000 C 
BRANCH  18  19
ATOM     19  C   UNL     1       1.976   8.038  18.805  0.00  0.00    +0.000 A 
ATOM     20  C   UNL     1       1.653   9.224  18.163  0.00  0.00    +0.000 A 
ATOM     21  C   UNL     1       1.116  10.271  18.914  0.00  0.00    +0.000 A 
ATOM     22  C   UNL     1       0.889  10.123  20.287  0.00  0.00    +0.000 A 
ATOM     23  C   UNL     1       1.259   8.888  20.826  0.00  0.00    +0.000 A 
ATOM     24  N   UNL     1       1.797   7.855  20.125  0.00  0.00    +0.000 NA
BRANCH  22  25
ATOM     25  C   UNL     1       0.280  11.192  21.105  0.00  0.00    +0.000 A 
ATOM     26  C   UNL     1       0.736  12.521  21.030  0.00  0.00    +0.000 A 
ATOM     27  C   UNL     1       0.146  13.532  21.788  0.00  0.00    +0.000 A 
ATOM     28  C   UNL     1      -0.925  13.236  22.628  0.00  0.00    +0.000 A 
ATOM     29  C   UNL     1      -1.404  11.930  22.724  0.00  0.00    +0.000 A 
ATOM     30  C   UNL     1      -0.793  10.920  21.976  0.00  0.00    +0.000 A 
BRANCH  29  31
ATOM     31  O   UNL     1      -2.461  11.763  23.576  0.00  0.00    +0.000 OA
ATOM     32  C   UNL     1      -3.598  12.591  23.352  0.00  0.00    +0.000 C 
ENDBRANCH  29  31
ENDBRANCH  22  25
ENDBRANCH  18  19
ENDBRANCH  12  17
TORSDOF 6
ENDMDL
MODEL 6
REMARK VINA RESULT:      -8.3      2.528      4.065
REMARK  Name = 
REMARK  10 active torsions:
REMARK  status: ('A' for Active; 'I' for Inactive)
REMARK    1  A    between atoms: C_1  and  C_2
REMARK    2  A    between atoms: C_2  and  C_3
REMARK    3  A    between atoms: C_4  and  C_5
REMARK    4  A    between atoms: C_7  and  O_8
REMARK    5  A    between atoms: C_12  and  C_13
REMARK    6  A    between atoms: C_15  and  C_16
REMARK    7  A    between atoms: C_17  and  C_18
REMARK    8  A    between atoms: C_21  and  C_22
REMARK    9  A    between atoms: C_26  and  O_27
REMARK   10  A    between atoms: O_27  and  C_28
REMARK                            x       y       z     vdW  Elec       q    Type
REMARK                         _______ _______ _______ _____ _____    ______ ____
ROOT
ATOM      1  C   UNL     1       4.433   4.661  17.256  0.00  0.00    +0.000 C 
ATOM      2  C   UNL     1       5.423   4.542  18.447  0.00  0.00    +0.000 C 
ATOM      3  C   UNL     1       5.832   5.930  18.973  0.00  0.00    +0.000 C 
ATOM      4  C   UNL     1       4.975   3.633  19.621  0.00  0.00    +0.000 C 
ATOM      5  C   UNL     1       3.739   2.738  19.432  0.00  0.00    +0.000 C 
ATOM      6  C   UNL     1       2.856   2.643  20.673  0.00  0.00    +0.000 C 
ATOM      7  O   UNL     1       3.266   2.513  21.818  0.00  0.00    +0.000 OA
ATOM      8  O   UNL     1       1.545   2.546  20.322  0.00  0.00    +0.000 OA
ATOM      9  C   UNL     1       1.366   2.957  18.969  0.00  0.00    +0.000 C 
ATOM     10  C   UNL     1       0.498   1.970  18.202  0.00  0.00    +0.000 C 
ATOM     11  C   UNL     1       2.753   3.111  18.339  0.00  0.00    +0.000 C 
ATOM     12  C   UNL     1       2.966   4.496  17.707  0.00  0.00    +0.000 C 
ENDROOT
BRANCH   1  14
ATOM     13  C   UNL     1       6.148   3.995  15.414  0.00  0.00    +0.000 C 
ATOM     14  C   UNL     1       4.858   3.653  16.150  0.00  0.00    +0.000 C 
ENDBRANCH   1  14
BRANCH   5  15
ATOM     15  O   UNL     1       4.195   1.390  19.191  0.00  0.00    +0.000 OA
ATOM     16  H   UNL     1       5.107   1.464  18.844  0.00  0.00    +0.000 HD
ENDBRANCH   5  15
BRANCH  12  17
ATOM     17  C   UNL     1       2.515   5.643  18.585  0.00  0.00    +0.000 C 
ATOM     18  C   UNL     1       2.475   6.915  18.151  0.00  0.00    +0.000 C 
BRANCH  18  19
ATOM     19  C   UNL     1       1.950   8.040  18.936  0.00  0.00    +0.000 A 
ATOM     20  C   UNL     1       1.655   9.239  18.306  0.00  0.00    +0.000 A 
ATOM     21  C   UNL     1       1.102  10.276  19.059  0.00  0.00    +0.000 A 
ATOM     22  C   UNL     1       0.833  10.106  20.422  0.00  0.00    +0.000 A 
ATOM     23  C   UNL     1       1.179   8.859  20.950  0.00  0.00    +0.000 A 
ATOM     24  N   UNL     1       1.731   7.834  20.246  0.00  0.00    +0.000 NA
BRANCH  22  25
ATOM     25  C   UNL     1       0.208  11.165  21.240  0.00  0.00    +0.000 A 
ATOM     26  C   UNL     1      -0.727  10.859  22.245  0.00  0.00    +0.000 A 
ATOM     27  C   UNL     1      -1.300  11.859  23.030  0.00  0.00    +0.000 A 
ATOM     28  C   UNL     1      -0.938  13.190  22.833  0.00  0.00    +0.000 A 
ATOM     29  C   UNL     1      -0.013  13.528  21.846  0.00  0.00    +0.000 A 
ATOM     30  C   UNL     1       0.541  12.521  21.052  0.00  0.00    +0.000 A 
BRANCH  29  31
ATOM     31  O   UNL     1       0.267  14.864  21.751  0.00  0.00    +0.000 OA
ATOM     32  C   UNL     1      -0.465  15.733  22.609  0.00  0.00    +0.000 C 
ENDBRANCH  29  31
ENDBRANCH  22  25
ENDBRANCH  18  19
ENDBRANCH  12  17
TORSDOF 6
ENDMDL
MODEL 7
REMARK VINA RESULT:      -7.8      2.463     10.037
REMARK  Name = 
REMARK  10 active torsions:
REMARK  status: ('A' for Active; 'I' for Inactive)
REMARK    1  A    between atoms: C_1  and  C_2
REMARK    2  A    between atoms: C_2  and  C_3
REMARK    3  A    between atoms: C_4  and  C_5
REMARK    4  A    between atoms: C_7  and  O_8
REMARK    5  A    between atoms: C_12  and  C_13
REMARK    6  A    between atoms: C_15  and  C_16
REMARK    7  A    between atoms: C_17  and  C_18
REMARK    8  A    between atoms: C_21  and  C_22
REMARK    9  A    between atoms: C_26  and  O_27
REMARK   10  A    between atoms: O_27  and  C_28
REMARK                            x       y       z     vdW  Elec       q    Type
REMARK                         _______ _______ _______ _____ _____    ______ ____
ROOT
ATOM      1  C   UNL     1      -2.285  12.394  21.082  0.00  0.00    +0.000 C 
ATOM      2  C   UNL     1      -1.670  12.345  22.508  0.00  0.00    +0.000 C 
ATOM      3  C   UNL     1      -1.208  10.920  22.867  0.00  0.00    +0.000 C 
ATOM      4  C   UNL     1      -0.539  13.365  22.801  0.00  0.00    +0.000 C 
ATOM      5  C   UNL     1      -0.278  14.490  21.786  0.00  0.00    +0.000 C 
ATOM      6  C   UNL     1       1.202  14.807  21.590  0.00  0.00    +0.000 C 
ATOM      7  O   UNL     1       2.027  14.887  22.488  0.00  0.00    +0.000 OA
ATOM      8  O   UNL     1       1.449  15.163  20.299  0.00  0.00    +0.000 OA
ATOM      9  C   UNL     1       0.372  14.753  19.461  0.00  0.00    +0.000 C 
ATOM     10  C   UNL     1      -0.055  15.873  18.523  0.00  0.00    +0.000 C 
ATOM     11  C   UNL     1      -0.776  14.294  20.365  0.00  0.00    +0.000 C 
ATOM     12  C   UNL     1      -1.263  12.874  20.030  0.00  0.00    +0.000 C 
ENDROOT
BRANCH   1  14
ATOM     13  C   UNL     1      -4.772  12.682  20.371  0.00  0.00    +0.000 C 
ATOM     14  C   UNL     1      -3.579  13.255  21.127  0.00  0.00    +0.000 C 
ENDBRANCH   1  14
BRANCH   5  15
ATOM     15  O   UNL     1      -0.857  15.705  22.305  0.00  0.00    +0.000 OA
ATOM     16  H   UNL     1      -1.475  15.437  23.015  0.00  0.00    +0.000 HD
ENDBRANCH   5  15
BRANCH  12  17
ATOM     17  C   UNL     1      -0.143  11.876  19.835  0.00  0.00    +0.000 C 
ATOM     18  C   UNL     1      -0.368  10.589  19.520  0.00  0.00    +0.000 C 
BRANCH  18  19
ATOM     19  C   UNL     1       0.691   9.614  19.226  0.00  0.00    +0.000 A 
ATOM     20  C   UNL     1       1.072   8.699  20.196  0.00  0.00    +0.000 A 
ATOM     21  C   UNL     1       2.037   7.743  19.878  0.00  0.00    +0.000 A 
ATOM     22  C   UNL     1       2.601   7.694  18.597  0.00  0.00    +0.000 A 
ATOM     23  C   UNL     1       2.146   8.669  17.705  0.00  0.00    +0.000 A 
ATOM     24  N   UNL     1       1.217   9.621  17.989  0.00  0.00    +0.000 NA
BRANCH  22  25
ATOM     25  C   UNL     1       3.591   6.669  18.211  0.00  0.00    +0.000 A 
ATOM     26  C   UNL     1       4.292   6.749  16.994  0.00  0.00    +0.000 A 
ATOM     27  C   UNL     1       5.243   5.791  16.642  0.00  0.00    +0.000 A 
ATOM     28  C   UNL     1       5.521   4.737  17.509  0.00  0.00    +0.000 A 
ATOM     29  C   UNL     1       4.846   4.629  18.724  0.00  0.00    +0.000 A 
ATOM     30  C   UNL     1       3.882   5.582  19.060  0.00  0.00    +0.000 A 
BRANCH  29  31
ATOM     31  O   UNL     1       5.209   3.556  19.492  0.00  0.00    +0.000 OA
ATOM     32  C   UNL     1       4.230   2.538  19.671  0.00  0.00    +0.000 C 
ENDBRANCH  29  31
ENDBRANCH  22  25
ENDBRANCH  18  19
ENDBRANCH  12  17
TORSDOF 6
ENDMDL
MODEL 8
REMARK VINA RESULT:      -7.7      2.488     10.174
REMARK  Name = 
REMARK  10 active torsions:
REMARK  status: ('A' for Active; 'I' for Inactive)
REMARK    1  A    between atoms: C_1  and  C_2
REMARK    2  A    between atoms: C_2  and  C_3
REMARK    3  A    between atoms: C_4  and  C_5
REMARK    4  A    between atoms: C_7  and  O_8
REMARK    5  A    between atoms: C_12  and  C_13
REMARK    6  A    between atoms: C_15  and  C_16
REMARK    7  A    between atoms: C_17  and  C_18
REMARK    8  A    between atoms: C_21  and  C_22
REMARK    9  A    between atoms: C_26  and  O_27
REMARK   10  A    between atoms: O_27  and  C_28
REMARK                            x       y       z     vdW  Elec       q    Type
REMARK                         _______ _______ _______ _____ _____    ______ ____
ROOT
ATOM      1  C   UNL     1      -2.462  12.470  21.276  0.00  0.00    +0.000 C 
ATOM      2  C   UNL     1      -1.832  12.438  22.696  0.00  0.00    +0.000 C 
ATOM      3  C   UNL     1      -1.368  11.017  23.069  0.00  0.00    +0.000 C 
ATOM      4  C   UNL     1      -0.697  13.460  22.964  0.00  0.00    +0.000 C 
ATOM      5  C   UNL     1      -0.445  14.572  21.932  0.00  0.00    +0.000 C 
ATOM      6  C   UNL     1       1.033  14.884  21.716  0.00  0.00    +0.000 C 
ATOM      7  O   UNL     1       1.868  14.975  22.604  0.00  0.00    +0.000 OA
ATOM      8  O   UNL     1       1.267  15.223  20.419  0.00  0.00    +0.000 OA
ATOM      9  C   UNL     1       0.180  14.804  19.597  0.00  0.00    +0.000 C 
ATOM     10  C   UNL     1      -0.256  15.912  18.649  0.00  0.00    +0.000 C 
ATOM     11  C   UNL     1      -0.959  14.358  20.519  0.00  0.00    +0.000 C 
ATOM     12  C   UNL     1      -1.451  12.935  20.207  0.00  0.00    +0.000 C 
ENDROOT
BRANCH   1  14
ATOM     13  C   UNL     1      -4.582  13.203  22.597  0.00  0.00    +0.000 C 
ATOM     14  C   UNL     1      -3.755  13.333  21.324  0.00  0.00    +0.000 C 
ENDBRANCH   1  14
BRANCH   5  15
ATOM     15  O   UNL     1      -1.017  15.794  22.442  0.00  0.00    +0.000 OA
ATOM     16  H   UNL     1      -0.267  16.392  22.634  0.00  0.00    +0.000 HD
ENDBRANCH   5  15
BRANCH  12  17
ATOM     17  C   UNL     1      -0.334  11.933  20.014  0.00  0.00    +0.000 C 
ATOM     18  C   UNL     1      -0.550  10.688  19.555  0.00  0.00    +0.000 C 
BRANCH  18  19
ATOM     19  C   UNL     1       0.515   9.720  19.259  0.00  0.00    +0.000 A 
ATOM     20  C   UNL     1       0.958   8.861  20.254  0.00  0.00    +0.000 A 
ATOM     21  C   UNL     1       1.928   7.909  19.938  0.00  0.00    +0.000 A 
ATOM     22  C   UNL     1       2.435   7.809  18.636  0.00  0.00    +0.000 A 
ATOM     23  C   UNL     1       1.920   8.731  17.721  0.00  0.00    +0.000 A 
ATOM     24  N   UNL     1       0.985   9.678  18.001  0.00  0.00    +0.000 NA
BRANCH  22  25
ATOM     25  C   UNL     1       3.428   6.786  18.255  0.00  0.00    +0.000 A 
ATOM     26  C   UNL     1       3.577   5.597  18.992  0.00  0.00    +0.000 A 
ATOM     27  C   UNL     1       4.502   4.622  18.617  0.00  0.00    +0.000 A 
ATOM     28  C   UNL     1       5.291   4.813  17.485  0.00  0.00    +0.000 A 
ATOM     29  C   UNL     1       5.168   5.979  16.730  0.00  0.00    +0.000 A 
ATOM     30  C   UNL     1       4.253   6.958  17.125  0.00  0.00    +0.000 A 
BRANCH  29  31
ATOM     31  O   UNL     1       5.991   6.050  15.639  0.00  0.00    +0.000 OA
ATOM     32  C   UNL     1       6.668   4.853  15.270  0.00  0.00    +0.000 C 
ENDBRANCH  29  31
ENDBRANCH  22  25
ENDBRANCH  18  19
ENDBRANCH  12  17
TORSDOF 6
ENDMDL
MODEL 9
REMARK VINA RESULT:      -7.3      3.191      9.853
REMARK  Name = 
REMARK  10 active torsions:
REMARK  status: ('A' for Active; 'I' for Inactive)
REMARK    1  A    between atoms: C_1  and  C_2
REMARK    2  A    between atoms: C_2  and  C_3
REMARK    3  A    between atoms: C_4  and  C_5
REMARK    4  A    between atoms: C_7  and  O_8
REMARK    5  A    between atoms: C_12  and  C_13
REMARK    6  A    between atoms: C_15  and  C_16
REMARK    7  A    between atoms: C_17  and  C_18
REMARK    8  A    between atoms: C_21  and  C_22
REMARK    9  A    between atoms: C_26  and  O_27
REMARK   10  A    between atoms: O_27  and  C_28
REMARK                            x       y       z     vdW  Elec       q    Type
REMARK                         _______ _______ _______ _____ _____    ______ ____
ROOT
ATOM      1  C   UNL     1      -0.330  14.241  19.722  0.00  0.00    +0.000 C 
ATOM      2  C   UNL     1      -0.381  14.178  21.273  0.00  0.00    +0.000 C 
ATOM      3  C   UNL     1      -0.917  12.818  21.759  0.00  0.00    +0.000 C 
ATOM      4  C   UNL     1       0.934  14.533  22.016  0.00  0.00    +0.000 C 
ATOM      5  C   UNL     1       2.092  15.148  21.214  0.00  0.00    +0.000 C 
ATOM      6  C   UNL     1       3.468  14.638  21.635  0.00  0.00    +0.000 C 
ATOM      7  O   UNL     1       3.831  14.473  22.790  0.00  0.00    +0.000 OA
ATOM      8  O   UNL     1       4.298  14.556  20.559  0.00  0.00    +0.000 OA
ATOM      9  C   UNL     1       3.542  14.580  19.351  0.00  0.00    +0.000 C 
ATOM     10  C   UNL     1       4.142  15.549  18.343  0.00  0.00    +0.000 C 
ATOM     11  C   UNL     1       2.099  14.946  19.708  0.00  0.00    +0.000 C 
ATOM     12  C   UNL     1       1.079  13.925  19.178  0.00  0.00    +0.000 C 
ENDROOT
BRANCH   1  14
ATOM     13  C   UNL     1      -1.790  16.328  20.255  0.00  0.00    +0.000 C 
ATOM     14  C   UNL     1      -0.878  15.621  19.261  0.00  0.00    +0.000 C 
ENDBRANCH   1  14
BRANCH   5  15
ATOM     15  O   UNL     1       2.119  16.565  21.481  0.00  0.00    +0.000 OA
ATOM     16  H   UNL     1       1.943  17.012  20.629  0.00  0.00    +0.000 HD
ENDBRANCH   5  15
BRANCH  12  17
ATOM     17  C   UNL     1       1.471  12.486  19.430  0.00  0.00    +0.000 C 
ATOM     18  C   UNL     1       0.818  11.450  18.875  0.00  0.00    +0.000 C 
BRANCH  18  19
ATOM     19  C   UNL     1       1.226  10.046  19.013  0.00  0.00    +0.000 A 
ATOM     20  C   UNL     1       1.726   9.364  17.914  0.00  0.00    +0.000 A 
ATOM     21  C   UNL     1       2.164   8.049  18.080  0.00  0.00    +0.000 A 
ATOM     22  C   UNL     1       2.116   7.433  19.336  0.00  0.00    +0.000 A 
ATOM     23  C   UNL     1       1.586   8.213  20.367  0.00  0.00    +0.000 A 
ATOM     24  N   UNL     1       1.140   9.491  20.234  0.00  0.00    +0.000 NA
BRANCH  22  25
ATOM     25  C   UNL     1       2.611   6.059  19.558  0.00  0.00    +0.000 A 
ATOM     26  C   UNL     1       1.778   5.056  20.087  0.00  0.00    +0.000 A 
ATOM     27  C   UNL     1       2.243   3.754  20.276  0.00  0.00    +0.000 A 
ATOM     28  C   UNL     1       3.550   3.426  19.926  0.00  0.00    +0.000 A 
ATOM     29  C   UNL     1       4.402   4.395  19.398  0.00  0.00    +0.000 A 
ATOM     30  C   UNL     1       3.934   5.701  19.230  0.00  0.00    +0.000 A 
BRANCH  29  31
ATOM     31  O   UNL     1       5.659   3.953  19.088  0.00  0.00    +0.000 OA
ATOM     32  C   UNL     1       6.332   4.628  18.031  0.00  0.00    +0.000 C 
ENDBRANCH  29  31
ENDBRANCH  22  25
ENDBRANCH  18  19
ENDBRANCH  12  17
TORSDOF 6
ENDMDL
