MODEL 1
REMARK VINA RESULT:      -6.4      0.000      0.000
REMARK  Name = 
REMARK  2 active torsions:
REMARK  status: ('A' for Active; 'I' for Inactive)
REMARK    1  A    between atoms: N_1  and  C_2
REMARK    2  A    between atoms: C_6  and  C_7
REMARK                            x       y       z     vdW  Elec       q    Type
REMARK                         _______ _______ _______ _____ _____    ______ ____
ROOT
ATOM      1  C   UNL     1       6.311   3.476  12.472  0.00  0.00    +0.000 A 
ATOM      2  C   UNL     1       7.342   4.209  11.891  0.00  0.00    +0.000 A 
ATOM      3  C   UNL     1       7.964   5.205  12.631  0.00  0.00    +0.000 A 
ATOM      4  N   UNL     1       7.654   5.500  13.914  0.00  0.00    +0.000 NA
ATOM      5  C   UNL     1       6.700   4.711  14.484  0.00  0.00    +0.000 A 
ATOM      6  C   UNL     1       6.026   3.695  13.815  0.00  0.00    +0.000 A 
ENDROOT
BRANCH   5   7
ATOM      7  C   UNL     1       6.373   4.986  15.919  0.00  0.00    +0.000 C 
ATOM      8  O   UNL     1       7.265   5.348  16.677  0.00  0.00    +0.000 OA
ATOM      9  N   UNL     1       5.053   4.749  16.229  0.00  0.00    +0.000 N 
ATOM     10  C   UNL     1       4.569   4.899  17.494  0.00  0.00    +0.000 A 
ATOM     11  N   UNL     1       5.147   5.424  18.544  0.00  0.00    +0.000 NA
ATOM     12  C   UNL     1       4.307   5.322  19.632  0.00  0.00    +0.000 A 
ATOM     13  C   UNL     1       3.100   4.700  19.392  0.00  0.00    +0.000 A 
ATOM     14  S   UNL     1       2.990   4.288  17.728  0.00  0.00    +0.000 S 
ATOM     15  H   UNL     1       4.448   4.379  15.507  0.00  0.00    +0.000 HD
ENDBRANCH   5   7
BRANCH   1  16
ATOM     16  N   UNL     1       5.740   2.391  11.798  0.00  0.00    +0.000 N 
ATOM     17  H   UNL     1       6.403   1.683  11.495  0.00  0.00    +0.000 HD
ATOM     18  H   UNL     1       5.097   2.653  11.055  0.00  0.00    +0.000 HD
ENDBRANCH   1  16
TORSDOF 2
ENDMDL
MODEL 2
REMARK VINA RESULT:      -6.0      2.752      6.697
REMARK  Name = 
REMARK  2 active torsions:
REMARK  status: ('A' for Active; 'I' for Inactive)
REMARK    1  A    between atoms: N_1  and  C_2
REMARK    2  A    between atoms: C_6  and  C_7
REMARK                            x       y       z     vdW  Elec       q    Type
REMARK                         _______ _______ _______ _____ _____    ______ ____
ROOT
ATOM      1  C   UNL     1       1.845   2.883  20.893  0.00  0.00    +0.000 A 
ATOM      2  C   UNL     1       0.772   2.718  20.023  0.00  0.00    +0.000 A 
ATOM      3  C   UNL     1       0.952   2.976  18.670  0.00  0.00    +0.000 A 
ATOM      4  N   UNL     1       2.129   3.355  18.122  0.00  0.00    +0.000 NA
ATOM      5  C   UNL     1       3.182   3.427  18.984  0.00  0.00    +0.000 A 
ATOM      6  C   UNL     1       3.089   3.188  20.352  0.00  0.00    +0.000 A 
ENDROOT
BRANCH   5   7
ATOM      7  C   UNL     1       4.507   3.799  18.394  0.00  0.00    +0.000 C 
ATOM      8  O   UNL     1       5.442   4.061  19.142  0.00  0.00    +0.000 OA
ATOM      9  N   UNL     1       4.495   3.839  17.019  0.00  0.00    +0.000 N 
ATOM     10  C   UNL     1       5.593   4.200  16.296  0.00  0.00    +0.000 A 
ATOM     11  N   UNL     1       6.824   4.388  16.700  0.00  0.00    +0.000 NA
ATOM     12  C   UNL     1       7.601   4.796  15.637  0.00  0.00    +0.000 A 
ATOM     13  C   UNL     1       6.938   4.928  14.435  0.00  0.00    +0.000 A 
ATOM     14  S   UNL     1       5.296   4.461  14.633  0.00  0.00    +0.000 S 
ATOM     15  H   UNL     1       3.621   3.669  16.539  0.00  0.00    +0.000 HD
ENDBRANCH   5   7
BRANCH   1  16
ATOM     16  N   UNL     1       1.732   2.524  22.240  0.00  0.00    +0.000 N 
ATOM     17  H   UNL     1       1.509   1.546  22.401  0.00  0.00    +0.000 HD
ATOM     18  H   UNL     1       1.143   3.144  22.790  0.00  0.00    +0.000 HD
ENDBRANCH   1  16
TORSDOF 2
ENDMDL
MODEL 3
REMARK VINA RESULT:      -6.0      4.001      4.997
REMARK  Name = 
REMARK  2 active torsions:
REMARK  status: ('A' for Active; 'I' for Inactive)
REMARK    1  A    between atoms: N_1  and  C_2
REMARK    2  A    between atoms: C_6  and  C_7
REMARK                            x       y       z     vdW  Elec       q    Type
REMARK                         _______ _______ _______ _____ _____    ______ ____
ROOT
ATOM      1  C   UNL     1       7.719   5.732  19.167  0.00  0.00    +0.000 A 
ATOM      2  C   UNL     1       7.923   6.846  18.357  0.00  0.00    +0.000 A 
ATOM      3  C   UNL     1       6.970   7.169  17.399  0.00  0.00    +0.000 A 
ATOM      4  N   UNL     1       5.821   6.480  17.213  0.00  0.00    +0.000 NA
ATOM      5  C   UNL     1       5.609   5.446  18.075  0.00  0.00    +0.000 A 
ATOM      6  C   UNL     1       6.510   5.055  19.060  0.00  0.00    +0.000 A 
ENDROOT
BRANCH   5   7
ATOM      7  C   UNL     1       4.322   4.698  17.920  0.00  0.00    +0.000 C 
ATOM      8  O   UNL     1       3.865   4.520  16.797  0.00  0.00    +0.000 OA
ATOM      9  N   UNL     1       3.767   4.320  19.121  0.00  0.00    +0.000 N 
ATOM     10  C   UNL     1       2.572   3.668  19.193  0.00  0.00    +0.000 A 
ATOM     11  N   UNL     1       1.855   3.147  18.230  0.00  0.00    +0.000 NA
ATOM     12  C   UNL     1       0.690   2.628  18.752  0.00  0.00    +0.000 A 
ATOM     13  C   UNL     1       0.532   2.779  20.113  0.00  0.00    +0.000 A 
ATOM     14  S   UNL     1       1.924   3.541  20.769  0.00  0.00    +0.000 S 
ATOM     15  H   UNL     1       4.227   4.606  19.975  0.00  0.00    +0.000 HD
ENDBRANCH   5   7
BRANCH   1  16
ATOM     16  N   UNL     1       8.598   5.444  20.216  0.00  0.00    +0.000 N 
ATOM     17  H   UNL     1       8.500   6.046  21.029  0.00  0.00    +0.000 HD
ATOM     18  H   UNL     1       9.569   5.343  19.932  0.00  0.00    +0.000 HD
ENDBRANCH   1  16
TORSDOF 2
ENDMDL
MODEL 4
REMARK VINA RESULT:      -5.9      4.102      5.013
REMARK  Name = 
REMARK  2 active torsions:
REMARK  status: ('A' for Active; 'I' for Inactive)
REMARK    1  A    between atoms: N_1  and  C_2
REMARK    2  A    between atoms: C_6  and  C_7
REMARK                            x       y       z     vdW  Elec       q    Type
REMARK                         _______ _______ _______ _____ _____    ______ ____
ROOT
ATOM      1  C   UNL     1       7.360   7.093  17.864  0.00  0.00    +0.000 A 
ATOM      2  C   UNL     1       8.213   6.713  18.896  0.00  0.00    +0.000 A 
ATOM      3  C   UNL     1       7.859   5.643  19.707  0.00  0.00    +0.000 A 
ATOM      4  N   UNL     1       6.734   4.909  19.544  0.00  0.00    +0.000 NA
ATOM      5  C   UNL     1       5.961   5.251  18.475  0.00  0.00    +0.000 A 
ATOM      6  C   UNL     1       6.240   6.308  17.616  0.00  0.00    +0.000 A 
ENDROOT
BRANCH   5   7
ATOM      7  C   UNL     1       4.734   4.423  18.245  0.00  0.00    +0.000 C 
ATOM      8  O   UNL     1       4.528   3.956  17.130  0.00  0.00    +0.000 OA
ATOM      9  N   UNL     1       3.933   4.319  19.359  0.00  0.00    +0.000 N 
ATOM     10  C   UNL     1       2.749   3.644  19.339  0.00  0.00    +0.000 A 
ATOM     11  N   UNL     1       2.254   2.870  18.406  0.00  0.00    +0.000 NA
ATOM     12  C   UNL     1       1.003   2.434  18.785  0.00  0.00    +0.000 A 
ATOM     13  C   UNL     1       0.556   2.902  20.003  0.00  0.00    +0.000 A 
ATOM     14  S   UNL     1       1.778   3.869  20.727  0.00  0.00    +0.000 S 
ATOM     15  H   UNL     1       4.200   4.826  20.193  0.00  0.00    +0.000 HD
ENDBRANCH   5   7
BRANCH   1  16
ATOM     16  N   UNL     1       7.737   8.090  16.958  0.00  0.00    +0.000 N 
ATOM     17  H   UNL     1       7.691   7.815  15.982  0.00  0.00    +0.000 HD
ATOM     18  H   UNL     1       8.616   8.549  17.184  0.00  0.00    +0.000 HD
ENDBRANCH   1  16
TORSDOF 2
ENDMDL
MODEL 5
REMARK VINA RESULT:      -5.9      2.345      3.282
REMARK  Name = 
REMARK  2 active torsions:
REMARK  status: ('A' for Active; 'I' for Inactive)
REMARK    1  A    between atoms: N_1  and  C_2
REMARK    2  A    between atoms: C_6  and  C_7
REMARK                            x       y       z     vdW  Elec       q    Type
REMARK                         _______ _______ _______ _____ _____    ______ ____
ROOT
ATOM      1  C   UNL     1       6.155   4.242  14.821  0.00  0.00    +0.000 A 
ATOM      2  C   UNL     1       7.263   4.953  15.270  0.00  0.00    +0.000 A 
ATOM      3  C   UNL     1       7.176   5.657  16.464  0.00  0.00    +0.000 A 
ATOM      4  N   UNL     1       6.078   5.677  17.253  0.00  0.00    +0.000 NA
ATOM      5  C   UNL     1       5.038   4.904  16.830  0.00  0.00    +0.000 A 
ATOM      6  C   UNL     1       5.040   4.171  15.648  0.00  0.00    +0.000 A 
ENDROOT
BRANCH   5   7
ATOM      7  C   UNL     1       3.827   4.871  17.711  0.00  0.00    +0.000 C 
ATOM      8  O   UNL     1       2.975   5.745  17.589  0.00  0.00    +0.000 OA
ATOM      9  N   UNL     1       3.843   3.835  18.616  0.00  0.00    +0.000 N 
ATOM     10  C   UNL     1       2.851   3.661  19.535  0.00  0.00    +0.000 A 
ATOM     11  N   UNL     1       1.694   4.266  19.627  0.00  0.00    +0.000 NA
ATOM     12  C   UNL     1       1.024   3.813  20.743  0.00  0.00    +0.000 A 
ATOM     13  C   UNL     1       1.696   2.874  21.496  0.00  0.00    +0.000 A 
ATOM     14  S   UNL     1       3.193   2.500  20.741  0.00  0.00    +0.000 S 
ATOM     15  H   UNL     1       4.656   3.234  18.646  0.00  0.00    +0.000 HD
ENDBRANCH   5   7
BRANCH   1  16
ATOM     16  N   UNL     1       6.241   3.430  13.684  0.00  0.00    +0.000 N 
ATOM     17  H   UNL     1       7.071   2.846  13.643  0.00  0.00    +0.000 HD
ATOM     18  H   UNL     1       6.076   3.920  12.808  0.00  0.00    +0.000 HD
ENDBRANCH   1  16
TORSDOF 2
ENDMDL
MODEL 6
REMARK VINA RESULT:      -5.9      5.638      7.369
REMARK  Name = 
REMARK  2 active torsions:
REMARK  status: ('A' for Active; 'I' for Inactive)
REMARK    1  A    between atoms: N_1  and  C_2
REMARK    2  A    between atoms: C_6  and  C_7
REMARK                            x       y       z     vdW  Elec       q    Type
REMARK                         _______ _______ _______ _____ _____    ______ ____
ROOT
ATOM      1  C   UNL     1       2.458   3.158  21.063  0.00  0.00    +0.000 A 
ATOM      2  C   UNL     1       3.582   2.678  20.397  0.00  0.00    +0.000 A 
ATOM      3  C   UNL     1       4.214   3.490  19.464  0.00  0.00    +0.000 A 
ATOM      4  N   UNL     1       3.824   4.751  19.172  0.00  0.00    +0.000 NA
ATOM      5  C   UNL     1       2.773   5.225  19.900  0.00  0.00    +0.000 A 
ATOM      6  C   UNL     1       2.083   4.479  20.850  0.00  0.00    +0.000 A 
ENDROOT
BRANCH   5   7
ATOM      7  C   UNL     1       2.353   6.636  19.629  0.00  0.00    +0.000 C 
ATOM      8  O   UNL     1       2.620   7.142  18.545  0.00  0.00    +0.000 OA
ATOM      9  N   UNL     1       1.723   7.229  20.699  0.00  0.00    +0.000 N 
ATOM     10  C   UNL     1       1.304   8.526  20.665  0.00  0.00    +0.000 A 
ATOM     11  N   UNL     1       1.247   9.350  19.650  0.00  0.00    +0.000 NA
ATOM     12  C   UNL     1       0.807  10.583  20.081  0.00  0.00    +0.000 A 
ATOM     13  C   UNL     1       0.550  10.680  21.433  0.00  0.00    +0.000 A 
ATOM     14  S   UNL     1       0.807   9.153  22.176  0.00  0.00    +0.000 S 
ATOM     15  H   UNL     1       1.640   6.704  21.560  0.00  0.00    +0.000 HD
ENDBRANCH   5   7
BRANCH   1  16
ATOM     16  N   UNL     1       1.866   2.414  22.090  0.00  0.00    +0.000 N 
ATOM     17  H   UNL     1       2.464   1.700  22.495  0.00  0.00    +0.000 HD
ATOM     18  H   UNL     1       0.942   2.055  21.865  0.00  0.00    +0.000 HD
ENDBRANCH   1  16
TORSDOF 2
ENDMDL
MODEL 7
REMARK VINA RESULT:      -5.9      2.301      5.855
REMARK  Name = 
REMARK  2 active torsions:
REMARK  status: ('A' for Active; 'I' for Inactive)
REMARK    1  A    between atoms: N_1  and  C_2
REMARK    2  A    between atoms: C_6  and  C_7
REMARK                            x       y       z     vdW  Elec       q    Type
REMARK                         _______ _______ _______ _____ _____    ______ ____
ROOT
ATOM      1  C   UNL     1       2.852   2.831  18.288  0.00  0.00    +0.000 A 
ATOM      2  C   UNL     1       1.996   3.824  18.755  0.00  0.00    +0.000 A 
ATOM      3  C   UNL     1       2.276   5.152  18.459  0.00  0.00    +0.000 A 
ATOM      4  N   UNL     1       3.326   5.554  17.709  0.00  0.00    +0.000 NA
ATOM      5  C   UNL     1       4.098   4.556  17.195  0.00  0.00    +0.000 A 
ATOM      6  C   UNL     1       3.891   3.203  17.443  0.00  0.00    +0.000 A 
ENDROOT
BRANCH   5   7
ATOM      7  C   UNL     1       5.240   4.974  16.321  0.00  0.00    +0.000 C 
ATOM      8  O   UNL     1       5.929   5.931  16.654  0.00  0.00    +0.000 OA
ATOM      9  N   UNL     1       5.351   4.218  15.176  0.00  0.00    +0.000 N 
ATOM     10  C   UNL     1       6.301   4.471  14.231  0.00  0.00    +0.000 A 
ATOM     11  N   UNL     1       7.325   5.285  14.285  0.00  0.00    +0.000 NA
ATOM     12  C   UNL     1       7.995   5.263  13.081  0.00  0.00    +0.000 A 
ATOM     13  C   UNL     1       7.454   4.437  12.118  0.00  0.00    +0.000 A 
ATOM     14  S   UNL     1       6.096   3.611  12.769  0.00  0.00    +0.000 S 
ATOM     15  H   UNL     1       4.657   3.503  15.002  0.00  0.00    +0.000 HD
ENDBRANCH   5   7
BRANCH   1  16
ATOM     16  N   UNL     1       2.541   1.479  18.469  0.00  0.00    +0.000 N 
ATOM     17  H   UNL     1       1.725   1.305  19.048  0.00  0.00    +0.000 HD
ATOM     18  H   UNL     1       3.332   0.901  18.743  0.00  0.00    +0.000 HD
ENDBRANCH   1  16
TORSDOF 2
ENDMDL
MODEL 8
REMARK VINA RESULT:      -5.8      2.118      2.926
REMARK  Name = 
REMARK  2 active torsions:
REMARK  status: ('A' for Active; 'I' for Inactive)
REMARK    1  A    between atoms: N_1  and  C_2
REMARK    2  A    between atoms: C_6  and  C_7
REMARK                            x       y       z     vdW  Elec       q    Type
REMARK                         _______ _______ _______ _____ _____    ______ ____
ROOT
ATOM      1  C   UNL     1       6.211   4.063  14.762  0.00  0.00    +0.000 A 
ATOM      2  C   UNL     1       7.143   5.096  14.827  0.00  0.00    +0.000 A 
ATOM      3  C   UNL     1       7.299   5.791  16.019  0.00  0.00    +0.000 A 
ATOM      4  N   UNL     1       6.617   5.511  17.153  0.00  0.00    +0.000 NA
ATOM      5  C   UNL     1       5.774   4.443  17.083  0.00  0.00    +0.000 A 
ATOM      6  C   UNL     1       5.557   3.694  15.931  0.00  0.00    +0.000 A 
ENDROOT
BRANCH   5   7
ATOM      7  C   UNL     1       5.043   4.083  18.339  0.00  0.00    +0.000 C 
ATOM      8  O   UNL     1       5.680   3.902  19.371  0.00  0.00    +0.000 OA
ATOM      9  N   UNL     1       3.684   3.957  18.159  0.00  0.00    +0.000 N 
ATOM     10  C   UNL     1       2.850   3.591  19.173  0.00  0.00    +0.000 A 
ATOM     11  N   UNL     1       3.105   3.473  20.451  0.00  0.00    +0.000 NA
ATOM     12  C   UNL     1       1.977   3.029  21.107  0.00  0.00    +0.000 A 
ATOM     13  C   UNL     1       0.879   2.798  20.306  0.00  0.00    +0.000 A 
ATOM     14  S   UNL     1       1.256   3.217  18.683  0.00  0.00    +0.000 S 
ATOM     15  H   UNL     1       3.311   4.066  17.225  0.00  0.00    +0.000 HD
ENDBRANCH   5   7
BRANCH   1  16
ATOM     16  N   UNL     1       6.109   3.268  13.615  0.00  0.00    +0.000 N 
ATOM     17  H   UNL     1       5.649   3.716  12.828  0.00  0.00    +0.000 HD
ATOM     18  H   UNL     1       5.746   2.334  13.787  0.00  0.00    +0.000 HD
ENDBRANCH   1  16
TORSDOF 2
ENDMDL
MODEL 9
REMARK VINA RESULT:      -5.8      5.026      6.709
REMARK  Name = 
REMARK  2 active torsions:
REMARK  status: ('A' for Active; 'I' for Inactive)
REMARK    1  A    between atoms: N_1  and  C_2
REMARK    2  A    between atoms: C_6  and  C_7
REMARK                            x       y       z     vdW  Elec       q    Type
REMARK                         _______ _______ _______ _____ _____    ______ ____
ROOT
ATOM      1  C   UNL     1       5.155   4.284  19.058  0.00  0.00    +0.000 A 
ATOM      2  C   UNL     1       4.446   3.220  19.610  0.00  0.00    +0.000 A 
ATOM      3  C   UNL     1       3.159   3.438  20.082  0.00  0.00    +0.000 A 
ATOM      4  N   UNL     1       2.519   4.628  20.016  0.00  0.00    +0.000 NA
ATOM      5  C   UNL     1       3.205   5.629  19.395  0.00  0.00    +0.000 A 
ATOM      6  C   UNL     1       4.497   5.498  18.896  0.00  0.00    +0.000 A 
ENDROOT
BRANCH   5   7
ATOM      7  C   UNL     1       2.499   6.943  19.266  0.00  0.00    +0.000 C 
ATOM      8  O   UNL     1       2.461   7.496  18.173  0.00  0.00    +0.000 OA
ATOM      9  N   UNL     1       1.992   7.406  20.459  0.00  0.00    +0.000 N 
ATOM     10  C   UNL     1       1.355   8.606  20.557  0.00  0.00    +0.000 A 
ATOM     11  N   UNL     1       0.961   9.414  19.606  0.00  0.00    +0.000 NA
ATOM     12  C   UNL     1       0.403  10.545  20.162  0.00  0.00    +0.000 A 
ATOM     13  C   UNL     1       0.396  10.585  21.540  0.00  0.00    +0.000 A 
ATOM     14  S   UNL     1       1.055   9.124  22.158  0.00  0.00    +0.000 S 
ATOM     15  H   UNL     1       2.169   6.868  21.298  0.00  0.00    +0.000 HD
ENDBRANCH   5   7
BRANCH   1  16
ATOM     16  N   UNL     1       6.407   4.077  18.470  0.00  0.00    +0.000 N 
ATOM     17  H   UNL     1       7.088   4.809  18.653  0.00  0.00    +0.000 HD
ATOM     18  H   UNL     1       6.370   3.830  17.484  0.00  0.00    +0.000 HD
ENDBRANCH   1  16
TORSDOF 2
ENDMDL
