MODEL 1
REMARK VINA RESULT:      -8.6      0.000      0.000
REMARK  Name = 
REMARK  6 active torsions:
REMARK  status: ('A' for Active; 'I' for Inactive)
REMARK    1  A    between atoms: C_2  and  N_3
REMARK    2  A    between atoms: N_5  and  C_6
REMARK    3  A    between atoms: C_6  and  C_7
REMARK    4  A    between atoms: C_10  and  S_11
REMARK    5  A    between atoms: S_11  and  C_14
REMARK    6  A    between atoms: N_22  and  C_23
REMARK                            x       y       z     vdW  Elec       q    Type
REMARK                         _______ _______ _______ _____ _____    ______ ____
ROOT
ATOM      1  C   UNL     1       2.456   5.037  20.140  0.00  0.00    +0.000 C 
ENDROOT
BRANCH   1   4
ATOM      2  N   UNL     1       4.299   2.513  20.244  0.00  0.00    +0.000 NA
ATOM      3  C   UNL     1       4.396   3.558  19.480  0.00  0.00    +0.000 C 
ATOM      4  N   UNL     1       3.665   4.717  19.414  0.00  0.00    +0.000 N 
ATOM      5  N   UNL     1       5.340   3.486  18.483  0.00  0.00    +0.000 N 
ATOM      6  H   UNL     1       3.686   5.130  18.486  0.00  0.00    +0.000 HD
ATOM      7  H   UNL     1       5.774   2.571  18.410  0.00  0.00    +0.000 HD
BRANCH   5   8
ATOM      8  C   UNL     1       6.134   4.504  17.916  0.00  0.00    +0.000 A 
ATOM      9  C   UNL     1       6.797   5.480  18.662  0.00  0.00    +0.000 A 
ATOM     10  C   UNL     1       7.484   6.481  17.990  0.00  0.00    +0.000 A 
ATOM     11  N   UNL     1       7.543   6.582  16.646  0.00  0.00    +0.000 NA
ATOM     12  C   UNL     1       6.909   5.624  15.941  0.00  0.00    +0.000 A 
ATOM     13  C   UNL     1       6.217   4.575  16.523  0.00  0.00    +0.000 A 
ENDBRANCH   5   8
BRANCH   2  15
ATOM     14  N   UNL     1       2.548   2.345  22.009  0.00  0.00    +0.000 NA
ATOM     15  C   UNL     1       3.368   2.434  21.196  0.00  0.00    +0.000 C 
ENDBRANCH   2  15
ENDBRANCH   1   4
BRANCH   1  16
ATOM     16  C   UNL     1       2.109   6.492  19.912  0.00  0.00    +0.000 A 
ATOM     17  C   UNL     1       1.436   7.222  20.904  0.00  0.00    +0.000 A 
ATOM     18  C   UNL     1       1.098   8.559  20.691  0.00  0.00    +0.000 A 
ATOM     19  C   UNL     1       1.420   9.167  19.475  0.00  0.00    +0.000 A 
ATOM     20  C   UNL     1       2.100   8.457  18.481  0.00  0.00    +0.000 A 
ATOM     21  C   UNL     1       2.431   7.118  18.698  0.00  0.00    +0.000 A 
BRANCH  19  22
ATOM     22  S   UNL     1       1.024  10.883  19.229  0.00  0.00    +0.000 S 
ATOM     23  O   UNL     1       1.107  11.533  20.524  0.00  0.00    +0.000 OA
ATOM     24  O   UNL     1       1.835  11.360  18.120  0.00  0.00    +0.000 OA
BRANCH  22  25
ATOM     25  C   UNL     1      -0.658  10.948  18.710  0.00  0.00    +0.000 A 
ATOM     26  C   UNL     1      -1.141  10.102  17.714  0.00  0.00    +0.000 A 
ATOM     27  C   UNL     1      -2.471  10.225  17.320  0.00  0.00    +0.000 A 
ATOM     28  C   UNL     1      -3.255  11.190  17.936  0.00  0.00    +0.000 A 
ATOM     29  N   UNL     1      -2.800  12.026  18.897  0.00  0.00    +0.000 NA
ATOM     30  C   UNL     1      -1.500  11.898  19.257  0.00  0.00    +0.000 A 
ENDBRANCH  22  25
ENDBRANCH  19  22
ENDBRANCH   1  16
TORSDOF 6
ENDMDL
MODEL 2
REMARK VINA RESULT:      -8.3      0.752      1.418
REMARK  Name = 
REMARK  6 active torsions:
REMARK  status: ('A' for Active; 'I' for Inactive)
REMARK    1  A    between atoms: C_2  and  N_3
REMARK    2  A    between atoms: N_5  and  C_6
REMARK    3  A    between atoms: C_6  and  C_7
REMARK    4  A    between atoms: C_10  and  S_11
REMARK    5  A    between atoms: S_11  and  C_14
REMARK    6  A    between atoms: N_22  and  C_23
REMARK                            x       y       z     vdW  Elec       q    Type
REMARK                         _______ _______ _______ _____ _____    ______ ____
ROOT
ATOM      1  C   UNL     1       2.324   5.490  20.637  0.00  0.00    +0.000 C 
ENDROOT
BRANCH   1   4
ATOM      2  N   UNL     1       3.375   2.617  19.993  0.00  0.00    +0.000 NA
ATOM      3  C   UNL     1       3.605   3.726  19.359  0.00  0.00    +0.000 C 
ATOM      4  N   UNL     1       3.227   5.021  19.611  0.00  0.00    +0.000 N 
ATOM      5  N   UNL     1       4.274   3.606  18.164  0.00  0.00    +0.000 N 
ATOM      6  H   UNL     1       3.177   5.576  18.761  0.00  0.00    +0.000 HD
ATOM      7  H   UNL     1       4.412   2.641  17.880  0.00  0.00    +0.000 HD
BRANCH   5   8
ATOM      8  C   UNL     1       5.190   4.484  17.550  0.00  0.00    +0.000 A 
ATOM      9  C   UNL     1       4.935   5.168  16.360  0.00  0.00    +0.000 A 
ATOM     10  C   UNL     1       5.944   5.944  15.806  0.00  0.00    +0.000 A 
ATOM     11  N   UNL     1       7.175   6.071  16.343  0.00  0.00    +0.000 NA
ATOM     12  C   UNL     1       7.401   5.415  17.499  0.00  0.00    +0.000 A 
ATOM     13  C   UNL     1       6.450   4.636  18.136  0.00  0.00    +0.000 A 
ENDBRANCH   5   8
BRANCH   2  15
ATOM     14  N   UNL     1       2.051   2.555  22.103  0.00  0.00    +0.000 NA
ATOM     15  C   UNL     1       2.667   2.598  21.123  0.00  0.00    +0.000 C 
ENDBRANCH   2  15
ENDBRANCH   1   4
BRANCH   1  16
ATOM     16  C   UNL     1       1.866   6.891  20.295  0.00  0.00    +0.000 A 
ATOM     17  C   UNL     1       2.238   7.479  19.077  0.00  0.00    +0.000 A 
ATOM     18  C   UNL     1       1.833   8.778  18.765  0.00  0.00    +0.000 A 
ATOM     19  C   UNL     1       1.063   9.499  19.682  0.00  0.00    +0.000 A 
ATOM     20  C   UNL     1       0.675   8.923  20.895  0.00  0.00    +0.000 A 
ATOM     21  C   UNL     1       1.087   7.625  21.203  0.00  0.00    +0.000 A 
BRANCH  19  22
ATOM     22  S   UNL     1       0.515  11.136  19.258  0.00  0.00    +0.000 S 
ATOM     23  O   UNL     1       0.367  11.875  20.499  0.00  0.00    +0.000 OA
ATOM     24  O   UNL     1       1.399  11.633  18.216  0.00  0.00    +0.000 OA
BRANCH  22  25
ATOM     25  C   UNL     1      -1.087  10.970  18.547  0.00  0.00    +0.000 A 
ATOM     26  C   UNL     1      -1.341  10.034  17.546  0.00  0.00    +0.000 A 
ATOM     27  C   UNL     1      -2.619   9.973  16.996  0.00  0.00    +0.000 A 
ATOM     28  C   UNL     1      -3.582  10.853  17.468  0.00  0.00    +0.000 A 
ATOM     29  N   UNL     1      -3.352  11.774  18.431  0.00  0.00    +0.000 NA
ATOM     30  C   UNL     1      -2.098  11.825  18.944  0.00  0.00    +0.000 A 
ENDBRANCH  22  25
ENDBRANCH  19  22
ENDBRANCH   1  16
TORSDOF 6
ENDMDL
MODEL 3
REMARK VINA RESULT:      -8.2      0.628      1.309
REMARK  Name = 
REMARK  6 active torsions:
REMARK  status: ('A' for Active; 'I' for Inactive)
REMARK    1  A    between atoms: C_2  and  N_3
REMARK    2  A    between atoms: N_5  and  C_6
REMARK    3  A    between atoms: C_6  and  C_7
REMARK    4  A    between atoms: C_10  and  S_11
REMARK    5  A    between atoms: S_11  and  C_14
REMARK    6  A    between atoms: N_22  and  C_23
REMARK                            x       y       z     vdW  Elec       q    Type
REMARK                         _______ _______ _______ _____ _____    ______ ____
ROOT
ATOM      1  C   UNL     1       2.467   5.146  20.223  0.00  0.00    +0.000 C 
ENDROOT
BRANCH   1   4
ATOM      2  N   UNL     1       4.065   2.467  20.007  0.00  0.00    +0.000 NA
ATOM      3  C   UNL     1       4.143   3.521  19.255  0.00  0.00    +0.000 C 
ATOM      4  N   UNL     1       3.520   4.742  19.319  0.00  0.00    +0.000 N 
ATOM      5  N   UNL     1       4.917   3.396  18.125  0.00  0.00    +0.000 N 
ATOM      6  H   UNL     1       3.440   5.179  18.404  0.00  0.00    +0.000 HD
ATOM      7  H   UNL     1       5.249   2.448  17.973  0.00  0.00    +0.000 HD
BRANCH   5   8
ATOM      8  C   UNL     1       5.708   4.356  17.461  0.00  0.00    +0.000 A 
ATOM      9  C   UNL     1       5.849   4.423  16.074  0.00  0.00    +0.000 A 
ATOM     10  C   UNL     1       6.718   5.361  15.536  0.00  0.00    +0.000 A 
ATOM     11  N   UNL     1       7.456   6.214  16.276  0.00  0.00    +0.000 NA
ATOM     12  C   UNL     1       7.299   6.145  17.613  0.00  0.00    +0.000 A 
ATOM     13  C   UNL     1       6.439   5.258  18.239  0.00  0.00    +0.000 A 
ENDBRANCH   5   8
BRANCH   2  15
ATOM     14  N   UNL     1       2.624   2.428  22.040  0.00  0.00    +0.000 NA
ATOM     15  C   UNL     1       3.283   2.443  21.088  0.00  0.00    +0.000 C 
ENDBRANCH   2  15
ENDBRANCH   1   4
BRANCH   1  16
ATOM     16  C   UNL     1       2.109   6.591  19.957  0.00  0.00    +0.000 A 
ATOM     17  C   UNL     1       1.425   7.341  20.926  0.00  0.00    +0.000 A 
ATOM     18  C   UNL     1       1.076   8.669  20.678  0.00  0.00    +0.000 A 
ATOM     19  C   UNL     1       1.401   9.249  19.448  0.00  0.00    +0.000 A 
ATOM     20  C   UNL     1       2.092   8.520  18.477  0.00  0.00    +0.000 A 
ATOM     21  C   UNL     1       2.434   7.190  18.730  0.00  0.00    +0.000 A 
BRANCH  19  22
ATOM     22  S   UNL     1       0.991  10.955  19.157  0.00  0.00    +0.000 S 
ATOM     23  O   UNL     1       1.059  11.638  20.435  0.00  0.00    +0.000 OA
ATOM     24  O   UNL     1       1.807  11.411  18.042  0.00  0.00    +0.000 OA
BRANCH  22  25
ATOM     25  C   UNL     1      -0.686  10.992  18.624  0.00  0.00    +0.000 A 
ATOM     26  C   UNL     1      -1.605  11.875  19.188  0.00  0.00    +0.000 A 
ATOM     27  C   UNL     1      -2.927  11.834  18.752  0.00  0.00    +0.000 A 
ATOM     28  C   UNL     1      -3.270  10.910  17.776  0.00  0.00    +0.000 A 
ATOM     29  N   UNL     1      -2.395  10.039  17.224  0.00  0.00    +0.000 NA
ATOM     30  C   UNL     1      -1.117  10.087  17.672  0.00  0.00    +0.000 A 
ENDBRANCH  22  25
ENDBRANCH  19  22
ENDBRANCH   1  16
TORSDOF 6
ENDMDL
MODEL 4
REMARK VINA RESULT:      -8.1      1.184      1.548
REMARK  Name = 
REMARK  6 active torsions:
REMARK  status: ('A' for Active; 'I' for Inactive)
REMARK    1  A    between atoms: C_2  and  N_3
REMARK    2  A    between atoms: N_5  and  C_6
REMARK    3  A    between atoms: C_6  and  C_7
REMARK    4  A    between atoms: C_10  and  S_11
REMARK    5  A    between atoms: S_11  and  C_14
REMARK    6  A    between atoms: N_22  and  C_23
REMARK                            x       y       z     vdW  Elec       q    Type
REMARK                         _______ _______ _______ _____ _____    ______ ____
ROOT
ATOM      1  C   UNL     1       2.762   5.364  19.941  0.00  0.00    +0.000 C 
ENDROOT
BRANCH   1   4
ATOM      2  N   UNL     1       2.575   2.744  18.246  0.00  0.00    +0.000 NA
ATOM      3  C   UNL     1       3.275   3.812  18.015  0.00  0.00    +0.000 C 
ATOM      4  N   UNL     1       3.449   4.968  18.733  0.00  0.00    +0.000 N 
ATOM      5  N   UNL     1       3.901   3.864  16.792  0.00  0.00    +0.000 N 
ATOM      6  H   UNL     1       3.679   5.757  18.136  0.00  0.00    +0.000 HD
ATOM      7  H   UNL     1       3.647   3.095  16.180  0.00  0.00    +0.000 HD
BRANCH   5   8
ATOM      8  C   UNL     1       5.131   4.454  16.432  0.00  0.00    +0.000 A 
ATOM      9  C   UNL     1       5.841   5.334  17.250  0.00  0.00    +0.000 A 
ATOM     10  C   UNL     1       7.001   5.916  16.757  0.00  0.00    +0.000 A 
ATOM     11  N   UNL     1       7.485   5.693  15.517  0.00  0.00    +0.000 NA
ATOM     12  C   UNL     1       6.795   4.830  14.746  0.00  0.00    +0.000 A 
ATOM     13  C   UNL     1       5.641   4.186  15.159  0.00  0.00    +0.000 A 
ENDBRANCH   5   8
BRANCH   2  15
ATOM     14  N   UNL     1       1.225   2.479  20.324  0.00  0.00    +0.000 NA
ATOM     15  C   UNL     1       1.859   2.613  19.364  0.00  0.00    +0.000 C 
ENDBRANCH   2  15
ENDBRANCH   1   4
BRANCH   1  16
ATOM     16  C   UNL     1       2.237   6.773  19.777  0.00  0.00    +0.000 A 
ATOM     17  C   UNL     1       2.447   7.471  18.578  0.00  0.00    +0.000 A 
ATOM     18  C   UNL     1       1.981   8.778  18.428  0.00  0.00    +0.000 A 
ATOM     19  C   UNL     1       1.313   9.397  19.488  0.00  0.00    +0.000 A 
ATOM     20  C   UNL     1       1.086   8.712  20.685  0.00  0.00    +0.000 A 
ATOM     21  C   UNL     1       1.559   7.407  20.830  0.00  0.00    +0.000 A 
BRANCH  19  22
ATOM     22  S   UNL     1       0.684  11.047  19.274  0.00  0.00    +0.000 S 
ATOM     23  O   UNL     1       0.582  11.643  20.593  0.00  0.00    +0.000 OA
ATOM     24  O   UNL     1       1.488  11.686  18.245  0.00  0.00    +0.000 OA
BRANCH  22  25
ATOM     25  C   UNL     1      -0.950  10.891  18.636  0.00  0.00    +0.000 A 
ATOM     26  C   UNL     1      -1.249   9.975  17.630  0.00  0.00    +0.000 A 
ATOM     27  C   UNL     1      -2.552   9.922  17.140  0.00  0.00    +0.000 A 
ATOM     28  C   UNL     1      -3.493  10.790  17.674  0.00  0.00    +0.000 A 
ATOM     29  N   UNL     1      -3.218  11.692  18.644  0.00  0.00    +0.000 NA
ATOM     30  C   UNL     1      -1.942  11.735  19.098  0.00  0.00    +0.000 A 
ENDBRANCH  22  25
ENDBRANCH  19  22
ENDBRANCH   1  16
TORSDOF 6
ENDMDL
MODEL 5
REMARK VINA RESULT:      -8.1      1.234      1.544
REMARK  Name = 
REMARK  6 active torsions:
REMARK  status: ('A' for Active; 'I' for Inactive)
REMARK    1  A    between atoms: C_2  and  N_3
REMARK    2  A    between atoms: N_5  and  C_6
REMARK    3  A    between atoms: C_6  and  C_7
REMARK    4  A    between atoms: C_10  and  S_11
REMARK    5  A    between atoms: S_11  and  C_14
REMARK    6  A    between atoms: N_22  and  C_23
REMARK                            x       y       z     vdW  Elec       q    Type
REMARK                         _______ _______ _______ _____ _____    ______ ____
ROOT
ATOM      1  C   UNL     1       2.702   5.488  20.100  0.00  0.00    +0.000 C 
ENDROOT
BRANCH   1   4
ATOM      2  N   UNL     1       2.332   2.808  18.533  0.00  0.00    +0.000 NA
ATOM      3  C   UNL     1       3.069   3.832  18.228  0.00  0.00    +0.000 C 
ATOM      4  N   UNL     1       3.322   5.008  18.886  0.00  0.00    +0.000 N 
ATOM      5  N   UNL     1       3.648   3.802  16.981  0.00  0.00    +0.000 N 
ATOM      6  H   UNL     1       3.564   5.760  18.245  0.00  0.00    +0.000 HD
ATOM      7  H   UNL     1       3.336   3.019  16.415  0.00  0.00    +0.000 HD
BRANCH   5   8
ATOM      8  C   UNL     1       4.887   4.318  16.549  0.00  0.00    +0.000 A 
ATOM      9  C   UNL     1       5.150   4.714  15.236  0.00  0.00    +0.000 A 
ATOM     10  C   UNL     1       6.432   5.131  14.909  0.00  0.00    +0.000 A 
ATOM     11  N   UNL     1       7.458   5.167  15.784  0.00  0.00    +0.000 NA
ATOM     12  C   UNL     1       7.184   4.794  17.050  0.00  0.00    +0.000 A 
ATOM     13  C   UNL     1       5.932   4.384  17.475  0.00  0.00    +0.000 A 
ENDBRANCH   5   8
BRANCH   2  15
ATOM     14  N   UNL     1       1.083   2.695  20.687  0.00  0.00    +0.000 NA
ATOM     15  C   UNL     1       1.656   2.759  19.682  0.00  0.00    +0.000 C 
ENDBRANCH   2  15
ENDBRANCH   1   4
BRANCH   1  16
ATOM     16  C   UNL     1       2.172   6.886  19.870  0.00  0.00    +0.000 A 
ATOM     17  C   UNL     1       1.458   7.548  20.881  0.00  0.00    +0.000 A 
ATOM     18  C   UNL     1       0.952   8.830  20.667  0.00  0.00    +0.000 A 
ATOM     19  C   UNL     1       1.147   9.451  19.430  0.00  0.00    +0.000 A 
ATOM     20  C   UNL     1       1.865   8.810  18.417  0.00  0.00    +0.000 A 
ATOM     21  C   UNL     1       2.365   7.525  18.635  0.00  0.00    +0.000 A 
BRANCH  19  22
ATOM     22  S   UNL     1       0.535  11.102  19.180  0.00  0.00    +0.000 S 
ATOM     23  O   UNL     1       0.358  11.697  20.492  0.00  0.00    +0.000 OA
ATOM     24  O   UNL     1       1.400  11.740  18.201  0.00  0.00    +0.000 OA
BRANCH  22  25
ATOM     25  C   UNL     1      -1.058  10.950  18.447  0.00  0.00    +0.000 A 
ATOM     26  C   UNL     1      -1.311  10.006  17.454  0.00  0.00    +0.000 A 
ATOM     27  C   UNL     1      -2.581   9.957  16.886  0.00  0.00    +0.000 A 
ATOM     28  C   UNL     1      -3.538  10.856  17.333  0.00  0.00    +0.000 A 
ATOM     29  N   UNL     1      -3.309  11.785  18.288  0.00  0.00    +0.000 NA
ATOM     30  C   UNL     1      -2.062  11.824  18.819  0.00  0.00    +0.000 A 
ENDBRANCH  22  25
ENDBRANCH  19  22
ENDBRANCH   1  16
TORSDOF 6
ENDMDL
MODEL 6
REMARK VINA RESULT:      -8.0      1.666      2.416
REMARK  Name = 
REMARK  6 active torsions:
REMARK  status: ('A' for Active; 'I' for Inactive)
REMARK    1  A    between atoms: C_2  and  N_3
REMARK    2  A    between atoms: N_5  and  C_6
REMARK    3  A    between atoms: C_6  and  C_7
REMARK    4  A    between atoms: C_10  and  S_11
REMARK    5  A    between atoms: S_11  and  C_14
REMARK    6  A    between atoms: N_22  and  C_23
REMARK                            x       y       z     vdW  Elec       q    Type
REMARK                         _______ _______ _______ _____ _____    ______ ____
ROOT
ATOM      1  C   UNL     1       2.636   5.346  20.342  0.00  0.00    +0.000 C 
ENDROOT
BRANCH   1   4
ATOM      2  N   UNL     1       3.766   2.466  19.885  0.00  0.00    +0.000 NA
ATOM      3  C   UNL     1       3.917   3.524  19.148  0.00  0.00    +0.000 C 
ATOM      4  N   UNL     1       3.502   4.821  19.310  0.00  0.00    +0.000 N 
ATOM      5  N   UNL     1       4.527   3.325  17.932  0.00  0.00    +0.000 N 
ATOM      6  H   UNL     1       3.386   5.299  18.420  0.00  0.00    +0.000 HD
ATOM      7  H   UNL     1       4.689   2.344  17.723  0.00  0.00    +0.000 HD
BRANCH   5   8
ATOM      8  C   UNL     1       5.375   4.178  17.196  0.00  0.00    +0.000 A 
ATOM      9  C   UNL     1       5.198   4.472  15.843  0.00  0.00    +0.000 A 
ATOM     10  C   UNL     1       6.143   5.262  15.203  0.00  0.00    +0.000 A 
ATOM     11  N   UNL     1       7.242   5.760  15.807  0.00  0.00    +0.000 NA
ATOM     12  C   UNL     1       7.390   5.477  17.117  0.00  0.00    +0.000 A 
ATOM     13  C   UNL     1       6.490   4.717  17.844  0.00  0.00    +0.000 A 
ENDBRANCH   5   8
BRANCH   2  15
ATOM     14  N   UNL     1       2.539   2.552  22.052  0.00  0.00    +0.000 NA
ATOM     15  C   UNL     1       3.119   2.520  21.050  0.00  0.00    +0.000 C 
ENDBRANCH   2  15
ENDBRANCH   1   4
BRANCH   1  16
ATOM     16  C   UNL     1       2.162   6.725  19.940  0.00  0.00    +0.000 A 
ATOM     17  C   UNL     1       2.426   7.217  18.653  0.00  0.00    +0.000 A 
ATOM     18  C   UNL     1       2.006   8.496  18.285  0.00  0.00    +0.000 A 
ATOM     19  C   UNL     1       1.332   9.295  19.213  0.00  0.00    +0.000 A 
ATOM     20  C   UNL     1       1.052   8.816  20.495  0.00  0.00    +0.000 A 
ATOM     21  C   UNL     1       1.479   7.537  20.859  0.00  0.00    +0.000 A 
BRANCH  19  22
ATOM     22  S   UNL     1       0.763  10.906  18.721  0.00  0.00    +0.000 S 
ATOM     23  O   UNL     1       1.926  11.659  18.289  0.00  0.00    +0.000 OA
ATOM     24  O   UNL     1      -0.358  10.712  17.815  0.00  0.00    +0.000 OA
BRANCH  22  25
ATOM     25  C   UNL     1       0.134  11.688  20.168  0.00  0.00    +0.000 A 
ATOM     26  C   UNL     1      -1.176  11.476  20.594  0.00  0.00    +0.000 A 
ATOM     27  C   UNL     1      -1.629  12.150  21.725  0.00  0.00    +0.000 A 
ATOM     28  C   UNL     1      -0.754  13.007  22.376  0.00  0.00    +0.000 A 
ATOM     29  N   UNL     1       0.517  13.233  21.972  0.00  0.00    +0.000 NA
ATOM     30  C   UNL     1       0.933  12.577  20.862  0.00  0.00    +0.000 A 
ENDBRANCH  22  25
ENDBRANCH  19  22
ENDBRANCH   1  16
TORSDOF 6
ENDMDL
MODEL 7
REMARK VINA RESULT:      -8.0      0.879      1.463
REMARK  Name = 
REMARK  6 active torsions:
REMARK  status: ('A' for Active; 'I' for Inactive)
REMARK    1  A    between atoms: C_2  and  N_3
REMARK    2  A    between atoms: N_5  and  C_6
REMARK    3  A    between atoms: C_6  and  C_7
REMARK    4  A    between atoms: C_10  and  S_11
REMARK    5  A    between atoms: S_11  and  C_14
REMARK    6  A    between atoms: N_22  and  C_23
REMARK                            x       y       z     vdW  Elec       q    Type
REMARK                         _______ _______ _______ _____ _____    ______ ____
ROOT
ATOM      1  C   UNL     1       2.269   5.451  20.585  0.00  0.00    +0.000 C 
ENDROOT
BRANCH   1   4
ATOM      2  N   UNL     1       3.463   2.611  20.053  0.00  0.00    +0.000 NA
ATOM      3  C   UNL     1       3.674   3.715  19.404  0.00  0.00    +0.000 C 
ATOM      4  N   UNL     1       3.233   4.998  19.608  0.00  0.00    +0.000 N 
ATOM      5  N   UNL     1       4.398   3.597  18.241  0.00  0.00    +0.000 N 
ATOM      6  H   UNL     1       3.197   5.531  18.744  0.00  0.00    +0.000 HD
ATOM      7  H   UNL     1       4.588   2.632  17.986  0.00  0.00    +0.000 HD
BRANCH   5   8
ATOM      8  C   UNL     1       5.303   4.499  17.645  0.00  0.00    +0.000 A 
ATOM      9  C   UNL     1       6.531   4.853  18.206  0.00  0.00    +0.000 A 
ATOM     10  C   UNL     1       7.305   5.813  17.568  0.00  0.00    +0.000 A 
ATOM     11  N   UNL     1       6.935   6.445  16.435  0.00  0.00    +0.000 NA
ATOM     12  C   UNL     1       5.753   6.082  15.900  0.00  0.00    +0.000 A 
ATOM     13  C   UNL     1       4.925   5.119  16.452  0.00  0.00    +0.000 A 
ENDBRANCH   5   8
BRANCH   2  15
ATOM     14  N   UNL     1       2.070   2.548  22.119  0.00  0.00    +0.000 NA
ATOM     15  C   UNL     1       2.709   2.587  21.153  0.00  0.00    +0.000 C 
ENDBRANCH   2  15
ENDBRANCH   1   4
BRANCH   1  16
ATOM     16  C   UNL     1       1.855   6.869  20.255  0.00  0.00    +0.000 A 
ATOM     17  C   UNL     1       2.221   7.446  19.029  0.00  0.00    +0.000 A 
ATOM     18  C   UNL     1       1.857   8.759  18.729  0.00  0.00    +0.000 A 
ATOM     19  C   UNL     1       1.137   9.506  19.665  0.00  0.00    +0.000 A 
ATOM     20  C   UNL     1       0.755   8.943  20.886  0.00  0.00    +0.000 A 
ATOM     21  C   UNL     1       1.126   7.630  21.182  0.00  0.00    +0.000 A 
BRANCH  19  22
ATOM     22  S   UNL     1       0.641  11.164  19.256  0.00  0.00    +0.000 S 
ATOM     23  O   UNL     1       0.570  11.910  20.499  0.00  0.00    +0.000 OA
ATOM     24  O   UNL     1       1.504  11.622  18.180  0.00  0.00    +0.000 OA
BRANCH  22  25
ATOM     25  C   UNL     1      -0.993  11.062  18.606  0.00  0.00    +0.000 A 
ATOM     26  C   UNL     1      -2.013  11.884  19.081  0.00  0.00    +0.000 A 
ATOM     27  C   UNL     1      -3.293  11.732  18.553  0.00  0.00    +0.000 A 
ATOM     28  C   UNL     1      -3.495  10.765  17.580  0.00  0.00    +0.000 A 
ATOM     29  N   UNL     1      -2.520   9.952  17.115  0.00  0.00    +0.000 NA
ATOM     30  C   UNL     1      -1.284  10.107  17.650  0.00  0.00    +0.000 A 
ENDBRANCH  22  25
ENDBRANCH  19  22
ENDBRANCH   1  16
TORSDOF 6
ENDMDL
MODEL 8
REMARK VINA RESULT:      -7.9      1.567      4.039
REMARK  Name = 
REMARK  6 active torsions:
REMARK  status: ('A' for Active; 'I' for Inactive)
REMARK    1  A    between atoms: C_2  and  N_3
REMARK    2  A    between atoms: N_5  and  C_6
REMARK    3  A    between atoms: C_6  and  C_7
REMARK    4  A    between atoms: C_10  and  S_11
REMARK    5  A    between atoms: S_11  and  C_14
REMARK    6  A    between atoms: N_22  and  C_23
REMARK                            x       y       z     vdW  Elec       q    Type
REMARK                         _______ _______ _______ _____ _____    ______ ____
ROOT
ATOM      1  C   UNL     1       4.151   6.681  17.429  0.00  0.00    +0.000 C 
ENDROOT
BRANCH   1   4
ATOM      2  N   UNL     1       5.238   3.902  16.493  0.00  0.00    +0.000 NA
ATOM      3  C   UNL     1       4.535   4.186  17.547  0.00  0.00    +0.000 C 
ATOM      4  N   UNL     1       3.981   5.360  17.991  0.00  0.00    +0.000 N 
ATOM      5  N   UNL     1       4.371   3.163  18.450  0.00  0.00    +0.000 N 
ATOM      6  H   UNL     1       3.876   5.374  19.002  0.00  0.00    +0.000 HD
ATOM      7  H   UNL     1       4.915   2.337  18.221  0.00  0.00    +0.000 HD
BRANCH   5   8
ATOM      8  C   UNL     1       3.280   2.871  19.295  0.00  0.00    +0.000 A 
ATOM      9  C   UNL     1       1.975   2.672  18.840  0.00  0.00    +0.000 A 
ATOM     10  C   UNL     1       0.967   2.470  19.772  0.00  0.00    +0.000 A 
ATOM     11  N   UNL     1       1.165   2.467  21.106  0.00  0.00    +0.000 NA
ATOM     12  C   UNL     1       2.432   2.647  21.528  0.00  0.00    +0.000 A 
ATOM     13  C   UNL     1       3.506   2.834  20.673  0.00  0.00    +0.000 A 
ENDBRANCH   5   8
BRANCH   2  15
ATOM     14  N   UNL     1       5.766   5.656  14.803  0.00  0.00    +0.000 NA
ATOM     15  C   UNL     1       5.532   4.834  15.584  0.00  0.00    +0.000 C 
ENDBRANCH   2  15
ENDBRANCH   1   4
BRANCH   1  16
ATOM     16  C   UNL     1       3.142   7.620  18.052  0.00  0.00    +0.000 A 
ATOM     17  C   UNL     1       2.518   7.286  19.263  0.00  0.00    +0.000 A 
ATOM     18  C   UNL     1       1.573   8.142  19.832  0.00  0.00    +0.000 A 
ATOM     19  C   UNL     1       1.240   9.332  19.181  0.00  0.00    +0.000 A 
ATOM     20  C   UNL     1       1.861   9.685  17.980  0.00  0.00    +0.000 A 
ATOM     21  C   UNL     1       2.801   8.822  17.413  0.00  0.00    +0.000 A 
BRANCH  19  22
ATOM     22  S   UNL     1       0.068  10.436  19.935  0.00  0.00    +0.000 S 
ATOM     23  O   UNL     1      -0.451   9.772  21.116  0.00  0.00    +0.000 OA
ATOM     24  O   UNL     1       0.711  11.736  20.052  0.00  0.00    +0.000 OA
BRANCH  22  25
ATOM     25  C   UNL     1      -1.267  10.616  18.800  0.00  0.00    +0.000 A 
ATOM     26  C   UNL     1      -1.339   9.845  17.641  0.00  0.00    +0.000 A 
ATOM     27  C   UNL     1      -2.399  10.057  16.763  0.00  0.00    +0.000 A 
ATOM     28  C   UNL     1      -3.334  11.032  17.081  0.00  0.00    +0.000 A 
ATOM     29  N   UNL     1      -3.274  11.796  18.195  0.00  0.00    +0.000 NA
ATOM     30  C   UNL     1      -2.228  11.582  19.030  0.00  0.00    +0.000 A 
ENDBRANCH  22  25
ENDBRANCH  19  22
ENDBRANCH   1  16
TORSDOF 6
ENDMDL
MODEL 9
REMARK VINA RESULT:      -7.9      1.119      1.512
REMARK  Name = 
REMARK  6 active torsions:
REMARK  status: ('A' for Active; 'I' for Inactive)
REMARK    1  A    between atoms: C_2  and  N_3
REMARK    2  A    between atoms: N_5  and  C_6
REMARK    3  A    between atoms: C_6  and  C_7
REMARK    4  A    between atoms: C_10  and  S_11
REMARK    5  A    between atoms: S_11  and  C_14
REMARK    6  A    between atoms: N_22  and  C_23
REMARK                            x       y       z     vdW  Elec       q    Type
REMARK                         _______ _______ _______ _____ _____    ______ ____
ROOT
ATOM      1  C   UNL     1       2.581   5.566  20.015  0.00  0.00    +0.000 C 
ENDROOT
BRANCH   1   4
ATOM      2  N   UNL     1       3.985   3.107  18.688  0.00  0.00    +0.000 NA
ATOM      3  C   UNL     1       4.340   4.355  18.664  0.00  0.00    +0.000 C 
ATOM      4  N   UNL     1       3.811   5.471  19.261  0.00  0.00    +0.000 N 
ATOM      5  N   UNL     1       5.385   4.665  17.826  0.00  0.00    +0.000 N 
ATOM      6  H   UNL     1       4.017   6.318  18.739  0.00  0.00    +0.000 HD
ATOM      7  H   UNL     1       5.678   3.882  17.249  0.00  0.00    +0.000 HD
BRANCH   5   8
ATOM      8  C   UNL     1       6.393   5.641  17.961  0.00  0.00    +0.000 A 
ATOM      9  C   UNL     1       7.408   5.583  18.917  0.00  0.00    +0.000 A 
ATOM     10  C   UNL     1       8.300   6.643  19.010  0.00  0.00    +0.000 A 
ATOM     11  N   UNL     1       8.240   7.746  18.235  0.00  0.00    +0.000 NA
ATOM     12  C   UNL     1       7.261   7.780  17.309  0.00  0.00    +0.000 A 
ATOM     13  C   UNL     1       6.341   6.762  17.128  0.00  0.00    +0.000 A 
ENDBRANCH   5   8
BRANCH   2  15
ATOM     14  N   UNL     1       2.038   2.323  20.032  0.00  0.00    +0.000 NA
ATOM     15  C   UNL     1       2.935   2.699  19.403  0.00  0.00    +0.000 C 
ENDBRANCH   2  15
ENDBRANCH   1   4
BRANCH   1  16
ATOM     16  C   UNL     1       2.020   6.964  19.880  0.00  0.00    +0.000 A 
ATOM     17  C   UNL     1       2.231   7.701  18.704  0.00  0.00    +0.000 A 
ATOM     18  C   UNL     1       1.732   8.999  18.583  0.00  0.00    +0.000 A 
ATOM     19  C   UNL     1       1.030   9.570  19.648  0.00  0.00    +0.000 A 
ATOM     20  C   UNL     1       0.802   8.846  20.822  0.00  0.00    +0.000 A 
ATOM     21  C   UNL     1       1.308   7.550  20.939  0.00  0.00    +0.000 A 
BRANCH  19  22
ATOM     22  S   UNL     1       0.360  11.207  19.469  0.00  0.00    +0.000 S 
ATOM     23  O   UNL     1       0.183  11.748  20.804  0.00  0.00    +0.000 OA
ATOM     24  O   UNL     1       1.188  11.910  18.502  0.00  0.00    +0.000 OA
BRANCH  22  25
ATOM     25  C   UNL     1      -1.239  11.029  18.754  0.00  0.00    +0.000 A 
ATOM     26  C   UNL     1      -1.472  10.123  17.721  0.00  0.00    +0.000 A 
ATOM     27  C   UNL     1      -2.750  10.052  17.170  0.00  0.00    +0.000 A 
ATOM     28  C   UNL     1      -3.732  10.892  17.674  0.00  0.00    +0.000 A 
ATOM     29  N   UNL     1      -3.521  11.784  18.668  0.00  0.00    +0.000 NA
ATOM     30  C   UNL     1      -2.269  11.845  19.182  0.00  0.00    +0.000 A 
ENDBRANCH  22  25
ENDBRANCH  19  22
ENDBRANCH   1  16
TORSDOF 6
ENDMDL
