MODEL 1
REMARK VINA RESULT:      -7.6      0.000      0.000
REMARK  Name = 
REMARK  5 active torsions:
REMARK  status: ('A' for Active; 'I' for Inactive)
REMARK    1  A    between atoms: C_1  and  C_2
REMARK    2  A    between atoms: C_2  and  C_3
REMARK    3  A    between atoms: C_3  and  C_4
REMARK    4  A    between atoms: C_13  and  C_14
REMARK    5  A    between atoms: N_17  and  C_18
REMARK                            x       y       z     vdW  Elec       q    Type
REMARK                         _______ _______ _______ _____ _____    ______ ____
ROOT
ATOM      1  C   UNL     1       5.468   2.918  11.914  0.00  0.00    +0.000 C 
ATOM      2  O   UNL     1       6.602   2.446  11.966  0.00  0.00    +0.000 OA
ATOM      3  N   UNL     1       4.926   3.800  12.824  0.00  0.00    +0.000 N 
ATOM      4  C   UNL     1       5.666   4.256  13.921  0.00  0.00    +0.000 A 
ATOM      5  C   UNL     1       6.940   4.787  13.729  0.00  0.00    +0.000 A 
ATOM      6  C   UNL     1       7.692   5.201  14.824  0.00  0.00    +0.000 A 
ATOM      7  C   UNL     1       7.103   4.980  16.065  0.00  0.00    +0.000 A 
ATOM      8  N   UNL     1       7.574   5.175  17.338  0.00  0.00    +0.000 N 
ATOM      9  C   UNL     1       6.649   4.752  18.252  0.00  0.00    +0.000 A 
ATOM     10  C   UNL     1       5.532   4.299  17.570  0.00  0.00    +0.000 A 
ATOM     11  C   UNL     1       5.812   4.460  16.184  0.00  0.00    +0.000 A 
ATOM     12  N   UNL     1       5.049   4.151  15.110  0.00  0.00    +0.000 NA
ATOM     13  H   UNL     1       3.940   3.703  13.022  0.00  0.00    +0.000 HD
ATOM     14  H   UNL     1       8.491   5.533  17.564  0.00  0.00    +0.000 HD
ENDROOT
BRANCH  10  15
ATOM     15  C   UNL     1       4.280   3.717  18.168  0.00  0.00    +0.000 C 
ATOM     16  C   UNL     1       3.164   4.761  18.280  0.00  0.00    +0.000 C 
ATOM     17  C   UNL     1       1.919   4.169  18.938  0.00  0.00    +0.000 C 
ATOM     18  N   UNL     1       2.231   3.603  20.258  0.00  0.00    +0.000 NA
ATOM     19  C   UNL     1       1.017   3.083  20.889  0.00  0.00    +0.000 C 
ATOM     20  C   UNL     1       3.249   2.548  20.158  0.00  0.00    +0.000 C 
ATOM     21  C   UNL     1       4.542   3.083  19.544  0.00  0.00    +0.000 C 
ENDBRANCH  10  15
BRANCH   1  22
ATOM     22  C   UNL     1       4.530   2.560  10.781  0.00  0.00    +0.000 C 
BRANCH  22  24
ATOM     23  C   UNL     1       2.991   4.199   9.610  0.00  0.00    +0.000 C 
ATOM     24  C   UNL     1       3.229   3.354  10.856  0.00  0.00    +0.000 C 
ENDBRANCH  22  24
ENDBRANCH   1  22
TORSDOF 3
ENDMDL
MODEL 2
REMARK VINA RESULT:      -7.3      0.912      1.345
REMARK  Name = 
REMARK  5 active torsions:
REMARK  status: ('A' for Active; 'I' for Inactive)
REMARK    1  A    between atoms: C_1  and  C_2
REMARK    2  A    between atoms: C_2  and  C_3
REMARK    3  A    between atoms: C_3  and  C_4
REMARK    4  A    between atoms: C_13  and  C_14
REMARK    5  A    between atoms: N_17  and  C_18
REMARK                            x       y       z     vdW  Elec       q    Type
REMARK                         _______ _______ _______ _____ _____    ______ ____
ROOT
ATOM      1  C   UNL     1       5.204   3.017  11.977  0.00  0.00    +0.000 C 
ATOM      2  O   UNL     1       6.289   2.440  11.986  0.00  0.00    +0.000 OA
ATOM      3  N   UNL     1       4.783   3.944  12.908  0.00  0.00    +0.000 N 
ATOM      4  C   UNL     1       5.605   4.324  13.975  0.00  0.00    +0.000 A 
ATOM      5  C   UNL     1       6.916   4.733  13.733  0.00  0.00    +0.000 A 
ATOM      6  C   UNL     1       7.744   5.069  14.799  0.00  0.00    +0.000 A 
ATOM      7  C   UNL     1       7.186   4.901  16.062  0.00  0.00    +0.000 A 
ATOM      8  N   UNL     1       7.722   5.046  17.316  0.00  0.00    +0.000 N 
ATOM      9  C   UNL     1       6.796   4.710  18.265  0.00  0.00    +0.000 A 
ATOM     10  C   UNL     1       5.616   4.367  17.627  0.00  0.00    +0.000 A 
ATOM     11  C   UNL     1       5.857   4.506  16.231  0.00  0.00    +0.000 A 
ATOM     12  N   UNL     1       5.027   4.274  15.187  0.00  0.00    +0.000 NA
ATOM     13  H   UNL     1       3.801   3.940  13.143  0.00  0.00    +0.000 HD
ATOM     14  H   UNL     1       8.677   5.315  17.505  0.00  0.00    +0.000 HD
ENDROOT
BRANCH  10  15
ATOM     15  C   UNL     1       4.339   3.904  18.273  0.00  0.00    +0.000 C 
ATOM     16  C   UNL     1       4.058   2.425  17.982  0.00  0.00    +0.000 C 
ATOM     17  C   UNL     1       2.732   1.985  18.599  0.00  0.00    +0.000 C 
ATOM     18  N   UNL     1       1.620   2.823  18.129  0.00  0.00    +0.000 NA
ATOM     19  C   UNL     1       0.354   2.355  18.696  0.00  0.00    +0.000 C 
ATOM     20  C   UNL     1       1.840   4.236  18.464  0.00  0.00    +0.000 C 
ATOM     21  C   UNL     1       3.135   4.757  17.842  0.00  0.00    +0.000 C 
ENDBRANCH  10  15
BRANCH   1  22
ATOM     22  C   UNL     1       4.194   2.753  10.882  0.00  0.00    +0.000 C 
BRANCH  22  24
ATOM     23  C   UNL     1       2.908   4.105   9.165  0.00  0.00    +0.000 C 
ATOM     24  C   UNL     1       3.307   3.970  10.630  0.00  0.00    +0.000 C 
ENDBRANCH  22  24
ENDBRANCH   1  22
TORSDOF 3
ENDMDL
MODEL 3
REMARK VINA RESULT:      -6.9      3.482      5.690
REMARK  Name = 
REMARK  5 active torsions:
REMARK  status: ('A' for Active; 'I' for Inactive)
REMARK    1  A    between atoms: C_1  and  C_2
REMARK    2  A    between atoms: C_2  and  C_3
REMARK    3  A    between atoms: C_3  and  C_4
REMARK    4  A    between atoms: C_13  and  C_14
REMARK    5  A    between atoms: N_17  and  C_18
REMARK                            x       y       z     vdW  Elec       q    Type
REMARK                         _______ _______ _______ _____ _____    ______ ____
ROOT
ATOM      1  C   UNL     1       6.081   4.449  16.106  0.00  0.00    +0.000 C 
ATOM      2  O   UNL     1       5.324   3.553  15.740  0.00  0.00    +0.000 OA
ATOM      3  N   UNL     1       6.010   5.114  17.311  0.00  0.00    +0.000 N 
ATOM      4  C   UNL     1       5.032   4.794  18.259  0.00  0.00    +0.000 A 
ATOM      5  C   UNL     1       4.848   3.469  18.650  0.00  0.00    +0.000 A 
ATOM      6  C   UNL     1       3.847   3.147  19.561  0.00  0.00    +0.000 A 
ATOM      7  C   UNL     1       3.048   4.211  19.966  0.00  0.00    +0.000 A 
ATOM      8  N   UNL     1       1.937   4.255  20.769  0.00  0.00    +0.000 N 
ATOM      9  C   UNL     1       1.453   5.533  20.832  0.00  0.00    +0.000 A 
ATOM     10  C   UNL     1       2.279   6.355  20.083  0.00  0.00    +0.000 A 
ATOM     11  C   UNL     1       3.301   5.520  19.549  0.00  0.00    +0.000 A 
ATOM     12  N   UNL     1       4.338   5.840  18.740  0.00  0.00    +0.000 NA
ATOM     13  H   UNL     1       6.254   6.095  17.306  0.00  0.00    +0.000 HD
ATOM     14  H   UNL     1       1.512   3.451  21.207  0.00  0.00    +0.000 HD
ENDROOT
BRANCH  10  15
ATOM     15  C   UNL     1       2.115   7.831  19.847  0.00  0.00    +0.000 C 
ATOM     16  C   UNL     1       1.021   8.432  20.737  0.00  0.00    +0.000 C 
ATOM     17  C   UNL     1       0.829   9.919  20.447  0.00  0.00    +0.000 C 
ATOM     18  N   UNL     1       0.525  10.152  19.028  0.00  0.00    +0.000 NA
ATOM     19  C   UNL     1       0.300  11.577  18.782  0.00  0.00    +0.000 C 
ATOM     20  C   UNL     1       1.600   9.645  18.164  0.00  0.00    +0.000 C 
ATOM     21  C   UNL     1       1.819   8.147  18.373  0.00  0.00    +0.000 C 
ENDBRANCH  10  15
BRANCH   1  22
ATOM     22  C   UNL     1       7.219   4.912  15.222  0.00  0.00    +0.000 C 
BRANCH  22  24
ATOM     23  C   UNL     1       7.940   5.335  12.828  0.00  0.00    +0.000 C 
ATOM     24  C   UNL     1       6.917   4.675  13.745  0.00  0.00    +0.000 C 
ENDBRANCH  22  24
ENDBRANCH   1  22
TORSDOF 3
ENDMDL
MODEL 4
REMARK VINA RESULT:      -6.6      5.723      8.620
REMARK  Name = 
REMARK  5 active torsions:
REMARK  status: ('A' for Active; 'I' for Inactive)
REMARK    1  A    between atoms: C_1  and  C_2
REMARK    2  A    between atoms: C_2  and  C_3
REMARK    3  A    between atoms: C_3  and  C_4
REMARK    4  A    between atoms: C_13  and  C_14
REMARK    5  A    between atoms: N_17  and  C_18
REMARK                            x       y       z     vdW  Elec       q    Type
REMARK                         _______ _______ _______ _____ _____    ______ ____
ROOT
ATOM      1  C   UNL     1       1.421  11.827  19.038  0.00  0.00    +0.000 C 
ATOM      2  O   UNL     1       1.869  11.981  20.172  0.00  0.00    +0.000 OA
ATOM      3  N   UNL     1       1.110  10.616  18.457  0.00  0.00    +0.000 N 
ATOM      4  C   UNL     1       1.277   9.414  19.154  0.00  0.00    +0.000 A 
ATOM      5  C   UNL     1       0.737   9.269  20.431  0.00  0.00    +0.000 A 
ATOM      6  C   UNL     1       0.940   8.089  21.139  0.00  0.00    +0.000 A 
ATOM      7  C   UNL     1       1.748   7.148  20.508  0.00  0.00    +0.000 A 
ATOM      8  N   UNL     1       2.225   5.935  20.931  0.00  0.00    +0.000 N 
ATOM      9  C   UNL     1       3.039   5.390  19.976  0.00  0.00    +0.000 A 
ATOM     10  C   UNL     1       3.074   6.246  18.887  0.00  0.00    +0.000 A 
ATOM     11  C   UNL     1       2.241   7.352  19.217  0.00  0.00    +0.000 A 
ATOM     12  N   UNL     1       1.958   8.462  18.495  0.00  0.00    +0.000 NA
ATOM     13  H   UNL     1       1.281  10.528  17.465  0.00  0.00    +0.000 HD
ATOM     14  H   UNL     1       2.040   5.528  21.837  0.00  0.00    +0.000 HD
ENDROOT
BRANCH  10  15
ATOM     15  C   UNL     1       3.863   6.066  17.619  0.00  0.00    +0.000 C 
ATOM     16  C   UNL     1       3.999   4.587  17.239  0.00  0.00    +0.000 C 
ATOM     17  C   UNL     1       4.847   4.418  15.980  0.00  0.00    +0.000 C 
ATOM     18  N   UNL     1       6.172   5.033  16.142  0.00  0.00    +0.000 NA
ATOM     19  C   UNL     1       6.983   4.819  14.943  0.00  0.00    +0.000 C 
ATOM     20  C   UNL     1       6.060   6.468  16.437  0.00  0.00    +0.000 C 
ATOM     21  C   UNL     1       5.255   6.710  17.713  0.00  0.00    +0.000 C 
ENDBRANCH  10  15
BRANCH   1  22
ATOM     22  C   UNL     1       1.150  13.018  18.144  0.00  0.00    +0.000 C 
BRANCH  22  24
ATOM     23  C   UNL     1      -0.167  15.037  18.929  0.00  0.00    +0.000 C 
ATOM     24  C   UNL     1      -0.234  13.610  18.399  0.00  0.00    +0.000 C 
ENDBRANCH  22  24
ENDBRANCH   1  22
TORSDOF 3
ENDMDL
MODEL 5
REMARK VINA RESULT:      -6.2      3.311      6.009
REMARK  Name = 
REMARK  5 active torsions:
REMARK  status: ('A' for Active; 'I' for Inactive)
REMARK    1  A    between atoms: C_1  and  C_2
REMARK    2  A    between atoms: C_2  and  C_3
REMARK    3  A    between atoms: C_3  and  C_4
REMARK    4  A    between atoms: C_13  and  C_14
REMARK    5  A    between atoms: N_17  and  C_18
REMARK                            x       y       z     vdW  Elec       q    Type
REMARK                         _______ _______ _______ _____ _____    ______ ____
ROOT
ATOM      1  C   UNL     1       8.141   8.512  18.146  0.00  0.00    +0.000 C 
ATOM      2  O   UNL     1       7.686   9.037  17.132  0.00  0.00    +0.000 OA
ATOM      3  N   UNL     1       7.992   7.187  18.497  0.00  0.00    +0.000 N 
ATOM      4  C   UNL     1       7.289   6.296  17.679  0.00  0.00    +0.000 A 
ATOM      5  C   UNL     1       7.599   6.201  16.324  0.00  0.00    +0.000 A 
ATOM      6  C   UNL     1       6.871   5.345  15.504  0.00  0.00    +0.000 A 
ATOM      7  C   UNL     1       5.817   4.682  16.124  0.00  0.00    +0.000 A 
ATOM      8  N   UNL     1       4.852   3.846  15.623  0.00  0.00    +0.000 N 
ATOM      9  C   UNL     1       3.984   3.482  16.614  0.00  0.00    +0.000 A 
ATOM     10  C   UNL     1       4.402   4.062  17.801  0.00  0.00    +0.000 A 
ATOM     11  C   UNL     1       5.574   4.809  17.494  0.00  0.00    +0.000 A 
ATOM     12  N   UNL     1       6.348   5.568  18.304  0.00  0.00    +0.000 NA
ATOM     13  H   UNL     1       7.896   6.985  19.482  0.00  0.00    +0.000 HD
ATOM     14  H   UNL     1       4.770   3.580  14.652  0.00  0.00    +0.000 HD
ENDROOT
BRANCH  10  15
ATOM     15  C   UNL     1       3.733   3.959  19.144  0.00  0.00    +0.000 C 
ATOM     16  C   UNL     1       4.000   2.604  19.810  0.00  0.00    +0.000 C 
ATOM     17  C   UNL     1       3.271   2.493  21.147  0.00  0.00    +0.000 C 
ATOM     18  N   UNL     1       1.826   2.714  20.988  0.00  0.00    +0.000 NA
ATOM     19  C   UNL     1       1.142   2.559  22.273  0.00  0.00    +0.000 C 
ATOM     20  C   UNL     1       1.551   4.040  20.417  0.00  0.00    +0.000 C 
ATOM     21  C   UNL     1       2.219   4.205  19.053  0.00  0.00    +0.000 C 
ENDBRANCH  10  15
BRANCH   1  22
ATOM     22  C   UNL     1       8.954   9.316  19.137  0.00  0.00    +0.000 C 
BRANCH  22  24
ATOM     23  C   UNL     1      10.543  11.291  19.184  0.00  0.00    +0.000 C 
ATOM     24  C   UNL     1       9.250  10.720  18.616  0.00  0.00    +0.000 C 
ENDBRANCH  22  24
ENDBRANCH   1  22
TORSDOF 3
ENDMDL
MODEL 6
REMARK VINA RESULT:      -6.2      4.053      7.782
REMARK  Name = 
REMARK  5 active torsions:
REMARK  status: ('A' for Active; 'I' for Inactive)
REMARK    1  A    between atoms: C_1  and  C_2
REMARK    2  A    between atoms: C_2  and  C_3
REMARK    3  A    between atoms: C_3  and  C_4
REMARK    4  A    between atoms: C_13  and  C_14
REMARK    5  A    between atoms: N_17  and  C_18
REMARK                            x       y       z     vdW  Elec       q    Type
REMARK                         _______ _______ _______ _____ _____    ______ ____
ROOT
ATOM      1  C   UNL     1       1.393   8.745  20.676  0.00  0.00    +0.000 C 
ATOM      2  O   UNL     1       1.844   8.553  21.803  0.00  0.00    +0.000 OA
ATOM      3  N   UNL     1       1.379   7.822  19.651  0.00  0.00    +0.000 N 
ATOM      4  C   UNL     1       1.890   6.532  19.832  0.00  0.00    +0.000 A 
ATOM      5  C   UNL     1       1.474   5.763  20.917  0.00  0.00    +0.000 A 
ATOM      6  C   UNL     1       2.015   4.497  21.119  0.00  0.00    +0.000 A 
ATOM      7  C   UNL     1       3.006   4.125  20.217  0.00  0.00    +0.000 A 
ATOM      8  N   UNL     1       3.805   3.012  20.158  0.00  0.00    +0.000 N 
ATOM      9  C   UNL     1       4.682   3.117  19.114  0.00  0.00    +0.000 A 
ATOM     10  C   UNL     1       4.435   4.307  18.450  0.00  0.00    +0.000 A 
ATOM     11  C   UNL     1       3.361   4.938  19.138  0.00  0.00    +0.000 A 
ATOM     12  N   UNL     1       2.761   6.126  18.892  0.00  0.00    +0.000 NA
ATOM     13  H   UNL     1       1.516   8.178  18.715  0.00  0.00    +0.000 HD
ATOM     14  H   UNL     1       3.780   2.250  20.821  0.00  0.00    +0.000 HD
ENDROOT
BRANCH  10  15
ATOM     15  C   UNL     1       5.176   4.850  17.258  0.00  0.00    +0.000 C 
ATOM     16  C   UNL     1       4.624   4.291  15.942  0.00  0.00    +0.000 C 
ATOM     17  C   UNL     1       5.421   4.809  14.746  0.00  0.00    +0.000 C 
ATOM     18  N   UNL     1       6.851   4.495  14.881  0.00  0.00    +0.000 NA
ATOM     19  C   UNL     1       7.587   4.959  13.704  0.00  0.00    +0.000 C 
ATOM     20  C   UNL     1       7.412   5.085  16.104  0.00  0.00    +0.000 C 
ATOM     21  C   UNL     1       6.686   4.577  17.348  0.00  0.00    +0.000 C 
ENDBRANCH  10  15
BRANCH   1  22
ATOM     22  C   UNL     1       0.774  10.075  20.304  0.00  0.00    +0.000 C 
BRANCH  22  24
ATOM     23  C   UNL     1      -1.002  10.396  18.524  0.00  0.00    +0.000 C 
ATOM     24  C   UNL     1       0.476  10.159  18.810  0.00  0.00    +0.000 C 
ENDBRANCH  22  24
ENDBRANCH   1  22
TORSDOF 3
ENDMDL
MODEL 7
REMARK VINA RESULT:      -6.1      3.205      5.048
REMARK  Name = 
REMARK  5 active torsions:
REMARK  status: ('A' for Active; 'I' for Inactive)
REMARK    1  A    between atoms: C_1  and  C_2
REMARK    2  A    between atoms: C_2  and  C_3
REMARK    3  A    between atoms: C_3  and  C_4
REMARK    4  A    between atoms: C_13  and  C_14
REMARK    5  A    between atoms: N_17  and  C_18
REMARK                            x       y       z     vdW  Elec       q    Type
REMARK                         _______ _______ _______ _____ _____    ______ ____
ROOT
ATOM      1  C   UNL     1       6.294   4.835  14.718  0.00  0.00    +0.000 C 
ATOM      2  O   UNL     1       5.495   4.110  14.128  0.00  0.00    +0.000 OA
ATOM      3  N   UNL     1       6.228   5.181  16.051  0.00  0.00    +0.000 N 
ATOM      4  C   UNL     1       5.204   4.699  16.875  0.00  0.00    +0.000 A 
ATOM      5  C   UNL     1       4.930   3.333  16.918  0.00  0.00    +0.000 A 
ATOM      6  C   UNL     1       3.884   2.861  17.705  0.00  0.00    +0.000 A 
ATOM      7  C   UNL     1       3.140   3.840  18.354  0.00  0.00    +0.000 A 
ATOM      8  N   UNL     1       2.010   3.756  19.127  0.00  0.00    +0.000 N 
ATOM      9  C   UNL     1       1.603   5.006  19.503  0.00  0.00    +0.000 A 
ATOM     10  C   UNL     1       2.499   5.932  18.995  0.00  0.00    +0.000 A 
ATOM     11  C   UNL     1       3.484   5.193  18.282  0.00  0.00    +0.000 A 
ATOM     12  N   UNL     1       4.561   5.635  17.593  0.00  0.00    +0.000 NA
ATOM     13  H   UNL     1       6.530   6.114  16.296  0.00  0.00    +0.000 HD
ATOM     14  H   UNL     1       1.525   2.897  19.344  0.00  0.00    +0.000 HD
ENDROOT
BRANCH  10  15
ATOM     15  C   UNL     1       2.431   7.429  19.135  0.00  0.00    +0.000 C 
ATOM     16  C   UNL     1       1.485   7.852  20.265  0.00  0.00    +0.000 C 
ATOM     17  C   UNL     1       1.386   9.374  20.359  0.00  0.00    +0.000 C 
ATOM     18  N   UNL     1       0.959   9.961  19.081  0.00  0.00    +0.000 NA
ATOM     19  C   UNL     1       0.825  11.413  19.207  0.00  0.00    +0.000 C 
ATOM     20  C   UNL     1       1.895   9.623  18.001  0.00  0.00    +0.000 C 
ATOM     21  C   UNL     1       2.012   8.110  17.823  0.00  0.00    +0.000 C 
ENDBRANCH  10  15
BRANCH   1  22
ATOM     22  C   UNL     1       7.483   5.428  13.994  0.00  0.00    +0.000 C 
BRANCH  22  24
ATOM     23  C   UNL     1       7.899   6.099  11.584  0.00  0.00    +0.000 C 
ATOM     24  C   UNL     1       7.545   4.966  12.540  0.00  0.00    +0.000 C 
ENDBRANCH  22  24
ENDBRANCH   1  22
TORSDOF 3
ENDMDL
MODEL 8
REMARK VINA RESULT:      -6.1      9.596     11.147
REMARK  Name = 
REMARK  5 active torsions:
REMARK  status: ('A' for Active; 'I' for Inactive)
REMARK    1  A    between atoms: C_1  and  C_2
REMARK    2  A    between atoms: C_2  and  C_3
REMARK    3  A    between atoms: C_3  and  C_4
REMARK    4  A    between atoms: C_13  and  C_14
REMARK    5  A    between atoms: N_17  and  C_18
REMARK                            x       y       z     vdW  Elec       q    Type
REMARK                         _______ _______ _______ _____ _____    ______ ____
ROOT
ATOM      1  C   UNL     1       9.346  10.609  18.871  0.00  0.00    +0.000 C 
ATOM      2  O   UNL     1      10.261  10.968  19.609  0.00  0.00    +0.000 OA
ATOM      3  N   UNL     1       8.629  11.430  18.026  0.00  0.00    +0.000 N 
ATOM      4  C   UNL     1       8.914  12.797  17.931  0.00  0.00    +0.000 A 
ATOM      5  C   UNL     1      10.222  13.222  17.706  0.00  0.00    +0.000 A 
ATOM      6  C   UNL     1      10.509  14.582  17.654  0.00  0.00    +0.000 A 
ATOM      7  C   UNL     1       9.432  15.427  17.904  0.00  0.00    +0.000 A 
ATOM      8  N   UNL     1       9.359  16.792  18.019  0.00  0.00    +0.000 N 
ATOM      9  C   UNL     1       8.083  17.170  18.332  0.00  0.00    +0.000 A 
ATOM     10  C   UNL     1       7.290  16.036  18.392  0.00  0.00    +0.000 A 
ATOM     11  C   UNL     1       8.141  14.932  18.103  0.00  0.00    +0.000 A 
ATOM     12  N   UNL     1       7.852  13.611  18.055  0.00  0.00    +0.000 NA
ATOM     13  H   UNL     1       7.649  11.218  17.907  0.00  0.00    +0.000 HD
ATOM     14  H   UNL     1      10.146  17.419  17.933  0.00  0.00    +0.000 HD
ENDROOT
BRANCH  10  15
ATOM     15  C   UNL     1       5.826  15.971  18.732  0.00  0.00    +0.000 C 
ATOM     16  C   UNL     1       5.591  15.395  20.133  0.00  0.00    +0.000 C 
ATOM     17  C   UNL     1       4.099  15.286  20.441  0.00  0.00    +0.000 C 
ATOM     18  N   UNL     1       3.402  14.480  19.429  0.00  0.00    +0.000 NA
ATOM     19  C   UNL     1       1.985  14.350  19.768  0.00  0.00    +0.000 C 
ATOM     20  C   UNL     1       3.558  15.060  18.088  0.00  0.00    +0.000 C 
ATOM     21  C   UNL     1       5.031  15.161  17.696  0.00  0.00    +0.000 C 
ENDBRANCH  10  15
BRANCH   1  22
ATOM     22  C   UNL     1       8.916   9.159  18.819  0.00  0.00    +0.000 C 
BRANCH  22  24
ATOM     23  C   UNL     1       7.570   7.431  17.541  0.00  0.00    +0.000 C 
ATOM     24  C   UNL     1       7.925   8.906  17.685  0.00  0.00    +0.000 C 
ENDBRANCH  22  24
ENDBRANCH   1  22
TORSDOF 3
ENDMDL
MODEL 9
REMARK VINA RESULT:      -6.0      5.474      8.525
REMARK  Name = 
REMARK  5 active torsions:
REMARK  status: ('A' for Active; 'I' for Inactive)
REMARK    1  A    between atoms: C_1  and  C_2
REMARK    2  A    between atoms: C_2  and  C_3
REMARK    3  A    between atoms: C_3  and  C_4
REMARK    4  A    between atoms: C_13  and  C_14
REMARK    5  A    between atoms: N_17  and  C_18
REMARK                            x       y       z     vdW  Elec       q    Type
REMARK                         _______ _______ _______ _____ _____    ______ ____
ROOT
ATOM      1  C   UNL     1       1.311  11.535  19.880  0.00  0.00    +0.000 C 
ATOM      2  O   UNL     1       1.467  11.539  21.099  0.00  0.00    +0.000 OA
ATOM      3  N   UNL     1       1.205  10.409  19.090  0.00  0.00    +0.000 N 
ATOM      4  C   UNL     1       1.255   9.126  19.647  0.00  0.00    +0.000 A 
ATOM      5  C   UNL     1       0.432   8.801  20.725  0.00  0.00    +0.000 A 
ATOM      6  C   UNL     1       0.514   7.539  21.304  0.00  0.00    +0.000 A 
ATOM      7  C   UNL     1       1.492   6.704  20.774  0.00  0.00    +0.000 A 
ATOM      8  N   UNL     1       1.910   5.451  21.142  0.00  0.00    +0.000 N 
ATOM      9  C   UNL     1       2.954   5.053  20.352  0.00  0.00    +0.000 A 
ATOM     10  C   UNL     1       3.209   6.048  19.424  0.00  0.00    +0.000 A 
ATOM     11  C   UNL     1       2.271   7.088  19.679  0.00  0.00    +0.000 A 
ATOM     12  N   UNL     1       2.118   8.281  19.058  0.00  0.00    +0.000 NA
ATOM     13  H   UNL     1       1.613  10.459  18.167  0.00  0.00    +0.000 HD
ATOM     14  H   UNL     1       1.532   4.923  21.915  0.00  0.00    +0.000 HD
ENDROOT
BRANCH  10  15
ATOM     15  C   UNL     1       4.286   6.053  18.374  0.00  0.00    +0.000 C 
ATOM     16  C   UNL     1       3.847   5.310  17.106  0.00  0.00    +0.000 C 
ATOM     17  C   UNL     1       4.971   5.277  16.071  0.00  0.00    +0.000 C 
ATOM     18  N   UNL     1       6.191   4.675  16.626  0.00  0.00    +0.000 NA
ATOM     19  C   UNL     1       7.237   4.611  15.605  0.00  0.00    +0.000 C 
ATOM     20  C   UNL     1       6.664   5.418  17.801  0.00  0.00    +0.000 C 
ATOM     21  C   UNL     1       5.601   5.456  18.898  0.00  0.00    +0.000 C 
ENDBRANCH  10  15
BRANCH   1  22
ATOM     22  C   UNL     1       1.207  12.831  19.107  0.00  0.00    +0.000 C 
BRANCH  22  24
ATOM     23  C   UNL     1       2.907  14.406  18.077  0.00  0.00    +0.000 C 
ATOM     24  C   UNL     1       2.354  12.987  18.111  0.00  0.00    +0.000 C 
ENDBRANCH  22  24
ENDBRANCH   1  22
TORSDOF 3
ENDMDL
