MODEL 1
REMARK VINA RESULT:      -6.9      0.000      0.000
REMARK  Name = 
REMARK  11 active torsions:
REMARK  status: ('A' for Active; 'I' for Inactive)
REMARK    1  A    between atoms: C_1  and  C_2
REMARK    2  A    between atoms: C_2  and  O_3
REMARK    3  A    between atoms: O_3  and  C_4
REMARK    4  A    between atoms: C_8  and  C_9
REMARK    5  A    between atoms: C_11  and  C_12
REMARK    6  A    between atoms: C_12  and  N_13
REMARK    7  A    between atoms: N_13  and  C_14
REMARK    8  A    between atoms: N_13  and  C_15
REMARK    9  A    between atoms: C_15  and  C_16
REMARK   10  A    between atoms: C_16  and  C_17
REMARK   11  A    between atoms: C_16  and  C_18
REMARK                            x       y       z     vdW  Elec       q    Type
REMARK                         _______ _______ _______ _____ _____    ______ ____
ROOT
ATOM      1  C   UNL     1       6.656   4.673  15.991  0.00  0.00    +0.000 A 
ATOM      2  N   UNL     1       5.564   4.652  16.733  0.00  0.00    +0.000 NA
ATOM      3  C   UNL     1       6.031   4.579  18.025  0.00  0.00    +0.000 A 
ATOM      4  C   UNL     1       7.407   4.616  18.011  0.00  0.00    +0.000 A 
ATOM      5  O   UNL     1       7.823   4.677  16.713  0.00  0.00    +0.000 OA
ENDROOT
BRANCH   1  10
ATOM      6  C   UNL     1       5.946   3.581  12.472  0.00  0.00    +0.000 A 
ATOM      7  C   UNL     1       6.948   4.242  11.765  0.00  0.00    +0.000 A 
ATOM      8  C   UNL     1       7.828   5.103  12.422  0.00  0.00    +0.000 A 
ATOM      9  C   UNL     1       7.723   5.292  13.803  0.00  0.00    +0.000 A 
ATOM     10  C   UNL     1       6.747   4.609  14.536  0.00  0.00    +0.000 A 
ATOM     11  C   UNL     1       5.852   3.760  13.854  0.00  0.00    +0.000 A 
BRANCH   6  12
ATOM     12  O   UNL     1       5.154   2.735  11.745  0.00  0.00    +0.000 OA
BRANCH  12  14
ATOM     13  C   UNL     1       3.598   3.684  10.203  0.00  0.00    +0.000 C 
ATOM     14  C   UNL     1       3.787   3.131  11.603  0.00  0.00    +0.000 C 
ENDBRANCH  12  14
ENDBRANCH   6  12
ENDBRANCH   1  10
BRANCH   3  15
ATOM     15  C   UNL     1       5.075   4.406  19.159  0.00  0.00    +0.000 C 
BRANCH  15  16
ATOM     16  N   UNL     1       3.962   3.495  18.832  0.00  0.00    +0.000 NA
ATOM     17  C   UNL     1       4.345   2.093  19.076  0.00  0.00    +0.000 C 
BRANCH  16  18
ATOM     18  C   UNL     1       2.777   3.796  19.669  0.00  0.00    +0.000 C 
BRANCH  18  19
ATOM     19  C   UNL     1       1.418   3.878  18.935  0.00  0.00    +0.000 C 
ATOM     20  C   UNL     1       1.563   4.405  17.507  0.00  0.00    +0.000 C 
ATOM     21  C   UNL     1       0.758   2.496  18.922  0.00  0.00    +0.000 C 
ENDBRANCH  18  19
ENDBRANCH  16  18
ENDBRANCH  15  16
ENDBRANCH   3  15
TORSDOF 7
ENDMDL
MODEL 2
REMARK VINA RESULT:      -6.6      1.322      1.832
REMARK  Name = 
REMARK  11 active torsions:
REMARK  status: ('A' for Active; 'I' for Inactive)
REMARK    1  A    between atoms: C_1  and  C_2
REMARK    2  A    between atoms: C_2  and  O_3
REMARK    3  A    between atoms: O_3  and  C_4
REMARK    4  A    between atoms: C_8  and  C_9
REMARK    5  A    between atoms: C_11  and  C_12
REMARK    6  A    between atoms: C_12  and  N_13
REMARK    7  A    between atoms: N_13  and  C_14
REMARK    8  A    between atoms: N_13  and  C_15
REMARK    9  A    between atoms: C_15  and  C_16
REMARK   10  A    between atoms: C_16  and  C_17
REMARK   11  A    between atoms: C_16  and  C_18
REMARK                            x       y       z     vdW  Elec       q    Type
REMARK                         _______ _______ _______ _____ _____    ______ ____
ROOT
ATOM      1  C   UNL     1       6.188   4.855  15.950  0.00  0.00    +0.000 A 
ATOM      2  N   UNL     1       5.165   5.504  16.475  0.00  0.00    +0.000 NA
ATOM      3  C   UNL     1       5.243   5.231  17.821  0.00  0.00    +0.000 A 
ATOM      4  C   UNL     1       6.358   4.461  18.062  0.00  0.00    +0.000 A 
ATOM      5  O   UNL     1       6.976   4.212  16.871  0.00  0.00    +0.000 OA
ENDROOT
BRANCH   1  10
ATOM      6  C   UNL     1       6.175   3.383  12.498  0.00  0.00    +0.000 A 
ATOM      7  C   UNL     1       7.170   4.129  11.870  0.00  0.00    +0.000 A 
ATOM      8  C   UNL     1       7.813   5.165  12.550  0.00  0.00    +0.000 A 
ATOM      9  C   UNL     1       7.476   5.448  13.876  0.00  0.00    +0.000 A 
ATOM     10  C   UNL     1       6.505   4.686  14.535  0.00  0.00    +0.000 A 
ATOM     11  C   UNL     1       5.850   3.658  13.828  0.00  0.00    +0.000 A 
BRANCH   6  12
ATOM     12  O   UNL     1       5.627   2.370  11.759  0.00  0.00    +0.000 OA
BRANCH  12  14
ATOM     13  C   UNL     1       6.150   0.073  11.374  0.00  0.00    +0.000 C 
ATOM     14  C   UNL     1       6.558   1.508  11.098  0.00  0.00    +0.000 C 
ENDBRANCH  12  14
ENDBRANCH   6  12
ENDBRANCH   1  10
BRANCH   3  15
ATOM     15  C   UNL     1       4.164   5.695  18.744  0.00  0.00    +0.000 C 
BRANCH  15  16
ATOM     16  N   UNL     1       3.272   4.602  19.172  0.00  0.00    +0.000 NA
ATOM     17  C   UNL     1       2.462   5.013  20.334  0.00  0.00    +0.000 C 
BRANCH  16  18
ATOM     18  C   UNL     1       2.343   4.226  18.080  0.00  0.00    +0.000 C 
BRANCH  18  19
ATOM     19  C   UNL     1       2.081   2.714  17.888  0.00  0.00    +0.000 C 
ATOM     20  C   UNL     1       3.347   1.879  18.073  0.00  0.00    +0.000 C 
ATOM     21  C   UNL     1       0.998   2.253  18.870  0.00  0.00    +0.000 C 
ENDBRANCH  18  19
ENDBRANCH  16  18
ENDBRANCH  15  16
ENDBRANCH   3  15
TORSDOF 7
ENDMDL
MODEL 3
REMARK VINA RESULT:      -6.6      0.945      1.014
REMARK  Name = 
REMARK  11 active torsions:
REMARK  status: ('A' for Active; 'I' for Inactive)
REMARK    1  A    between atoms: C_1  and  C_2
REMARK    2  A    between atoms: C_2  and  O_3
REMARK    3  A    between atoms: O_3  and  C_4
REMARK    4  A    between atoms: C_8  and  C_9
REMARK    5  A    between atoms: C_11  and  C_12
REMARK    6  A    between atoms: C_12  and  N_13
REMARK    7  A    between atoms: N_13  and  C_14
REMARK    8  A    between atoms: N_13  and  C_15
REMARK    9  A    between atoms: C_15  and  C_16
REMARK   10  A    between atoms: C_16  and  C_17
REMARK   11  A    between atoms: C_16  and  C_18
REMARK                            x       y       z     vdW  Elec       q    Type
REMARK                         _______ _______ _______ _____ _____    ______ ____
ROOT
ATOM      1  C   UNL     1       5.703   4.998  15.897  0.00  0.00    +0.000 A 
ATOM      2  N   UNL     1       5.549   4.110  16.861  0.00  0.00    +0.000 NA
ATOM      3  C   UNL     1       5.261   4.864  17.976  0.00  0.00    +0.000 A 
ATOM      4  C   UNL     1       5.200   6.192  17.620  0.00  0.00    +0.000 A 
ATOM      5  O   UNL     1       5.480   6.294  16.288  0.00  0.00    +0.000 OA
ENDROOT
BRANCH   1  10
ATOM      6  C   UNL     1       5.729   3.671  12.387  0.00  0.00    +0.000 A 
ATOM      7  C   UNL     1       6.993   4.060  11.948  0.00  0.00    +0.000 A 
ATOM      8  C   UNL     1       7.827   4.817  12.773  0.00  0.00    +0.000 A 
ATOM      9  C   UNL     1       7.406   5.172  14.058  0.00  0.00    +0.000 A 
ATOM     10  C   UNL     1       6.155   4.759  14.529  0.00  0.00    +0.000 A 
ATOM     11  C   UNL     1       5.317   4.015  13.676  0.00  0.00    +0.000 A 
BRANCH   6  12
ATOM     12  O   UNL     1       5.000   2.906  11.517  0.00  0.00    +0.000 OA
BRANCH  12  14
ATOM     13  C   UNL     1       3.312   3.699  10.026  0.00  0.00    +0.000 C 
ATOM     14  C   UNL     1       3.606   3.217  11.435  0.00  0.00    +0.000 C 
ENDBRANCH  12  14
ENDBRANCH   6  12
ENDBRANCH   1  10
BRANCH   3  15
ATOM     15  C   UNL     1       5.144   4.210  19.314  0.00  0.00    +0.000 C 
BRANCH  15  16
ATOM     16  N   UNL     1       4.066   3.206  19.364  0.00  0.00    +0.000 NA
ATOM     17  C   UNL     1       4.470   2.045  20.178  0.00  0.00    +0.000 C 
BRANCH  16  18
ATOM     18  C   UNL     1       2.842   3.783  19.970  0.00  0.00    +0.000 C 
BRANCH  18  19
ATOM     19  C   UNL     1       1.588   3.839  19.068  0.00  0.00    +0.000 C 
ATOM     20  C   UNL     1       1.943   4.020  17.593  0.00  0.00    +0.000 C 
ATOM     21  C   UNL     1       0.763   2.561  19.258  0.00  0.00    +0.000 C 
ENDBRANCH  18  19
ENDBRANCH  16  18
ENDBRANCH  15  16
ENDBRANCH   3  15
TORSDOF 7
ENDMDL
MODEL 4
REMARK VINA RESULT:      -6.5      1.240      1.766
REMARK  Name = 
REMARK  11 active torsions:
REMARK  status: ('A' for Active; 'I' for Inactive)
REMARK    1  A    between atoms: C_1  and  C_2
REMARK    2  A    between atoms: C_2  and  O_3
REMARK    3  A    between atoms: O_3  and  C_4
REMARK    4  A    between atoms: C_8  and  C_9
REMARK    5  A    between atoms: C_11  and  C_12
REMARK    6  A    between atoms: C_12  and  N_13
REMARK    7  A    between atoms: N_13  and  C_14
REMARK    8  A    between atoms: N_13  and  C_15
REMARK    9  A    between atoms: C_15  and  C_16
REMARK   10  A    between atoms: C_16  and  C_17
REMARK   11  A    between atoms: C_16  and  C_18
REMARK                            x       y       z     vdW  Elec       q    Type
REMARK                         _______ _______ _______ _____ _____    ______ ____
ROOT
ATOM      1  C   UNL     1       6.539   4.697  15.974  0.00  0.00    +0.000 A 
ATOM      2  N   UNL     1       5.506   4.275  16.680  0.00  0.00    +0.000 NA
ATOM      3  C   UNL     1       5.890   4.459  17.989  0.00  0.00    +0.000 A 
ATOM      4  C   UNL     1       7.135   5.043  18.016  0.00  0.00    +0.000 A 
ATOM      5  O   UNL     1       7.565   5.203  16.731  0.00  0.00    +0.000 OA
ENDROOT
BRANCH   1  10
ATOM      6  C   UNL     1       6.257   3.379  12.472  0.00  0.00    +0.000 A 
ATOM      7  C   UNL     1       7.163   4.190  11.792  0.00  0.00    +0.000 A 
ATOM      8  C   UNL     1       7.829   5.220  12.459  0.00  0.00    +0.000 A 
ATOM      9  C   UNL     1       7.607   5.430  13.823  0.00  0.00    +0.000 A 
ATOM     10  C   UNL     1       6.728   4.603  14.530  0.00  0.00    +0.000 A 
ATOM     11  C   UNL     1       6.047   3.582  13.837  0.00  0.00    +0.000 A 
BRANCH   6  12
ATOM     12  O   UNL     1       5.678   2.378  11.739  0.00  0.00    +0.000 OA
BRANCH  12  14
ATOM     13  C   UNL     1       6.151   0.077  11.317  0.00  0.00    +0.000 C 
ATOM     14  C   UNL     1       6.582   1.507  11.053  0.00  0.00    +0.000 C 
ENDBRANCH  12  14
ENDBRANCH   6  12
ENDBRANCH   1  10
BRANCH   3  15
ATOM     15  C   UNL     1       5.020   3.972  19.101  0.00  0.00    +0.000 C 
BRANCH  15  16
ATOM     16  N   UNL     1       3.748   4.712  19.195  0.00  0.00    +0.000 NA
ATOM     17  C   UNL     1       3.865   6.035  18.554  0.00  0.00    +0.000 C 
BRANCH  16  18
ATOM     18  C   UNL     1       2.661   3.971  18.513  0.00  0.00    +0.000 C 
BRANCH  18  19
ATOM     19  C   UNL     1       1.371   3.732  19.333  0.00  0.00    +0.000 C 
ATOM     20  C   UNL     1       0.691   2.412  18.971  0.00  0.00    +0.000 C 
ATOM     21  C   UNL     1       1.701   3.762  20.829  0.00  0.00    +0.000 C 
ENDBRANCH  18  19
ENDBRANCH  16  18
ENDBRANCH  15  16
ENDBRANCH   3  15
TORSDOF 7
ENDMDL
MODEL 5
REMARK VINA RESULT:      -6.4      1.415      1.855
REMARK  Name = 
REMARK  11 active torsions:
REMARK  status: ('A' for Active; 'I' for Inactive)
REMARK    1  A    between atoms: C_1  and  C_2
REMARK    2  A    between atoms: C_2  and  O_3
REMARK    3  A    between atoms: O_3  and  C_4
REMARK    4  A    between atoms: C_8  and  C_9
REMARK    5  A    between atoms: C_11  and  C_12
REMARK    6  A    between atoms: C_12  and  N_13
REMARK    7  A    between atoms: N_13  and  C_14
REMARK    8  A    between atoms: N_13  and  C_15
REMARK    9  A    between atoms: C_15  and  C_16
REMARK   10  A    between atoms: C_16  and  C_17
REMARK   11  A    between atoms: C_16  and  C_18
REMARK                            x       y       z     vdW  Elec       q    Type
REMARK                         _______ _______ _______ _____ _____    ______ ____
ROOT
ATOM      1  C   UNL     1       5.473   5.289  15.561  0.00  0.00    +0.000 A 
ATOM      2  N   UNL     1       5.290   4.571  16.654  0.00  0.00    +0.000 NA
ATOM      3  C   UNL     1       4.955   5.495  17.616  0.00  0.00    +0.000 A 
ATOM      4  C   UNL     1       4.895   6.744  17.042  0.00  0.00    +0.000 A 
ATOM      5  O   UNL     1       5.224   6.629  15.722  0.00  0.00    +0.000 OA
ENDROOT
BRANCH   1  10
ATOM      6  C   UNL     1       5.590   3.482  12.274  0.00  0.00    +0.000 A 
ATOM      7  C   UNL     1       6.898   3.728  11.863  0.00  0.00    +0.000 A 
ATOM      8  C   UNL     1       7.737   4.541  12.626  0.00  0.00    +0.000 A 
ATOM      9  C   UNL     1       7.276   5.098  13.823  0.00  0.00    +0.000 A 
ATOM     10  C   UNL     1       5.977   4.833  14.269  0.00  0.00    +0.000 A 
ATOM     11  C   UNL     1       5.135   4.027  13.476  0.00  0.00    +0.000 A 
BRANCH   6  12
ATOM     12  O   UNL     1       4.855   2.648  11.475  0.00  0.00    +0.000 OA
BRANCH  12  14
ATOM     13  C   UNL     1       3.433   3.826   9.963  0.00  0.00    +0.000 C 
ATOM     14  C   UNL     1       3.496   3.034  11.255  0.00  0.00    +0.000 C 
ENDBRANCH  12  14
ENDBRANCH   6  12
ENDBRANCH   1  10
BRANCH   3  15
ATOM     15  C   UNL     1       4.794   5.071  19.039  0.00  0.00    +0.000 C 
BRANCH  15  16
ATOM     16  N   UNL     1       3.383   5.038  19.467  0.00  0.00    +0.000 NA
ATOM     17  C   UNL     1       2.817   6.399  19.508  0.00  0.00    +0.000 C 
BRANCH  16  18
ATOM     18  C   UNL     1       2.569   4.235  18.524  0.00  0.00    +0.000 C 
BRANCH  18  19
ATOM     19  C   UNL     1       2.318   2.760  18.914  0.00  0.00    +0.000 C 
ATOM     20  C   UNL     1       0.848   2.367  18.776  0.00  0.00    +0.000 C 
ATOM     21  C   UNL     1       3.191   1.845  18.047  0.00  0.00    +0.000 C 
ENDBRANCH  18  19
ENDBRANCH  16  18
ENDBRANCH  15  16
ENDBRANCH   3  15
TORSDOF 7
ENDMDL
MODEL 6
REMARK VINA RESULT:      -6.4      1.230      1.673
REMARK  Name = 
REMARK  11 active torsions:
REMARK  status: ('A' for Active; 'I' for Inactive)
REMARK    1  A    between atoms: C_1  and  C_2
REMARK    2  A    between atoms: C_2  and  O_3
REMARK    3  A    between atoms: O_3  and  C_4
REMARK    4  A    between atoms: C_8  and  C_9
REMARK    5  A    between atoms: C_11  and  C_12
REMARK    6  A    between atoms: C_12  and  N_13
REMARK    7  A    between atoms: N_13  and  C_14
REMARK    8  A    between atoms: N_13  and  C_15
REMARK    9  A    between atoms: C_15  and  C_16
REMARK   10  A    between atoms: C_16  and  C_17
REMARK   11  A    between atoms: C_16  and  C_18
REMARK                            x       y       z     vdW  Elec       q    Type
REMARK                         _______ _______ _______ _____ _____    ______ ____
ROOT
ATOM      1  C   UNL     1       5.829   5.223  15.662  0.00  0.00    +0.000 A 
ATOM      2  N   UNL     1       4.953   4.615  16.440  0.00  0.00    +0.000 NA
ATOM      3  C   UNL     1       5.053   5.272  17.645  0.00  0.00    +0.000 A 
ATOM      4  C   UNL     1       5.959   6.301  17.524  0.00  0.00    +0.000 A 
ATOM      5  O   UNL     1       6.466   6.283  16.257  0.00  0.00    +0.000 OA
ENDROOT
BRANCH   1  10
ATOM      6  C   UNL     1       5.739   3.548  12.305  0.00  0.00    +0.000 A 
ATOM      7  C   UNL     1       6.990   3.881  11.791  0.00  0.00    +0.000 A 
ATOM      8  C   UNL     1       7.853   4.710  12.510  0.00  0.00    +0.000 A 
ATOM      9  C   UNL     1       7.474   5.196  13.764  0.00  0.00    +0.000 A 
ATOM     10  C   UNL     1       6.236   4.844  14.313  0.00  0.00    +0.000 A 
ATOM     11  C   UNL     1       5.368   4.023  13.564  0.00  0.00    +0.000 A 
BRANCH   6  12
ATOM     12  O   UNL     1       4.979   2.706  11.540  0.00  0.00    +0.000 OA
BRANCH  12  14
ATOM     13  C   UNL     1       3.422   3.782  10.085  0.00  0.00    +0.000 C 
ATOM     14  C   UNL     1       3.599   3.060  11.408  0.00  0.00    +0.000 C 
ENDBRANCH  12  14
ENDBRANCH   6  12
ENDBRANCH   1  10
BRANCH   3  15
ATOM     15  C   UNL     1       4.295   4.779  18.833  0.00  0.00    +0.000 C 
BRANCH  15  16
ATOM     16  N   UNL     1       2.918   5.303  18.888  0.00  0.00    +0.000 NA
ATOM     17  C   UNL     1       2.854   6.667  18.331  0.00  0.00    +0.000 C 
BRANCH  16  18
ATOM     18  C   UNL     1       2.001   4.447  18.099  0.00  0.00    +0.000 C 
BRANCH  18  19
ATOM     19  C   UNL     1       1.127   3.452  18.899  0.00  0.00    +0.000 C 
ATOM     20  C   UNL     1       1.716   2.042  18.907  0.00  0.00    +0.000 C 
ATOM     21  C   UNL     1       0.956   3.960  20.334  0.00  0.00    +0.000 C 
ENDBRANCH  18  19
ENDBRANCH  16  18
ENDBRANCH  15  16
ENDBRANCH   3  15
TORSDOF 7
ENDMDL
MODEL 7
REMARK VINA RESULT:      -6.4      5.154      7.563
REMARK  Name = 
REMARK  11 active torsions:
REMARK  status: ('A' for Active; 'I' for Inactive)
REMARK    1  A    between atoms: C_1  and  C_2
REMARK    2  A    between atoms: C_2  and  O_3
REMARK    3  A    between atoms: O_3  and  C_4
REMARK    4  A    between atoms: C_8  and  C_9
REMARK    5  A    between atoms: C_11  and  C_12
REMARK    6  A    between atoms: C_12  and  N_13
REMARK    7  A    between atoms: N_13  and  C_14
REMARK    8  A    between atoms: N_13  and  C_15
REMARK    9  A    between atoms: C_15  and  C_16
REMARK   10  A    between atoms: C_16  and  C_17
REMARK   11  A    between atoms: C_16  and  C_18
REMARK                            x       y       z     vdW  Elec       q    Type
REMARK                         _______ _______ _______ _____ _____    ______ ____
ROOT
ATOM      1  C   UNL     1       2.278   7.130  19.298  0.00  0.00    +0.000 A 
ATOM      2  N   UNL     1       2.026   8.222  18.601  0.00  0.00    +0.000 NA
ATOM      3  C   UNL     1       1.324   9.026  19.469  0.00  0.00    +0.000 A 
ATOM      4  C   UNL     1       1.229   8.398  20.690  0.00  0.00    +0.000 A 
ATOM      5  O   UNL     1       1.837   7.179  20.596  0.00  0.00    +0.000 OA
ENDROOT
BRANCH   1  10
ATOM      6  C   UNL     1       4.887   4.512  18.647  0.00  0.00    +0.000 A 
ATOM      7  C   UNL     1       4.205   3.639  17.801  0.00  0.00    +0.000 A 
ATOM      8  C   UNL     1       2.864   3.863  17.486  0.00  0.00    +0.000 A 
ATOM      9  C   UNL     1       2.201   4.981  18.000  0.00  0.00    +0.000 A 
ATOM     10  C   UNL     1       2.879   5.887  18.821  0.00  0.00    +0.000 A 
ATOM     11  C   UNL     1       4.226   5.635  19.148  0.00  0.00    +0.000 A 
BRANCH   6  12
ATOM     12  O   UNL     1       6.206   4.224  18.871  0.00  0.00    +0.000 OA
BRANCH  12  14
ATOM     13  C   UNL     1       7.884   5.920  18.965  0.00  0.00    +0.000 C 
ATOM     14  C   UNL     1       7.145   4.944  18.067  0.00  0.00    +0.000 C 
ENDBRANCH  12  14
ENDBRANCH   6  12
ENDBRANCH   1  10
BRANCH   3  15
ATOM     15  C   UNL     1       0.745  10.318  18.993  0.00  0.00    +0.000 C 
BRANCH  15  16
ATOM     16  N   UNL     1      -0.715  10.391  19.182  0.00  0.00    +0.000 NA
ATOM     17  C   UNL     1      -1.056  11.341  20.257  0.00  0.00    +0.000 C 
BRANCH  16  18
ATOM     18  C   UNL     1      -1.381  10.851  17.941  0.00  0.00    +0.000 C 
BRANCH  18  19
ATOM     19  C   UNL     1      -2.638  10.065  17.502  0.00  0.00    +0.000 C 
ATOM     20  C   UNL     1      -3.932  10.774  17.901  0.00  0.00    +0.000 C 
ATOM     21  C   UNL     1      -2.604   9.847  15.986  0.00  0.00    +0.000 C 
ENDBRANCH  18  19
ENDBRANCH  16  18
ENDBRANCH  15  16
ENDBRANCH   3  15
TORSDOF 7
ENDMDL
MODEL 8
REMARK VINA RESULT:      -6.4      4.429      8.189
REMARK  Name = 
REMARK  11 active torsions:
REMARK  status: ('A' for Active; 'I' for Inactive)
REMARK    1  A    between atoms: C_1  and  C_2
REMARK    2  A    between atoms: C_2  and  O_3
REMARK    3  A    between atoms: O_3  and  C_4
REMARK    4  A    between atoms: C_8  and  C_9
REMARK    5  A    between atoms: C_11  and  C_12
REMARK    6  A    between atoms: C_12  and  N_13
REMARK    7  A    between atoms: N_13  and  C_14
REMARK    8  A    between atoms: N_13  and  C_15
REMARK    9  A    between atoms: C_15  and  C_16
REMARK   10  A    between atoms: C_16  and  C_17
REMARK   11  A    between atoms: C_16  and  C_18
REMARK                            x       y       z     vdW  Elec       q    Type
REMARK                         _______ _______ _______ _____ _____    ______ ____
ROOT
ATOM      1  C   UNL     1       3.223   6.255  18.787  0.00  0.00    +0.000 A 
ATOM      2  N   UNL     1       3.587   5.838  17.588  0.00  0.00    +0.000 NA
ATOM      3  C   UNL     1       4.467   4.810  17.838  0.00  0.00    +0.000 A 
ATOM      4  C   UNL     1       4.556   4.612  19.196  0.00  0.00    +0.000 A 
ATOM      5  O   UNL     1       3.764   5.532  19.820  0.00  0.00    +0.000 OA
ENDROOT
BRANCH   1  10
ATOM      6  C   UNL     1       0.885   8.479  20.703  0.00  0.00    +0.000 A 
ATOM      7  C   UNL     1       0.649   9.498  19.783  0.00  0.00    +0.000 A 
ATOM      8  C   UNL     1       1.302   9.503  18.549  0.00  0.00    +0.000 A 
ATOM      9  C   UNL     1       2.184   8.470  18.219  0.00  0.00    +0.000 A 
ATOM     10  C   UNL     1       2.406   7.419  19.115  0.00  0.00    +0.000 A 
ATOM     11  C   UNL     1       1.755   7.441  20.365  0.00  0.00    +0.000 A 
BRANCH   6  12
ATOM     12  O   UNL     1       0.175   8.546  21.871  0.00  0.00    +0.000 OA
BRANCH  12  14
ATOM     13  C   UNL     1      -0.835  10.320  23.109  0.00  0.00    +0.000 C 
ATOM     14  C   UNL     1       0.474   9.660  22.718  0.00  0.00    +0.000 C 
ENDBRANCH  12  14
ENDBRANCH   6  12
ENDBRANCH   1  10
BRANCH   3  15
ATOM     15  C   UNL     1       5.199   4.160  16.710  0.00  0.00    +0.000 C 
BRANCH  15  16
ATOM     16  N   UNL     1       6.523   4.761  16.470  0.00  0.00    +0.000 NA
ATOM     17  C   UNL     1       6.892   4.661  15.046  0.00  0.00    +0.000 C 
BRANCH  16  18
ATOM     18  C   UNL     1       6.521   6.196  16.840  0.00  0.00    +0.000 C 
BRANCH  18  19
ATOM     19  C   UNL     1       7.767   6.715  17.594  0.00  0.00    +0.000 C 
ATOM     20  C   UNL     1       7.794   8.240  17.687  0.00  0.00    +0.000 C 
ATOM     21  C   UNL     1       7.810   6.101  18.997  0.00  0.00    +0.000 C 
ENDBRANCH  18  19
ENDBRANCH  16  18
ENDBRANCH  15  16
ENDBRANCH   3  15
TORSDOF 7
ENDMDL
MODEL 9
REMARK VINA RESULT:      -6.3      4.640      8.193
REMARK  Name = 
REMARK  11 active torsions:
REMARK  status: ('A' for Active; 'I' for Inactive)
REMARK    1  A    between atoms: C_1  and  C_2
REMARK    2  A    between atoms: C_2  and  O_3
REMARK    3  A    between atoms: O_3  and  C_4
REMARK    4  A    between atoms: C_8  and  C_9
REMARK    5  A    between atoms: C_11  and  C_12
REMARK    6  A    between atoms: C_12  and  N_13
REMARK    7  A    between atoms: N_13  and  C_14
REMARK    8  A    between atoms: N_13  and  C_15
REMARK    9  A    between atoms: C_15  and  C_16
REMARK   10  A    between atoms: C_16  and  C_17
REMARK   11  A    between atoms: C_16  and  C_18
REMARK                            x       y       z     vdW  Elec       q    Type
REMARK                         _______ _______ _______ _____ _____    ______ ____
ROOT
ATOM      1  C   UNL     1       2.924   6.380  19.157  0.00  0.00    +0.000 A 
ATOM      2  N   UNL     1       4.145   6.170  18.701  0.00  0.00    +0.000 NA
ATOM      3  C   UNL     1       4.420   4.868  19.049  0.00  0.00    +0.000 A 
ATOM      4  C   UNL     1       3.315   4.322  19.662  0.00  0.00    +0.000 A 
ATOM      5  O   UNL     1       2.346   5.280  19.739  0.00  0.00    +0.000 OA
ENDROOT
BRANCH   1  10
ATOM      6  C   UNL     1       0.842   9.206  20.485  0.00  0.00    +0.000 A 
ATOM      7  C   UNL     1       0.583   9.933  19.325  0.00  0.00    +0.000 A 
ATOM      8  C   UNL     1       1.139   9.543  18.106  0.00  0.00    +0.000 A 
ATOM      9  C   UNL     1       1.945   8.404  18.036  0.00  0.00    +0.000 A 
ATOM     10  C   UNL     1       2.187   7.640  19.183  0.00  0.00    +0.000 A 
ATOM     11  C   UNL     1       1.636   8.060  20.410  0.00  0.00    +0.000 A 
BRANCH   6  12
ATOM     12  O   UNL     1       0.226   9.650  21.623  0.00  0.00    +0.000 OA
BRANCH  12  14
ATOM     13  C   UNL     1      -1.110  11.277  22.748  0.00  0.00    +0.000 C 
ATOM     14  C   UNL     1      -0.074  11.048  21.664  0.00  0.00    +0.000 C 
ENDBRANCH  12  14
ENDBRANCH   6  12
ENDBRANCH   1  10
BRANCH   3  15
ATOM     15  C   UNL     1       5.779   4.298  18.810  0.00  0.00    +0.000 C 
BRANCH  15  16
ATOM     16  N   UNL     1       6.653   5.210  18.050  0.00  0.00    +0.000 NA
ATOM     17  C   UNL     1       7.768   5.686  18.889  0.00  0.00    +0.000 C 
BRANCH  16  18
ATOM     18  C   UNL     1       7.231   4.521  16.873  0.00  0.00    +0.000 C 
BRANCH  18  19
ATOM     19  C   UNL     1       6.786   5.036  15.485  0.00  0.00    +0.000 C 
ATOM     20  C   UNL     1       6.318   3.904  14.570  0.00  0.00    +0.000 C 
ATOM     21  C   UNL     1       5.668   6.071  15.656  0.00  0.00    +0.000 C 
ENDBRANCH  18  19
ENDBRANCH  16  18
ENDBRANCH  15  16
ENDBRANCH   3  15
TORSDOF 7
ENDMDL
