MODEL 1
REMARK VINA RESULT:      -7.8      0.000      0.000
REMARK  Name = 
REMARK  8 active torsions:
REMARK  status: ('A' for Active; 'I' for Inactive)
REMARK    1  A    between atoms: C_1  and  C_2
REMARK    2  A    between atoms: C_2  and  C_3
REMARK    3  A    between atoms: C_3  and  N_4
REMARK    4  A    between atoms: N_4  and  N_5
REMARK    5  A    between atoms: C_6  and  C_8
REMARK    6  A    between atoms: C_11  and  C_12
REMARK    7  A    between atoms: C_12  and  N_13
REMARK    8  A    between atoms: C_14  and  C_16
REMARK                            x       y       z     vdW  Elec       q    Type
REMARK                         _______ _______ _______ _____ _____    ______ ____
ROOT
ATOM      1  C   UNL     1       5.439   5.141  15.856  0.00  0.00    +0.000 A 
ATOM      2  C   UNL     1       5.322   6.508  16.131  0.00  0.00    +0.000 A 
ATOM      3  C   UNL     1       4.446   6.960  17.129  0.00  0.00    +0.000 A 
ATOM      4  C   UNL     1       3.668   6.051  17.862  0.00  0.00    +0.000 A 
ATOM      5  C   UNL     1       3.782   4.684  17.573  0.00  0.00    +0.000 A 
ATOM      6  C   UNL     1       4.658   4.229  16.579  0.00  0.00    +0.000 A 
ENDROOT
BRANCH   1   8
ATOM      7  N   UNL     1       5.924   3.611  14.010  0.00  0.00    +0.000 N 
ATOM      8  C   UNL     1       6.357   4.698  14.765  0.00  0.00    +0.000 C 
ATOM      9  O   UNL     1       7.423   5.275  14.569  0.00  0.00    +0.000 OA
ATOM     10  H   UNL     1       5.172   3.019  14.349  0.00  0.00    +0.000 HD
BRANCH   7  11
ATOM     11  N   UNL     1       6.736   3.114  12.964  0.00  0.00    +0.000 NA
ATOM     12  H   UNL     1       7.509   3.784  12.833  0.00  0.00    +0.000 HD
BRANCH  11  13
ATOM     13  C   UNL     1       5.962   3.022  11.721  0.00  0.00    +0.000 C 
BRANCH  13  15
ATOM     14  C   UNL     1       3.686   3.314  10.685  0.00  0.00    +0.000 C 
ATOM     15  C   UNL     1       4.486   3.321  11.981  0.00  0.00    +0.000 C 
ENDBRANCH  13  15
ENDBRANCH  11  13
ENDBRANCH   7  11
ENDBRANCH   1   8
BRANCH   4  16
ATOM     16  C   UNL     1       2.820   6.520  19.015  0.00  0.00    +0.000 C 
BRANCH  16  17
ATOM     17  N   UNL     1       2.102   7.770  18.839  0.00  0.00    +0.000 N 
ATOM     18  C   UNL     1       1.499   8.284  19.978  0.00  0.00    +0.000 C 
ATOM     19  O   UNL     1       1.505   7.622  21.017  0.00  0.00    +0.000 OA
ATOM     20  H   UNL     1       2.240   8.361  18.029  0.00  0.00    +0.000 HD
BRANCH  18  21
ATOM     21  C   UNL     1       0.892   9.604  19.966  0.00  0.00    +0.000 A 
ATOM     22  C   UNL     1      -0.162  10.017  20.764  0.00  0.00    +0.000 A 
ATOM     23  C   UNL     1      -0.469  11.342  20.417  0.00  0.00    +0.000 A 
ATOM     24  C   UNL     1      -1.417  12.284  20.860  0.00  0.00    +0.000 A 
ATOM     25  C   UNL     1      -1.457  13.538  20.245  0.00  0.00    +0.000 A 
ATOM     26  C   UNL     1      -0.575  13.849  19.209  0.00  0.00    +0.000 A 
ATOM     27  C   UNL     1       0.389  12.926  18.762  0.00  0.00    +0.000 A 
ATOM     28  C   UNL     1       0.412  11.682  19.395  0.00  0.00    +0.000 A 
ATOM     29  O   UNL     1       1.263  10.624  19.126  0.00  0.00    +0.000 OA
ENDBRANCH  18  21
ENDBRANCH  16  17
ENDBRANCH   4  16
TORSDOF 7
ENDMDL
MODEL 2
REMARK VINA RESULT:      -7.6      5.463      7.463
REMARK  Name = 
REMARK  8 active torsions:
REMARK  status: ('A' for Active; 'I' for Inactive)
REMARK    1  A    between atoms: C_1  and  C_2
REMARK    2  A    between atoms: C_2  and  C_3
REMARK    3  A    between atoms: C_3  and  N_4
REMARK    4  A    between atoms: N_4  and  N_5
REMARK    5  A    between atoms: C_6  and  C_8
REMARK    6  A    between atoms: C_11  and  C_12
REMARK    7  A    between atoms: C_12  and  N_13
REMARK    8  A    between atoms: C_14  and  C_16
REMARK                            x       y       z     vdW  Elec       q    Type
REMARK                         _______ _______ _______ _____ _____    ______ ____
ROOT
ATOM      1  C   UNL     1       3.486   4.549  17.345  0.00  0.00    +0.000 A 
ATOM      2  C   UNL     1       4.463   3.861  16.617  0.00  0.00    +0.000 A 
ATOM      3  C   UNL     1       5.712   4.450  16.370  0.00  0.00    +0.000 A 
ATOM      4  C   UNL     1       5.999   5.741  16.839  0.00  0.00    +0.000 A 
ATOM      5  C   UNL     1       5.011   6.429  17.558  0.00  0.00    +0.000 A 
ATOM      6  C   UNL     1       3.765   5.842  17.810  0.00  0.00    +0.000 A 
ENDROOT
BRANCH   1   8
ATOM      7  N   UNL     1       2.182   2.639  18.143  0.00  0.00    +0.000 N 
ATOM      8  C   UNL     1       2.157   3.905  17.563  0.00  0.00    +0.000 C 
ATOM      9  O   UNL     1       1.121   4.479  17.240  0.00  0.00    +0.000 OA
ATOM     10  H   UNL     1       3.046   2.106  18.170  0.00  0.00    +0.000 HD
BRANCH   7  11
ATOM     11  N   UNL     1       0.970   1.948  18.375  0.00  0.00    +0.000 NA
ATOM     12  H   UNL     1       0.273   2.326  17.715  0.00  0.00    +0.000 HD
BRANCH  11  13
ATOM     13  C   UNL     1       0.509   2.179  19.749  0.00  0.00    +0.000 C 
BRANCH  13  15
ATOM     14  C   UNL     1       1.637   3.879  21.225  0.00  0.00    +0.000 C 
ATOM     15  C   UNL     1       1.692   2.460  20.675  0.00  0.00    +0.000 C 
ENDBRANCH  13  15
ENDBRANCH  11  13
ENDBRANCH   7  11
ENDBRANCH   1   8
BRANCH   4  16
ATOM     16  C   UNL     1       7.377   6.327  16.682  0.00  0.00    +0.000 C 
BRANCH  16  17
ATOM     17  N   UNL     1       7.512   7.758  16.892  0.00  0.00    +0.000 N 
ATOM     18  C   UNL     1       8.188   8.137  18.042  0.00  0.00    +0.000 C 
ATOM     19  O   UNL     1       8.528   7.277  18.856  0.00  0.00    +0.000 OA
ATOM     20  H   UNL     1       7.365   8.428  16.147  0.00  0.00    +0.000 HD
BRANCH  18  21
ATOM     21  C   UNL     1       8.528   9.530  18.279  0.00  0.00    +0.000 A 
ATOM     22  C   UNL     1       9.278  10.010  19.341  0.00  0.00    +0.000 A 
ATOM     23  C   UNL     1       9.343  11.407  19.222  0.00  0.00    +0.000 A 
ATOM     24  C   UNL     1       9.943  12.434  19.973  0.00  0.00    +0.000 A 
ATOM     25  C   UNL     1       9.769  13.759  19.563  0.00  0.00    +0.000 A 
ATOM     26  C   UNL     1       9.010  14.057  18.430  0.00  0.00    +0.000 A 
ATOM     27  C   UNL     1       8.414  13.042  17.658  0.00  0.00    +0.000 A 
ATOM     28  C   UNL     1       8.606  11.728  18.085  0.00  0.00    +0.000 A 
ATOM     29  O   UNL     1       8.119  10.576  17.492  0.00  0.00    +0.000 OA
ENDBRANCH  18  21
ENDBRANCH  16  17
ENDBRANCH   4  16
TORSDOF 7
ENDMDL
MODEL 3
REMARK VINA RESULT:      -7.6      1.422      2.227
REMARK  Name = 
REMARK  8 active torsions:
REMARK  status: ('A' for Active; 'I' for Inactive)
REMARK    1  A    between atoms: C_1  and  C_2
REMARK    2  A    between atoms: C_2  and  C_3
REMARK    3  A    between atoms: C_3  and  N_4
REMARK    4  A    between atoms: N_4  and  N_5
REMARK    5  A    between atoms: C_6  and  C_8
REMARK    6  A    between atoms: C_11  and  C_12
REMARK    7  A    between atoms: C_12  and  N_13
REMARK    8  A    between atoms: C_14  and  C_16
REMARK                            x       y       z     vdW  Elec       q    Type
REMARK                         _______ _______ _______ _____ _____    ______ ____
ROOT
ATOM      1  C   UNL     1       5.636   5.045  16.077  0.00  0.00    +0.000 A 
ATOM      2  C   UNL     1       5.481   4.027  17.025  0.00  0.00    +0.000 A 
ATOM      3  C   UNL     1       4.747   4.254  18.197  0.00  0.00    +0.000 A 
ATOM      4  C   UNL     1       4.162   5.505  18.444  0.00  0.00    +0.000 A 
ATOM      5  C   UNL     1       4.330   6.524  17.495  0.00  0.00    +0.000 A 
ATOM      6  C   UNL     1       5.061   6.299  16.321  0.00  0.00    +0.000 A 
ENDROOT
BRANCH   1   8
ATOM      7  N   UNL     1       6.041   3.702  14.072  0.00  0.00    +0.000 N 
ATOM      8  C   UNL     1       6.452   4.779  14.854  0.00  0.00    +0.000 C 
ATOM      9  O   UNL     1       7.420   5.483  14.581  0.00  0.00    +0.000 OA
ATOM     10  H   UNL     1       5.402   3.010  14.449  0.00  0.00    +0.000 HD
BRANCH   7  11
ATOM     11  N   UNL     1       6.763   3.369  12.902  0.00  0.00    +0.000 NA
ATOM     12  H   UNL     1       7.474   4.103  12.764  0.00  0.00    +0.000 HD
BRANCH  11  13
ATOM     13  C   UNL     1       5.864   3.344  11.742  0.00  0.00    +0.000 C 
BRANCH  13  15
ATOM     14  C   UNL     1       6.705   1.087  11.008  0.00  0.00    +0.000 C 
ATOM     15  C   UNL     1       5.480   1.907  11.389  0.00  0.00    +0.000 C 
ENDBRANCH  13  15
ENDBRANCH  11  13
ENDBRANCH   7  11
ENDBRANCH   1   8
BRANCH   4  16
ATOM     16  C   UNL     1       3.272   5.716  19.640  0.00  0.00    +0.000 C 
BRANCH  16  17
ATOM     17  N   UNL     1       2.640   7.018  19.771  0.00  0.00    +0.000 N 
ATOM     18  C   UNL     1       1.561   7.079  20.640  0.00  0.00    +0.000 C 
ATOM     19  O   UNL     1       1.136   6.042  21.151  0.00  0.00    +0.000 OA
ATOM     20  H   UNL     1       3.095   7.869  19.468  0.00  0.00    +0.000 HD
BRANCH  18  21
ATOM     21  C   UNL     1       0.952   8.354  20.979  0.00  0.00    +0.000 A 
ATOM     22  C   UNL     1       1.082   9.530  20.258  0.00  0.00    +0.000 A 
ATOM     23  C   UNL     1       0.373  10.531  20.940  0.00  0.00    +0.000 A 
ATOM     24  C   UNL     1       0.137  11.900  20.714  0.00  0.00    +0.000 A 
ATOM     25  C   UNL     1      -0.613  12.617  21.651  0.00  0.00    +0.000 A 
ATOM     26  C   UNL     1      -1.115  11.986  22.791  0.00  0.00    +0.000 A 
ATOM     27  C   UNL     1      -0.900  10.615  23.026  0.00  0.00    +0.000 A 
ATOM     28  C   UNL     1      -0.153   9.921  22.074  0.00  0.00    +0.000 A 
ATOM     29  O   UNL     1       0.185   8.578  22.094  0.00  0.00    +0.000 OA
ENDBRANCH  18  21
ENDBRANCH  16  17
ENDBRANCH   4  16
TORSDOF 7
ENDMDL
MODEL 4
REMARK VINA RESULT:      -7.6      4.000      5.698
REMARK  Name = 
REMARK  8 active torsions:
REMARK  status: ('A' for Active; 'I' for Inactive)
REMARK    1  A    between atoms: C_1  and  C_2
REMARK    2  A    between atoms: C_2  and  C_3
REMARK    3  A    between atoms: C_3  and  N_4
REMARK    4  A    between atoms: N_4  and  N_5
REMARK    5  A    between atoms: C_6  and  C_8
REMARK    6  A    between atoms: C_11  and  C_12
REMARK    7  A    between atoms: C_12  and  N_13
REMARK    8  A    between atoms: C_14  and  C_16
REMARK                            x       y       z     vdW  Elec       q    Type
REMARK                         _______ _______ _______ _____ _____    ______ ____
ROOT
ATOM      1  C   UNL     1       2.475   7.089  18.849  0.00  0.00    +0.000 A 
ATOM      2  C   UNL     1       2.399   7.955  17.753  0.00  0.00    +0.000 A 
ATOM      3  C   UNL     1       1.807   9.220  17.886  0.00  0.00    +0.000 A 
ATOM      4  C   UNL     1       1.275   9.634  19.116  0.00  0.00    +0.000 A 
ATOM      5  C   UNL     1       1.345   8.757  20.208  0.00  0.00    +0.000 A 
ATOM      6  C   UNL     1       1.938   7.494  20.079  0.00  0.00    +0.000 A 
ENDROOT
BRANCH   1   8
ATOM      7  N   UNL     1       2.205   4.721  18.296  0.00  0.00    +0.000 N 
ATOM      8  C   UNL     1       3.083   5.738  18.665  0.00  0.00    +0.000 C 
ATOM      9  O   UNL     1       4.286   5.563  18.834  0.00  0.00    +0.000 OA
ATOM     10  H   UNL     1       1.204   4.846  18.402  0.00  0.00    +0.000 HD
BRANCH   7  11
ATOM     11  N   UNL     1       2.692   3.406  18.112  0.00  0.00    +0.000 NA
ATOM     12  H   UNL     1       2.702   3.224  17.097  0.00  0.00    +0.000 HD
BRANCH  11  13
ATOM     13  C   UNL     1       1.803   2.440  18.767  0.00  0.00    +0.000 C 
BRANCH  13  15
ATOM     14  C   UNL     1       1.342   2.790  21.218  0.00  0.00    +0.000 C 
ATOM     15  C   UNL     1       0.915   3.137  19.798  0.00  0.00    +0.000 C 
ENDBRANCH  13  15
ENDBRANCH  11  13
ENDBRANCH   7  11
ENDBRANCH   1   8
BRANCH   4  16
ATOM     16  C   UNL     1       0.751  11.034  19.294  0.00  0.00    +0.000 C 
BRANCH  16  17
ATOM     17  N   UNL     1      -0.559  11.174  19.907  0.00  0.00    +0.000 N 
ATOM     18  C   UNL     1      -0.571  11.703  21.190  0.00  0.00    +0.000 C 
ATOM     19  O   UNL     1       0.498  11.912  21.768  0.00  0.00    +0.000 OA
ATOM     20  H   UNL     1      -1.413  11.143  19.366  0.00  0.00    +0.000 HD
BRANCH  18  21
ATOM     21  C   UNL     1      -1.823  12.042  21.842  0.00  0.00    +0.000 A 
ATOM     22  C   UNL     1      -2.083  11.939  23.200  0.00  0.00    +0.000 A 
ATOM     23  C   UNL     1      -3.415  12.326  23.412  0.00  0.00    +0.000 A 
ATOM     24  C   UNL     1      -4.244  12.431  24.545  0.00  0.00    +0.000 A 
ATOM     25  C   UNL     1      -5.571  12.834  24.373  0.00  0.00    +0.000 A 
ATOM     26  C   UNL     1      -6.066  13.124  23.101  0.00  0.00    +0.000 A 
ATOM     27  C   UNL     1      -5.248  13.038  21.958  0.00  0.00    +0.000 A 
ATOM     28  C   UNL     1      -3.927  12.639  22.156  0.00  0.00    +0.000 A 
ATOM     29  O   UNL     1      -2.947  12.483  21.190  0.00  0.00    +0.000 OA
ENDBRANCH  18  21
ENDBRANCH  16  17
ENDBRANCH   4  16
TORSDOF 7
ENDMDL
MODEL 5
REMARK VINA RESULT:      -7.6      3.974     10.350
REMARK  Name = 
REMARK  8 active torsions:
REMARK  status: ('A' for Active; 'I' for Inactive)
REMARK    1  A    between atoms: C_1  and  C_2
REMARK    2  A    between atoms: C_2  and  C_3
REMARK    3  A    between atoms: C_3  and  N_4
REMARK    4  A    between atoms: N_4  and  N_5
REMARK    5  A    between atoms: C_6  and  C_8
REMARK    6  A    between atoms: C_11  and  C_12
REMARK    7  A    between atoms: C_12  and  N_13
REMARK    8  A    between atoms: C_14  and  C_16
REMARK                            x       y       z     vdW  Elec       q    Type
REMARK                         _______ _______ _______ _____ _____    ______ ____
ROOT
ATOM      1  C   UNL     1      -2.860  11.150  17.761  0.00  0.00    +0.000 A 
ATOM      2  C   UNL     1      -2.454  11.684  18.989  0.00  0.00    +0.000 A 
ATOM      3  C   UNL     1      -1.268  11.247  19.596  0.00  0.00    +0.000 A 
ATOM      4  C   UNL     1      -0.473  10.264  18.988  0.00  0.00    +0.000 A 
ATOM      5  C   UNL     1      -0.892   9.726  17.763  0.00  0.00    +0.000 A 
ATOM      6  C   UNL     1      -2.074  10.162  17.152  0.00  0.00    +0.000 A 
ENDROOT
BRANCH   1   8
ATOM      7  N   UNL     1      -4.885  12.514  17.922  0.00  0.00    +0.000 N 
ATOM      8  C   UNL     1      -4.145  11.615  17.158  0.00  0.00    +0.000 C 
ATOM      9  O   UNL     1      -4.501  11.213  16.054  0.00  0.00    +0.000 OA
ATOM     10  H   UNL     1      -4.686  12.630  18.911  0.00  0.00    +0.000 HD
BRANCH   7  11
ATOM     11  N   UNL     1      -6.122  12.997  17.435  0.00  0.00    +0.000 NA
ATOM     12  H   UNL     1      -6.149  14.010  17.624  0.00  0.00    +0.000 HD
BRANCH  11  13
ATOM     13  C   UNL     1      -7.233  12.345  18.137  0.00  0.00    +0.000 C 
BRANCH  13  15
ATOM     14  C   UNL     1      -7.219  10.681  20.027  0.00  0.00    +0.000 C 
ATOM     15  C   UNL     1      -6.877  12.103  19.604  0.00  0.00    +0.000 C 
ENDBRANCH  13  15
ENDBRANCH  11  13
ENDBRANCH   7  11
ENDBRANCH   1   8
BRANCH   4  16
ATOM     16  C   UNL     1       0.860   9.881  19.574  0.00  0.00    +0.000 C 
BRANCH  16  17
ATOM     17  N   UNL     1       1.771   9.145  18.715  0.00  0.00    +0.000 N 
ATOM     18  C   UNL     1       2.169   7.901  19.184  0.00  0.00    +0.000 C 
ATOM     19  O   UNL     1       1.833   7.545  20.315  0.00  0.00    +0.000 OA
ATOM     20  H   UNL     1       1.905   9.384  17.741  0.00  0.00    +0.000 HD
BRANCH  18  21
ATOM     21  C   UNL     1       2.945   7.004  18.345  0.00  0.00    +0.000 A 
ATOM     22  C   UNL     1       2.849   5.622  18.334  0.00  0.00    +0.000 A 
ATOM     23  C   UNL     1       3.793   5.135  17.415  0.00  0.00    +0.000 A 
ATOM     24  C   UNL     1       4.167   3.853  16.972  0.00  0.00    +0.000 A 
ATOM     25  C   UNL     1       5.202   3.739  16.040  0.00  0.00    +0.000 A 
ATOM     26  C   UNL     1       5.854   4.876  15.560  0.00  0.00    +0.000 A 
ATOM     27  C   UNL     1       5.484   6.167  15.982  0.00  0.00    +0.000 A 
ATOM     28  C   UNL     1       4.445   6.255  16.909  0.00  0.00    +0.000 A 
ATOM     29  O   UNL     1       3.915   7.407  17.463  0.00  0.00    +0.000 OA
ENDBRANCH  18  21
ENDBRANCH  16  17
ENDBRANCH   4  16
TORSDOF 7
ENDMDL
MODEL 6
REMARK VINA RESULT:      -7.4      6.225      7.293
REMARK  Name = 
REMARK  8 active torsions:
REMARK  status: ('A' for Active; 'I' for Inactive)
REMARK    1  A    between atoms: C_1  and  C_2
REMARK    2  A    between atoms: C_2  and  C_3
REMARK    3  A    between atoms: C_3  and  N_4
REMARK    4  A    between atoms: N_4  and  N_5
REMARK    5  A    between atoms: C_6  and  C_8
REMARK    6  A    between atoms: C_11  and  C_12
REMARK    7  A    between atoms: C_12  and  N_13
REMARK    8  A    between atoms: C_14  and  C_16
REMARK                            x       y       z     vdW  Elec       q    Type
REMARK                         _______ _______ _______ _____ _____    ______ ____
ROOT
ATOM      1  C   UNL     1       6.789   5.317  16.832  0.00  0.00    +0.000 A 
ATOM      2  C   UNL     1       6.637   6.655  16.451  0.00  0.00    +0.000 A 
ATOM      3  C   UNL     1       7.229   7.680  17.204  0.00  0.00    +0.000 A 
ATOM      4  C   UNL     1       7.976   7.383  18.354  0.00  0.00    +0.000 A 
ATOM      5  C   UNL     1       8.116   6.041  18.735  0.00  0.00    +0.000 A 
ATOM      6  C   UNL     1       7.528   5.015  17.985  0.00  0.00    +0.000 A 
ENDROOT
BRANCH   1   8
ATOM      7  N   UNL     1       6.539   4.137  14.704  0.00  0.00    +0.000 N 
ATOM      8  C   UNL     1       6.119   4.254  16.027  0.00  0.00    +0.000 C 
ATOM      9  O   UNL     1       5.255   3.540  16.527  0.00  0.00    +0.000 OA
ATOM     10  H   UNL     1       7.066   4.886  14.267  0.00  0.00    +0.000 HD
BRANCH   7  11
ATOM     11  N   UNL     1       5.949   3.165  13.863  0.00  0.00    +0.000 NA
ATOM     12  H   UNL     1       6.299   2.245  14.170  0.00  0.00    +0.000 HD
BRANCH  11  13
ATOM     13  C   UNL     1       6.346   3.392  12.469  0.00  0.00    +0.000 C 
BRANCH  13  15
ATOM     14  C   UNL     1       4.112   3.261  11.315  0.00  0.00    +0.000 C 
ATOM     15  C   UNL     1       5.462   2.586  11.518  0.00  0.00    +0.000 C 
ENDBRANCH  13  15
ENDBRANCH  11  13
ENDBRANCH   7  11
ENDBRANCH   1   8
BRANCH   4  16
ATOM     16  C   UNL     1       8.714   8.468  19.093  0.00  0.00    +0.000 C 
BRANCH  16  17
ATOM     17  N   UNL     1       8.806   9.763  18.442  0.00  0.00    +0.000 N 
ATOM     18  C   UNL     1       9.287  10.800  19.228  0.00  0.00    +0.000 C 
ATOM     19  O   UNL     1       9.497  10.603  20.426  0.00  0.00    +0.000 OA
ATOM     20  H   UNL     1       8.778   9.863  17.435  0.00  0.00    +0.000 HD
BRANCH  18  21
ATOM     21  C   UNL     1       9.578  12.099  18.647  0.00  0.00    +0.000 A 
ATOM     22  C   UNL     1      10.678  12.407  17.862  0.00  0.00    +0.000 A 
ATOM     23  C   UNL     1      10.605  13.771  17.538  0.00  0.00    +0.000 A 
ATOM     24  C   UNL     1      11.407  14.651  16.788  0.00  0.00    +0.000 A 
ATOM     25  C   UNL     1      11.033  15.995  16.702  0.00  0.00    +0.000 A 
ATOM     26  C   UNL     1       9.887  16.455  17.352  0.00  0.00    +0.000 A 
ATOM     27  C   UNL     1       9.065  15.587  18.095  0.00  0.00    +0.000 A 
ATOM     28  C   UNL     1       9.457  14.250  18.162  0.00  0.00    +0.000 A 
ATOM     29  O   UNL     1       8.812  13.223  18.830  0.00  0.00    +0.000 OA
ENDBRANCH  18  21
ENDBRANCH  16  17
ENDBRANCH   4  16
TORSDOF 7
ENDMDL
MODEL 7
REMARK VINA RESULT:      -7.4      2.561      9.581
REMARK  Name = 
REMARK  8 active torsions:
REMARK  status: ('A' for Active; 'I' for Inactive)
REMARK    1  A    between atoms: C_1  and  C_2
REMARK    2  A    between atoms: C_2  and  C_3
REMARK    3  A    between atoms: C_3  and  N_4
REMARK    4  A    between atoms: N_4  and  N_5
REMARK    5  A    between atoms: C_6  and  C_8
REMARK    6  A    between atoms: C_11  and  C_12
REMARK    7  A    between atoms: C_12  and  N_13
REMARK    8  A    between atoms: C_14  and  C_16
REMARK                            x       y       z     vdW  Elec       q    Type
REMARK                         _______ _______ _______ _____ _____    ______ ____
ROOT
ATOM      1  C   UNL     1       1.039   9.327  19.225  0.00  0.00    +0.000 A 
ATOM      2  C   UNL     1       1.201   8.609  20.415  0.00  0.00    +0.000 A 
ATOM      3  C   UNL     1       1.985   7.446  20.442  0.00  0.00    +0.000 A 
ATOM      4  C   UNL     1       2.611   6.979  19.276  0.00  0.00    +0.000 A 
ATOM      5  C   UNL     1       2.435   7.698  18.086  0.00  0.00    +0.000 A 
ATOM      6  C   UNL     1       1.656   8.861  18.056  0.00  0.00    +0.000 A 
ENDROOT
BRANCH   1   8
ATOM      7  N   UNL     1      -0.063  11.123  17.980  0.00  0.00    +0.000 N 
ATOM      8  C   UNL     1       0.172  10.544  19.225  0.00  0.00    +0.000 C 
ATOM      9  O   UNL     1      -0.291  10.983  20.273  0.00  0.00    +0.000 OA
ATOM     10  H   UNL     1       0.521  10.883  17.186  0.00  0.00    +0.000 HD
BRANCH   7  11
ATOM     11  N   UNL     1      -0.862  12.286  17.887  0.00  0.00    +0.000 NA
ATOM     12  H   UNL     1      -0.624  12.885  18.693  0.00  0.00    +0.000 HD
BRANCH  11  13
ATOM     13  C   UNL     1      -2.284  11.931  17.953  0.00  0.00    +0.000 C 
BRANCH  13  15
ATOM     14  C   UNL     1      -3.140   9.655  17.302  0.00  0.00    +0.000 C 
ATOM     15  C   UNL     1      -2.665  11.010  16.794  0.00  0.00    +0.000 C 
ENDBRANCH  13  15
ENDBRANCH  11  13
ENDBRANCH   7  11
ENDBRANCH   1   8
BRANCH   4  16
ATOM     16  C   UNL     1       3.550   5.803  19.327  0.00  0.00    +0.000 C 
BRANCH  16  17
ATOM     17  N   UNL     1       4.520   5.687  18.251  0.00  0.00    +0.000 N 
ATOM     18  C   UNL     1       4.231   4.741  17.279  0.00  0.00    +0.000 C 
ATOM     19  O   UNL     1       3.262   3.994  17.431  0.00  0.00    +0.000 OA
ATOM     20  H   UNL     1       5.211   6.403  18.070  0.00  0.00    +0.000 HD
BRANCH  18  21
ATOM     21  C   UNL     1       5.036   4.644  16.074  0.00  0.00    +0.000 A 
ATOM     22  C   UNL     1       6.165   5.396  15.793  0.00  0.00    +0.000 A 
ATOM     23  C   UNL     1       6.621   5.025  14.518  0.00  0.00    +0.000 A 
ATOM     24  C   UNL     1       7.696   5.422  13.700  0.00  0.00    +0.000 A 
ATOM     25  C   UNL     1       7.829   4.842  12.435  0.00  0.00    +0.000 A 
ATOM     26  C   UNL     1       6.910   3.890  11.991  0.00  0.00    +0.000 A 
ATOM     27  C   UNL     1       5.837   3.471  12.800  0.00  0.00    +0.000 A 
ATOM     28  C   UNL     1       5.728   4.060  14.060  0.00  0.00    +0.000 A 
ATOM     29  O   UNL     1       4.763   3.810  15.020  0.00  0.00    +0.000 OA
ENDBRANCH  18  21
ENDBRANCH  16  17
ENDBRANCH   4  16
TORSDOF 7
ENDMDL
MODEL 8
REMARK VINA RESULT:      -7.4      0.802      1.332
REMARK  Name = 
REMARK  8 active torsions:
REMARK  status: ('A' for Active; 'I' for Inactive)
REMARK    1  A    between atoms: C_1  and  C_2
REMARK    2  A    between atoms: C_2  and  C_3
REMARK    3  A    between atoms: C_3  and  N_4
REMARK    4  A    between atoms: N_4  and  N_5
REMARK    5  A    between atoms: C_6  and  C_8
REMARK    6  A    between atoms: C_11  and  C_12
REMARK    7  A    between atoms: C_12  and  N_13
REMARK    8  A    between atoms: C_14  and  C_16
REMARK                            x       y       z     vdW  Elec       q    Type
REMARK                         _______ _______ _______ _____ _____    ______ ____
ROOT
ATOM      1  C   UNL     1       5.267   5.142  16.382  0.00  0.00    +0.000 A 
ATOM      2  C   UNL     1       5.168   6.531  16.524  0.00  0.00    +0.000 A 
ATOM      3  C   UNL     1       4.226   7.090  17.399  0.00  0.00    +0.000 A 
ATOM      4  C   UNL     1       3.362   6.269  18.140  0.00  0.00    +0.000 A 
ATOM      5  C   UNL     1       3.459   4.880  17.984  0.00  0.00    +0.000 A 
ATOM      6  C   UNL     1       4.401   4.317  17.114  0.00  0.00    +0.000 A 
ENDROOT
BRANCH   1   8
ATOM      7  N   UNL     1       5.731   3.852  14.356  0.00  0.00    +0.000 N 
ATOM      8  C   UNL     1       6.260   4.581  15.418  0.00  0.00    +0.000 C 
ATOM      9  O   UNL     1       7.463   4.767  15.578  0.00  0.00    +0.000 OA
ATOM     10  H   UNL     1       4.773   3.519  14.390  0.00  0.00    +0.000 HD
BRANCH   7  11
ATOM     11  N   UNL     1       6.599   3.272  13.401  0.00  0.00    +0.000 NA
ATOM     12  H   UNL     1       7.533   3.682  13.550  0.00  0.00    +0.000 HD
BRANCH  11  13
ATOM     13  C   UNL     1       6.144   3.590  12.043  0.00  0.00    +0.000 C 
BRANCH  13  15
ATOM     14  C   UNL     1       3.909   3.309  10.918  0.00  0.00    +0.000 C 
ATOM     15  C   UNL     1       5.078   2.595  11.584  0.00  0.00    +0.000 C 
ENDBRANCH  13  15
ENDBRANCH  11  13
ENDBRANCH   7  11
ENDBRANCH   1   8
BRANCH   4  16
ATOM     16  C   UNL     1       2.435   6.860  19.169  0.00  0.00    +0.000 C 
BRANCH  16  17
ATOM     17  N   UNL     1       1.829   8.142  18.852  0.00  0.00    +0.000 N 
ATOM     18  C   UNL     1       1.306   8.843  19.928  0.00  0.00    +0.000 C 
ATOM     19  O   UNL     1       1.279   8.313  21.040  0.00  0.00    +0.000 OA
ATOM     20  H   UNL     1       1.999   8.615  17.974  0.00  0.00    +0.000 HD
BRANCH  18  21
ATOM     21  C   UNL     1       0.822  10.203  19.764  0.00  0.00    +0.000 A 
ATOM     22  C   UNL     1       1.376  11.164  18.933  0.00  0.00    +0.000 A 
ATOM     23  C   UNL     1       0.638  12.347  19.096  0.00  0.00    +0.000 A 
ATOM     24  C   UNL     1       0.711  13.639  18.541  0.00  0.00    +0.000 A 
ATOM     25  C   UNL     1      -0.198  14.609  18.974  0.00  0.00    +0.000 A 
ATOM     26  C   UNL     1      -1.157  14.302  19.941  0.00  0.00    +0.000 A 
ATOM     27  C   UNL     1      -1.253  13.013  20.496  0.00  0.00    +0.000 A 
ATOM     28  C   UNL     1      -0.338  12.061  20.045  0.00  0.00    +0.000 A 
ATOM     29  O   UNL     1      -0.241  10.739  20.446  0.00  0.00    +0.000 OA
ENDBRANCH  18  21
ENDBRANCH  16  17
ENDBRANCH   4  16
TORSDOF 7
ENDMDL
MODEL 9
REMARK VINA RESULT:      -7.2      3.835      5.687
REMARK  Name = 
REMARK  8 active torsions:
REMARK  status: ('A' for Active; 'I' for Inactive)
REMARK    1  A    between atoms: C_1  and  C_2
REMARK    2  A    between atoms: C_2  and  C_3
REMARK    3  A    between atoms: C_3  and  N_4
REMARK    4  A    between atoms: N_4  and  N_5
REMARK    5  A    between atoms: C_6  and  C_8
REMARK    6  A    between atoms: C_11  and  C_12
REMARK    7  A    between atoms: C_12  and  N_13
REMARK    8  A    between atoms: C_14  and  C_16
REMARK                            x       y       z     vdW  Elec       q    Type
REMARK                         _______ _______ _______ _____ _____    ______ ____
ROOT
ATOM      1  C   UNL     1       2.320   6.799  18.619  0.00  0.00    +0.000 A 
ATOM      2  C   UNL     1       2.021   7.021  19.968  0.00  0.00    +0.000 A 
ATOM      3  C   UNL     1       1.596   8.285  20.403  0.00  0.00    +0.000 A 
ATOM      4  C   UNL     1       1.471   9.349  19.496  0.00  0.00    +0.000 A 
ATOM      5  C   UNL     1       1.783   9.121  18.148  0.00  0.00    +0.000 A 
ATOM      6  C   UNL     1       2.204   7.859  17.710  0.00  0.00    +0.000 A 
ENDROOT
BRANCH   1   8
ATOM      7  N   UNL     1       1.830   4.593  17.680  0.00  0.00    +0.000 N 
ATOM      8  C   UNL     1       2.800   5.450  18.196  0.00  0.00    +0.000 C 
ATOM      9  O   UNL     1       3.983   5.142  18.308  0.00  0.00    +0.000 OA
ATOM     10  H   UNL     1       0.845   4.788  17.828  0.00  0.00    +0.000 HD
BRANCH   7  11
ATOM     11  N   UNL     1       2.193   3.290  17.267  0.00  0.00    +0.000 NA
ATOM     12  H   UNL     1       1.564   3.030  16.492  0.00  0.00    +0.000 HD
BRANCH  11  13
ATOM     13  C   UNL     1       2.018   2.341  18.371  0.00  0.00    +0.000 C 
BRANCH  13  15
ATOM     14  C   UNL     1       1.211   2.959  20.675  0.00  0.00    +0.000 C 
ATOM     15  C   UNL     1       0.809   2.723  19.225  0.00  0.00    +0.000 C 
ENDBRANCH  13  15
ENDBRANCH  11  13
ENDBRANCH   7  11
ENDBRANCH   1   8
BRANCH   4  16
ATOM     16  C   UNL     1       0.899  10.670  19.935  0.00  0.00    +0.000 C 
BRANCH  16  17
ATOM     17  N   UNL     1      -0.548  10.768  20.016  0.00  0.00    +0.000 N 
ATOM     18  C   UNL     1      -1.132  11.740  19.218  0.00  0.00    +0.000 C 
ATOM     19  O   UNL     1      -0.413  12.520  18.590  0.00  0.00    +0.000 OA
ATOM     20  H   UNL     1      -1.116  10.030  20.411  0.00  0.00    +0.000 HD
BRANCH  18  21
ATOM     21  C   UNL     1      -2.576  11.827  19.089  0.00  0.00    +0.000 A 
ATOM     22  C   UNL     1      -3.325  11.337  18.031  0.00  0.00    +0.000 A 
ATOM     23  C   UNL     1      -4.670  11.657  18.273  0.00  0.00    +0.000 A 
ATOM     24  C   UNL     1      -5.876  11.436  17.582  0.00  0.00    +0.000 A 
ATOM     25  C   UNL     1      -7.063  11.940  18.122  0.00  0.00    +0.000 A 
ATOM     26  C   UNL     1      -7.050  12.651  19.323  0.00  0.00    +0.000 A 
ATOM     27  C   UNL     1      -5.855  12.869  20.035  0.00  0.00    +0.000 A 
ATOM     28  C   UNL     1      -4.685  12.353  19.478  0.00  0.00    +0.000 A 
ATOM     29  O   UNL     1      -3.403  12.444  19.992  0.00  0.00    +0.000 OA
ENDBRANCH  18  21
ENDBRANCH  16  17
ENDBRANCH   4  16
TORSDOF 7
ENDMDL
