MODEL 1
REMARK VINA RESULT:      -8.7      0.000      0.000
REMARK  Name = 
REMARK  6 active torsions:
REMARK  status: ('A' for Active; 'I' for Inactive)
REMARK    1  A    between atoms: C_1  and  N_2
REMARK    2  A    between atoms: C_4  and  C_5
REMARK    3  A    between atoms: C_8  and  N_9
REMARK    4  A    between atoms: N_12  and  C_13
REMARK    5  A    between atoms: C_18  and  C_19
REMARK    6  A    between atoms: C_22  and  C_23
REMARK                            x       y       z     vdW  Elec       q    Type
REMARK                         _______ _______ _______ _____ _____    ______ ____
ROOT
ATOM      1  N   UNL     1       1.812   6.749  21.021  0.00  0.00    +0.000 N 
ATOM      2  C   UNL     1       2.658   6.015  20.243  0.00  0.00    +0.000 A 
ATOM      3  N   UNL     1       3.554   6.455  19.337  0.00  0.00    +0.000 NA
ATOM      4  N   UNL     1       4.095   5.345  18.781  0.00  0.00    +0.000 N 
ATOM      5  C   UNL     1       3.548   4.207  19.312  0.00  0.00    +0.000 A 
ATOM      6  C   UNL     1       2.600   4.589  20.234  0.00  0.00    +0.000 A 
ATOM      7  H   UNL     1       1.265   6.228  21.710  0.00  0.00    +0.000 HD
ENDROOT
BRANCH   1  11
ATOM      8  C   UNL     1       0.731  10.797  20.697  0.00  0.00    +0.000 A 
ATOM      9  C   UNL     1       0.860  10.035  19.541  0.00  0.00    +0.000 A 
ATOM     10  C   UNL     1       1.185   8.676  19.654  0.00  0.00    +0.000 A 
ATOM     11  C   UNL     1       1.399   8.095  20.913  0.00  0.00    +0.000 A 
ATOM     12  C   UNL     1       1.228   8.947  22.001  0.00  0.00    +0.000 A 
ATOM     13  N   UNL     1       0.904  10.266  21.927  0.00  0.00    +0.000 NA
BRANCH   8  17
ATOM     14  C   UNL     1      -0.074  15.406  19.049  0.00  0.00    +0.000 C 
ATOM     15  N   UNL     1       0.018  14.237  19.890  0.00  0.00    +0.000 N 
ATOM     16  C   UNL     1       0.331  12.970  19.500  0.00  0.00    +0.000 A 
ATOM     17  C   UNL     1       0.376  12.205  20.651  0.00  0.00    +0.000 A 
ATOM     18  C   UNL     1       0.039  13.121  21.673  0.00  0.00    +0.000 A 
ATOM     19  N   UNL     1      -0.183  14.357  21.214  0.00  0.00    +0.000 NA
ENDBRANCH   8  17
ENDBRANCH   1  11
BRANCH   4  20
ATOM     20  C   UNL     1       4.775   5.431  17.457  0.00  0.00    +0.000 C 
ATOM     21  C   UNL     1       4.714   4.031  16.862  0.00  0.00    +0.000 C 
ATOM     22  C   UNL     1       5.658   3.720  15.722  0.00  0.00    +0.000 C 
ATOM     23  C   UNL     1       6.950   4.467  15.487  0.00  0.00    +0.000 C 
ATOM     24  C   UNL     1       7.018   5.848  16.098  0.00  0.00    +0.000 C 
ATOM     25  C   UNL     1       6.193   6.083  17.392  0.00  0.00    +0.000 C 
BRANCH  25  26
ATOM     26  C   UNL     1       7.060   5.701  18.524  0.00  0.00    +0.000 C 
ATOM     27  N   UNL     1       7.719   5.383  19.410  0.00  0.00    +0.000 NA
ENDBRANCH  25  26
ENDBRANCH   4  20
BRANCH   6  28
ATOM     28  C   UNL     1       1.694   3.704  20.948  0.00  0.00    +0.000 C 
ATOM     29  N   UNL     1       0.519   3.407  20.298  0.00  0.00    +0.000 N 
ATOM     30  O   UNL     1       1.927   3.280  22.071  0.00  0.00    +0.000 OA
ATOM     31  H   UNL     1       0.231   3.919  19.478  0.00  0.00    +0.000 HD
ATOM     32  H   UNL     1      -0.156   2.846  20.781  0.00  0.00    +0.000 HD
ENDBRANCH   6  28
TORSDOF 5
ENDMDL
MODEL 2
REMARK VINA RESULT:      -8.6      0.780      1.038
REMARK  Name = 
REMARK  6 active torsions:
REMARK  status: ('A' for Active; 'I' for Inactive)
REMARK    1  A    between atoms: C_1  and  N_2
REMARK    2  A    between atoms: C_4  and  C_5
REMARK    3  A    between atoms: C_8  and  N_9
REMARK    4  A    between atoms: N_12  and  C_13
REMARK    5  A    between atoms: C_18  and  C_19
REMARK    6  A    between atoms: C_22  and  C_23
REMARK                            x       y       z     vdW  Elec       q    Type
REMARK                         _______ _______ _______ _____ _____    ______ ____
ROOT
ATOM      1  N   UNL     1       1.726   6.702  20.966  0.00  0.00    +0.000 N 
ATOM      2  C   UNL     1       2.610   5.981  20.219  0.00  0.00    +0.000 A 
ATOM      3  N   UNL     1       3.492   6.431  19.303  0.00  0.00    +0.000 NA
ATOM      4  N   UNL     1       4.088   5.328  18.790  0.00  0.00    +0.000 N 
ATOM      5  C   UNL     1       3.589   4.185  19.357  0.00  0.00    +0.000 A 
ATOM      6  C   UNL     1       2.618   4.554  20.260  0.00  0.00    +0.000 A 
ATOM      7  H   UNL     1       1.198   6.181  21.669  0.00  0.00    +0.000 HD
ENDROOT
BRANCH   1  11
ATOM      8  C   UNL     1       0.187  10.575  20.431  0.00  0.00    +0.000 A 
ATOM      9  C   UNL     1      -0.042   9.916  21.633  0.00  0.00    +0.000 A 
ATOM     10  C   UNL     1       0.504   8.639  21.823  0.00  0.00    +0.000 A 
ATOM     11  C   UNL     1       1.252   8.023  20.808  0.00  0.00    +0.000 A 
ATOM     12  C   UNL     1       1.430   8.781  19.654  0.00  0.00    +0.000 A 
ATOM     13  N   UNL     1       0.924  10.025  19.441  0.00  0.00    +0.000 NA
BRANCH   8  17
ATOM     14  C   UNL     1      -0.180  15.279  18.899  0.00  0.00    +0.000 C 
ATOM     15  N   UNL     1      -0.469  13.990  19.477  0.00  0.00    +0.000 N 
ATOM     16  C   UNL     1       0.309  12.873  19.420  0.00  0.00    +0.000 A 
ATOM     17  C   UNL     1      -0.331  11.909  20.177  0.00  0.00    +0.000 A 
ATOM     18  C   UNL     1      -1.509  12.557  20.614  0.00  0.00    +0.000 A 
ATOM     19  N   UNL     1      -1.599  13.821  20.188  0.00  0.00    +0.000 NA
ENDBRANCH   8  17
ENDBRANCH   1  11
BRANCH   4  20
ATOM     20  C   UNL     1       4.773   5.399  17.468  0.00  0.00    +0.000 C 
ATOM     21  C   UNL     1       4.717   3.992  16.890  0.00  0.00    +0.000 C 
ATOM     22  C   UNL     1       5.667   3.668  15.758  0.00  0.00    +0.000 C 
ATOM     23  C   UNL     1       6.958   4.415  15.519  0.00  0.00    +0.000 C 
ATOM     24  C   UNL     1       7.021   5.804  16.113  0.00  0.00    +0.000 C 
ATOM     25  C   UNL     1       6.189   6.053  17.401  0.00  0.00    +0.000 C 
BRANCH  25  26
ATOM     26  C   UNL     1       7.053   5.687  18.541  0.00  0.00    +0.000 C 
ATOM     27  N   UNL     1       7.708   5.416  19.446  0.00  0.00    +0.000 NA
ENDBRANCH  25  26
ENDBRANCH   4  20
BRANCH   6  28
ATOM     28  C   UNL     1       1.747   3.654  20.999  0.00  0.00    +0.000 C 
ATOM     29  N   UNL     1       0.554   3.348  20.389  0.00  0.00    +0.000 N 
ATOM     30  O   UNL     1       2.025   3.225  22.110  0.00  0.00    +0.000 OA
ATOM     31  H   UNL     1       0.231   3.862  19.583  0.00  0.00    +0.000 HD
ATOM     32  H   UNL     1      -0.097   2.776  20.890  0.00  0.00    +0.000 HD
ENDBRANCH   6  28
TORSDOF 5
ENDMDL
MODEL 3
REMARK VINA RESULT:      -8.1      1.334      1.560
REMARK  Name = 
REMARK  6 active torsions:
REMARK  status: ('A' for Active; 'I' for Inactive)
REMARK    1  A    between atoms: C_1  and  N_2
REMARK    2  A    between atoms: C_4  and  C_5
REMARK    3  A    between atoms: C_8  and  N_9
REMARK    4  A    between atoms: N_12  and  C_13
REMARK    5  A    between atoms: C_18  and  C_19
REMARK    6  A    between atoms: C_22  and  C_23
REMARK                            x       y       z     vdW  Elec       q    Type
REMARK                         _______ _______ _______ _____ _____    ______ ____
ROOT
ATOM      1  N   UNL     1       2.425   6.310  20.289  0.00  0.00    +0.000 N 
ATOM      2  C   UNL     1       3.275   5.678  19.429  0.00  0.00    +0.000 A 
ATOM      3  N   UNL     1       4.028   6.218  18.450  0.00  0.00    +0.000 NA
ATOM      4  N   UNL     1       4.641   5.178  17.837  0.00  0.00    +0.000 N 
ATOM      5  C   UNL     1       4.279   3.984  18.404  0.00  0.00    +0.000 A 
ATOM      6  C   UNL     1       3.381   4.254  19.411  0.00  0.00    +0.000 A 
ATOM      7  H   UNL     1       2.006   5.730  21.018  0.00  0.00    +0.000 HD
ENDROOT
BRANCH   1  11
ATOM      8  C   UNL     1       0.586  10.082  20.066  0.00  0.00    +0.000 A 
ATOM      9  C   UNL     1       0.540   9.375  21.262  0.00  0.00    +0.000 A 
ATOM     10  C   UNL     1       1.185   8.133  21.344  0.00  0.00    +0.000 A 
ATOM     11  C   UNL     1       1.851   7.599  20.231  0.00  0.00    +0.000 A 
ATOM     12  C   UNL     1       1.846   8.399  19.092  0.00  0.00    +0.000 A 
ATOM     13  N   UNL     1       1.239   9.610  18.981  0.00  0.00    +0.000 NA
BRANCH   8  17
ATOM     14  C   UNL     1      -0.266  14.784  18.737  0.00  0.00    +0.000 C 
ATOM     15  N   UNL     1      -0.399  13.465  19.306  0.00  0.00    +0.000 N 
ATOM     16  C   UNL     1       0.436  12.405  19.120  0.00  0.00    +0.000 A 
ATOM     17  C   UNL     1      -0.044  11.383  19.919  0.00  0.00    +0.000 A 
ATOM     18  C   UNL     1      -1.196  11.941  20.517  0.00  0.00    +0.000 A 
ATOM     19  N   UNL     1      -1.418  13.205  20.144  0.00  0.00    +0.000 NA
ENDBRANCH   8  17
ENDBRANCH   1  11
BRANCH   4  20
ATOM     20  C   UNL     1       5.183   5.341  16.458  0.00  0.00    +0.000 C 
ATOM     21  C   UNL     1       4.669   4.150  15.660  0.00  0.00    +0.000 C 
ATOM     22  C   UNL     1       5.368   3.832  14.358  0.00  0.00    +0.000 C 
ATOM     23  C   UNL     1       6.789   4.248  14.057  0.00  0.00    +0.000 C 
ATOM     24  C   UNL     1       7.306   5.415  14.865  0.00  0.00    +0.000 C 
ATOM     25  C   UNL     1       6.713   5.599  16.288  0.00  0.00    +0.000 C 
BRANCH  25  26
ATOM     26  C   UNL     1       7.544   4.791  17.202  0.00  0.00    +0.000 C 
ATOM     27  N   UNL     1       8.212   4.180  17.910  0.00  0.00    +0.000 NA
ENDBRANCH  25  26
ENDBRANCH   4  20
BRANCH   6  28
ATOM     28  C   UNL     1       2.651   3.271  20.196  0.00  0.00    +0.000 C 
ATOM     29  N   UNL     1       2.277   2.133  19.522  0.00  0.00    +0.000 N 
ATOM     30  O   UNL     1       2.343   3.451  21.366  0.00  0.00    +0.000 OA
ATOM     31  H   UNL     1       2.339   2.076  18.517  0.00  0.00    +0.000 HD
ATOM     32  H   UNL     1       1.725   1.457  20.012  0.00  0.00    +0.000 HD
ENDBRANCH   6  28
TORSDOF 5
ENDMDL
MODEL 4
REMARK VINA RESULT:      -8.0      1.354      2.252
REMARK  Name = 
REMARK  6 active torsions:
REMARK  status: ('A' for Active; 'I' for Inactive)
REMARK    1  A    between atoms: C_1  and  N_2
REMARK    2  A    between atoms: C_4  and  C_5
REMARK    3  A    between atoms: C_8  and  N_9
REMARK    4  A    between atoms: N_12  and  C_13
REMARK    5  A    between atoms: C_18  and  C_19
REMARK    6  A    between atoms: C_22  and  C_23
REMARK                            x       y       z     vdW  Elec       q    Type
REMARK                         _______ _______ _______ _____ _____    ______ ____
ROOT
ATOM      1  N   UNL     1       1.919   6.306  20.893  0.00  0.00    +0.000 N 
ATOM      2  C   UNL     1       2.852   5.449  20.385  0.00  0.00    +0.000 A 
ATOM      3  N   UNL     1       3.910   5.736  19.601  0.00  0.00    +0.000 NA
ATOM      4  N   UNL     1       4.488   4.547  19.308  0.00  0.00    +0.000 N 
ATOM      5  C   UNL     1       3.806   3.508  19.885  0.00  0.00    +0.000 A 
ATOM      6  C   UNL     1       2.731   4.038  20.563  0.00  0.00    +0.000 A 
ATOM      7  H   UNL     1       1.238   5.900  21.538  0.00  0.00    +0.000 HD
ENDROOT
BRANCH   1  11
ATOM      8  C   UNL     1       0.812  10.196  19.755  0.00  0.00    +0.000 A 
ATOM      9  C   UNL     1       0.545   9.767  21.050  0.00  0.00    +0.000 A 
ATOM     10  C   UNL     1       0.948   8.482  21.438  0.00  0.00    +0.000 A 
ATOM     11  C   UNL     1       1.593   7.630  20.529  0.00  0.00    +0.000 A 
ATOM     12  C   UNL     1       1.822   8.169  19.266  0.00  0.00    +0.000 A 
ATOM     13  N   UNL     1       1.453   9.413  18.860  0.00  0.00    +0.000 NA
BRANCH   8  17
ATOM     14  C   UNL     1       0.834  15.095  18.979  0.00  0.00    +0.000 C 
ATOM     15  N   UNL     1       0.482  13.697  18.959  0.00  0.00    +0.000 N 
ATOM     16  C   UNL     1       1.202  12.663  19.477  0.00  0.00    +0.000 A 
ATOM     17  C   UNL     1       0.440  11.523  19.295  0.00  0.00    +0.000 A 
ATOM     18  C   UNL     1      -0.710  11.996  18.624  0.00  0.00    +0.000 A 
ATOM     19  N   UNL     1      -0.687  13.316  18.414  0.00  0.00    +0.000 NA
ENDBRANCH   8  17
ENDBRANCH   1  11
BRANCH   4  20
ATOM     20  C   UNL     1       5.389   4.428  18.127  0.00  0.00    +0.000 C 
ATOM     21  C   UNL     1       5.668   5.851  17.664  0.00  0.00    +0.000 C 
ATOM     22  C   UNL     1       6.216   6.033  16.267  0.00  0.00    +0.000 C 
ATOM     23  C   UNL     1       6.025   5.020  15.163  0.00  0.00    +0.000 C 
ATOM     24  C   UNL     1       5.726   3.612  15.622  0.00  0.00    +0.000 C 
ATOM     25  C   UNL     1       4.975   3.460  16.973  0.00  0.00    +0.000 C 
BRANCH  25  26
ATOM     26  C   UNL     1       3.533   3.506  16.664  0.00  0.00    +0.000 C 
ATOM     27  N   UNL     1       2.409   3.514  16.425  0.00  0.00    +0.000 NA
ENDBRANCH  25  26
ENDBRANCH   4  20
BRANCH   6  28
ATOM     28  C   UNL     1       1.675   3.284  21.219  0.00  0.00    +0.000 C 
ATOM     29  N   UNL     1       0.522   3.118  20.489  0.00  0.00    +0.000 N 
ATOM     30  O   UNL     1       1.775   2.858  22.361  0.00  0.00    +0.000 OA
ATOM     31  H   UNL     1       0.357   3.645  19.645  0.00  0.00    +0.000 HD
ATOM     32  H   UNL     1      -0.249   2.653  20.928  0.00  0.00    +0.000 HD
ENDBRANCH   6  28
TORSDOF 5
ENDMDL
MODEL 5
REMARK VINA RESULT:      -7.8      1.106      2.017
REMARK  Name = 
REMARK  6 active torsions:
REMARK  status: ('A' for Active; 'I' for Inactive)
REMARK    1  A    between atoms: C_1  and  N_2
REMARK    2  A    between atoms: C_4  and  C_5
REMARK    3  A    between atoms: C_8  and  N_9
REMARK    4  A    between atoms: N_12  and  C_13
REMARK    5  A    between atoms: C_18  and  C_19
REMARK    6  A    between atoms: C_22  and  C_23
REMARK                            x       y       z     vdW  Elec       q    Type
REMARK                         _______ _______ _______ _____ _____    ______ ____
ROOT
ATOM      1  N   UNL     1       1.870   6.490  20.948  0.00  0.00    +0.000 N 
ATOM      2  C   UNL     1       2.808   5.679  20.379  0.00  0.00    +0.000 A 
ATOM      3  N   UNL     1       3.815   6.020  19.551  0.00  0.00    +0.000 NA
ATOM      4  N   UNL     1       4.421   4.859  19.207  0.00  0.00    +0.000 N 
ATOM      5  C   UNL     1       3.807   3.785  19.795  0.00  0.00    +0.000 A 
ATOM      6  C   UNL     1       2.748   4.262  20.533  0.00  0.00    +0.000 A 
ATOM      7  H   UNL     1       1.236   6.048  21.617  0.00  0.00    +0.000 HD
ENDROOT
BRANCH   1  11
ATOM      8  C   UNL     1       0.849  10.459  20.019  0.00  0.00    +0.000 A 
ATOM      9  C   UNL     1       1.238   9.602  18.996  0.00  0.00    +0.000 A 
ATOM     10  C   UNL     1       1.543   8.269  19.303  0.00  0.00    +0.000 A 
ATOM     11  C   UNL     1       1.478   7.808  20.627  0.00  0.00    +0.000 A 
ATOM     12  C   UNL     1       1.062   8.748  21.566  0.00  0.00    +0.000 A 
ATOM     13  N   UNL     1       0.751  10.044  21.301  0.00  0.00    +0.000 NA
BRANCH   8  17
ATOM     14  C   UNL     1      -1.342  14.899  20.319  0.00  0.00    +0.000 C 
ATOM     15  N   UNL     1      -0.484  13.808  19.929  0.00  0.00    +0.000 N 
ATOM     16  C   UNL     1      -0.387  12.587  20.527  0.00  0.00    +0.000 A 
ATOM     17  C   UNL     1       0.499  11.846  19.766  0.00  0.00    +0.000 A 
ATOM     18  C   UNL     1       0.896  12.744  18.750  0.00  0.00    +0.000 A 
ATOM     19  N   UNL     1       0.304  13.939  18.847  0.00  0.00    +0.000 NA
ENDBRANCH   8  17
ENDBRANCH   1  11
BRANCH   4  20
ATOM     20  C   UNL     1       5.268   4.796  17.982  0.00  0.00    +0.000 C 
ATOM     21  C   UNL     1       5.278   6.204  17.403  0.00  0.00    +0.000 C 
ATOM     22  C   UNL     1       5.714   6.362  15.964  0.00  0.00    +0.000 C 
ATOM     23  C   UNL     1       5.641   5.246  14.948  0.00  0.00    +0.000 C 
ATOM     24  C   UNL     1       5.608   3.849  15.524  0.00  0.00    +0.000 C 
ATOM     25  C   UNL     1       4.965   3.684  16.927  0.00  0.00    +0.000 C 
BRANCH  25  26
ATOM     26  C   UNL     1       3.521   3.468  16.709  0.00  0.00    +0.000 C 
ATOM     27  N   UNL     1       2.391   3.313  16.563  0.00  0.00    +0.000 NA
ENDBRANCH  25  26
ENDBRANCH   4  20
BRANCH   6  28
ATOM     28  C   UNL     1       1.753   3.456  21.224  0.00  0.00    +0.000 C 
ATOM     29  N   UNL     1       0.581   3.243  20.539  0.00  0.00    +0.000 N 
ATOM     30  O   UNL     1       1.918   3.028  22.358  0.00  0.00    +0.000 OA
ATOM     31  H   UNL     1       0.360   3.767  19.706  0.00  0.00    +0.000 HD
ATOM     32  H   UNL     1      -0.150   2.740  21.004  0.00  0.00    +0.000 HD
ENDBRANCH   6  28
TORSDOF 5
ENDMDL
MODEL 6
REMARK VINA RESULT:      -7.7      5.244      7.365
REMARK  Name = 
REMARK  6 active torsions:
REMARK  status: ('A' for Active; 'I' for Inactive)
REMARK    1  A    between atoms: C_1  and  N_2
REMARK    2  A    between atoms: C_4  and  C_5
REMARK    3  A    between atoms: C_8  and  N_9
REMARK    4  A    between atoms: N_12  and  C_13
REMARK    5  A    between atoms: C_18  and  C_19
REMARK    6  A    between atoms: C_22  and  C_23
REMARK                            x       y       z     vdW  Elec       q    Type
REMARK                         _______ _______ _______ _____ _____    ______ ____
ROOT
ATOM      1  N   UNL     1       7.025   7.150  16.821  0.00  0.00    +0.000 N 
ATOM      2  C   UNL     1       6.047   6.270  17.182  0.00  0.00    +0.000 A 
ATOM      3  N   UNL     1       5.195   6.348  18.224  0.00  0.00    +0.000 NA
ATOM      4  N   UNL     1       4.468   5.206  18.195  0.00  0.00    +0.000 N 
ATOM      5  C   UNL     1       4.854   4.398  17.158  0.00  0.00    +0.000 A 
ATOM      6  C   UNL     1       5.884   5.028  16.498  0.00  0.00    +0.000 A 
ATOM      7  H   UNL     1       7.512   6.950  15.945  0.00  0.00    +0.000 HD
ENDROOT
BRANCH   1  11
ATOM      8  C   UNL     1       8.966  10.246  18.895  0.00  0.00    +0.000 A 
ATOM      9  C   UNL     1       8.104  10.566  17.853  0.00  0.00    +0.000 A 
ATOM     10  C   UNL     1       7.429   9.533  17.187  0.00  0.00    +0.000 A 
ATOM     11  C   UNL     1       7.636   8.193  17.550  0.00  0.00    +0.000 A 
ATOM     12  C   UNL     1       8.508   7.992  18.616  0.00  0.00    +0.000 A 
ATOM     13  N   UNL     1       9.171   8.970  19.289  0.00  0.00    +0.000 NA
BRANCH   8  17
ATOM     14  C   UNL     1       9.941  14.143  21.806  0.00  0.00    +0.000 C 
ATOM     15  N   UNL     1      10.082  12.995  20.944  0.00  0.00    +0.000 N 
ATOM     16  C   UNL     1       9.087  12.179  20.497  0.00  0.00    +0.000 A 
ATOM     17  C   UNL     1       9.680  11.268  19.641  0.00  0.00    +0.000 A 
ATOM     18  C   UNL     1      11.049  11.619  19.679  0.00  0.00    +0.000 A 
ATOM     19  N   UNL     1      11.298  12.665  20.473  0.00  0.00    +0.000 NA
ENDBRANCH   8  17
ENDBRANCH   1  11
BRANCH   4  20
ATOM     20  C   UNL     1       3.759   4.744  19.422  0.00  0.00    +0.000 C 
ATOM     21  C   UNL     1       4.295   3.349  19.718  0.00  0.00    +0.000 C 
ATOM     22  C   UNL     1       3.487   2.478  20.653  0.00  0.00    +0.000 C 
ATOM     23  C   UNL     1       2.008   2.665  20.890  0.00  0.00    +0.000 C 
ATOM     24  C   UNL     1       1.471   4.043  20.575  0.00  0.00    +0.000 C 
ATOM     25  C   UNL     1       2.201   4.840  19.460  0.00  0.00    +0.000 C 
BRANCH  25  26
ATOM     26  C   UNL     1       1.564   4.463  18.183  0.00  0.00    +0.000 C 
ATOM     27  N   UNL     1       1.067   4.143  17.197  0.00  0.00    +0.000 NA
ENDBRANCH  25  26
ENDBRANCH   4  20
BRANCH   6  28
ATOM     28  C   UNL     1       6.671   4.472  15.408  0.00  0.00    +0.000 C 
ATOM     29  N   UNL     1       6.102   3.410  14.746  0.00  0.00    +0.000 N 
ATOM     30  O   UNL     1       7.786   4.883  15.117  0.00  0.00    +0.000 OA
ATOM     31  H   UNL     1       5.291   2.937  15.115  0.00  0.00    +0.000 HD
ATOM     32  H   UNL     1       6.636   2.964  14.026  0.00  0.00    +0.000 HD
ENDBRANCH   6  28
TORSDOF 5
ENDMDL
MODEL 7
REMARK VINA RESULT:      -7.6      1.148      1.435
REMARK  Name = 
REMARK  6 active torsions:
REMARK  status: ('A' for Active; 'I' for Inactive)
REMARK    1  A    between atoms: C_1  and  N_2
REMARK    2  A    between atoms: C_4  and  C_5
REMARK    3  A    between atoms: C_8  and  N_9
REMARK    4  A    between atoms: N_12  and  C_13
REMARK    5  A    between atoms: C_18  and  C_19
REMARK    6  A    between atoms: C_22  and  C_23
REMARK                            x       y       z     vdW  Elec       q    Type
REMARK                         _______ _______ _______ _____ _____    ______ ____
ROOT
ATOM      1  N   UNL     1       1.388   6.730  20.761  0.00  0.00    +0.000 N 
ATOM      2  C   UNL     1       2.296   6.057  19.997  0.00  0.00    +0.000 A 
ATOM      3  N   UNL     1       3.373   6.550  19.353  0.00  0.00    +0.000 NA
ATOM      4  N   UNL     1       3.912   5.505  18.680  0.00  0.00    +0.000 N 
ATOM      5  C   UNL     1       3.186   4.360  18.878  0.00  0.00    +0.000 A 
ATOM      6  C   UNL     1       2.123   4.674  19.693  0.00  0.00    +0.000 A 
ATOM      7  H   UNL     1       0.685   6.159  21.235  0.00  0.00    +0.000 HD
ENDROOT
BRANCH   1  11
ATOM      8  C   UNL     1       0.425  10.812  21.015  0.00  0.00    +0.000 A 
ATOM      9  C   UNL     1       0.352  10.027  22.160  0.00  0.00    +0.000 A 
ATOM     10  C   UNL     1       0.710   8.673  22.080  0.00  0.00    +0.000 A 
ATOM     11  C   UNL     1       1.114   8.111  20.860  0.00  0.00    +0.000 A 
ATOM     12  C   UNL     1       1.164   8.994  19.784  0.00  0.00    +0.000 A 
ATOM     13  N   UNL     1       0.834  10.312  19.829  0.00  0.00    +0.000 NA
BRANCH   8  17
ATOM     14  C   UNL     1      -2.158  15.043  21.197  0.00  0.00    +0.000 C 
ATOM     15  N   UNL     1      -1.082  14.086  21.126  0.00  0.00    +0.000 N 
ATOM     16  C   UNL     1      -1.180  12.732  21.247  0.00  0.00    +0.000 A 
ATOM     17  C   UNL     1       0.089  12.226  21.033  0.00  0.00    +0.000 A 
ATOM     18  C   UNL     1       0.877  13.380  20.824  0.00  0.00    +0.000 A 
ATOM     19  N   UNL     1       0.170  14.513  20.884  0.00  0.00    +0.000 NA
ENDBRANCH   8  17
ENDBRANCH   1  11
BRANCH   4  20
ATOM     20  C   UNL     1       4.823   5.752  17.527  0.00  0.00    +0.000 C 
ATOM     21  C   UNL     1       4.823   4.469  16.707  0.00  0.00    +0.000 C 
ATOM     22  C   UNL     1       5.946   4.278  15.713  0.00  0.00    +0.000 C 
ATOM     23  C   UNL     1       7.284   4.970  15.831  0.00  0.00    +0.000 C 
ATOM     24  C   UNL     1       7.289   6.231  16.663  0.00  0.00    +0.000 C 
ATOM     25  C   UNL     1       6.251   6.314  17.816  0.00  0.00    +0.000 C 
BRANCH  25  26
ATOM     26  C   UNL     1       6.885   5.707  19.002  0.00  0.00    +0.000 C 
ATOM     27  N   UNL     1       7.373   5.257  19.941  0.00  0.00    +0.000 NA
ENDBRANCH  25  26
ENDBRANCH   4  20
BRANCH   6  28
ATOM     28  C   UNL     1       1.033   3.785  20.061  0.00  0.00    +0.000 C 
ATOM     29  N   UNL     1       1.035   3.349  21.365  0.00  0.00    +0.000 N 
ATOM     30  O   UNL     1       0.187   3.405  19.263  0.00  0.00    +0.000 OA
ATOM     31  H   UNL     1       1.839   3.484  21.960  0.00  0.00    +0.000 HD
ATOM     32  H   UNL     1       0.333   2.691  21.642  0.00  0.00    +0.000 HD
ENDBRANCH   6  28
TORSDOF 5
ENDMDL
MODEL 8
REMARK VINA RESULT:      -7.6      1.438      2.143
REMARK  Name = 
REMARK  6 active torsions:
REMARK  status: ('A' for Active; 'I' for Inactive)
REMARK    1  A    between atoms: C_1  and  N_2
REMARK    2  A    between atoms: C_4  and  C_5
REMARK    3  A    between atoms: C_8  and  N_9
REMARK    4  A    between atoms: N_12  and  C_13
REMARK    5  A    between atoms: C_18  and  C_19
REMARK    6  A    between atoms: C_22  and  C_23
REMARK                            x       y       z     vdW  Elec       q    Type
REMARK                         _______ _______ _______ _____ _____    ______ ____
ROOT
ATOM      1  N   UNL     1       1.900   6.719  20.641  0.00  0.00    +0.000 N 
ATOM      2  C   UNL     1       2.841   5.859  20.156  0.00  0.00    +0.000 A 
ATOM      3  N   UNL     1       3.884   6.132  19.345  0.00  0.00    +0.000 NA
ATOM      4  N   UNL     1       4.479   4.942  19.093  0.00  0.00    +0.000 N 
ATOM      5  C   UNL     1       3.823   3.916  19.721  0.00  0.00    +0.000 A 
ATOM      6  C   UNL     1       2.748   4.454  20.392  0.00  0.00    +0.000 A 
ATOM      7  H   UNL     1       1.235   6.328  21.312  0.00  0.00    +0.000 HD
ENDROOT
BRANCH   1  11
ATOM      8  C   UNL     1       0.990  10.643  19.447  0.00  0.00    +0.000 A 
ATOM      9  C   UNL     1       1.436   9.732  18.496  0.00  0.00    +0.000 A 
ATOM     10  C   UNL     1       1.704   8.414  18.891  0.00  0.00    +0.000 A 
ATOM     11  C   UNL     1       1.546   8.021  20.228  0.00  0.00    +0.000 A 
ATOM     12  C   UNL     1       1.080   9.012  21.090  0.00  0.00    +0.000 A 
ATOM     13  N   UNL     1       0.802  10.295  20.739  0.00  0.00    +0.000 NA
BRANCH   8  17
ATOM     14  C   UNL     1       1.335  15.557  18.865  0.00  0.00    +0.000 C 
ATOM     15  N   UNL     1       0.859  14.196  18.847  0.00  0.00    +0.000 N 
ATOM     16  C   UNL     1       1.554  13.080  19.207  0.00  0.00    +0.000 A 
ATOM     17  C   UNL     1       0.673  12.018  19.102  0.00  0.00    +0.000 A 
ATOM     18  C   UNL     1      -0.518  12.619  18.636  0.00  0.00    +0.000 A 
ATOM     19  N   UNL     1      -0.408  13.942  18.476  0.00  0.00    +0.000 NA
ENDBRANCH   8  17
ENDBRANCH   1  11
BRANCH   4  20
ATOM     20  C   UNL     1       5.366   4.790  17.905  0.00  0.00    +0.000 C 
ATOM     21  C   UNL     1       5.425   6.161  17.246  0.00  0.00    +0.000 C 
ATOM     22  C   UNL     1       5.915   6.225  15.817  0.00  0.00    +0.000 C 
ATOM     23  C   UNL     1       5.855   5.052  14.866  0.00  0.00    +0.000 C 
ATOM     24  C   UNL     1       5.773   3.692  15.521  0.00  0.00    +0.000 C 
ATOM     25  C   UNL     1       5.078   3.623  16.908  0.00  0.00    +0.000 C 
BRANCH  25  26
ATOM     26  C   UNL     1       3.639   3.421  16.651  0.00  0.00    +0.000 C 
ATOM     27  N   UNL     1       2.524   3.252  16.426  0.00  0.00    +0.000 NA
ENDBRANCH  25  26
ENDBRANCH   4  20
BRANCH   6  28
ATOM     28  C   UNL     1       1.715   3.710  21.093  0.00  0.00    +0.000 C 
ATOM     29  N   UNL     1       2.123   3.051  22.228  0.00  0.00    +0.000 N 
ATOM     30  O   UNL     1       0.563   3.629  20.687  0.00  0.00    +0.000 OA
ATOM     31  H   UNL     1       3.102   2.939  22.444  0.00  0.00    +0.000 HD
ATOM     32  H   UNL     1       1.454   2.482  22.708  0.00  0.00    +0.000 HD
ENDBRANCH   6  28
TORSDOF 5
ENDMDL
MODEL 9
REMARK VINA RESULT:      -7.5      5.234      7.337
REMARK  Name = 
REMARK  6 active torsions:
REMARK  status: ('A' for Active; 'I' for Inactive)
REMARK    1  A    between atoms: C_1  and  N_2
REMARK    2  A    between atoms: C_4  and  C_5
REMARK    3  A    between atoms: C_8  and  N_9
REMARK    4  A    between atoms: N_12  and  C_13
REMARK    5  A    between atoms: C_18  and  C_19
REMARK    6  A    between atoms: C_22  and  C_23
REMARK                            x       y       z     vdW  Elec       q    Type
REMARK                         _______ _______ _______ _____ _____    ______ ____
ROOT
ATOM      1  N   UNL     1       7.053   7.128  16.732  0.00  0.00    +0.000 N 
ATOM      2  C   UNL     1       6.077   6.252  17.106  0.00  0.00    +0.000 A 
ATOM      3  N   UNL     1       5.251   6.325  18.169  0.00  0.00    +0.000 NA
ATOM      4  N   UNL     1       4.514   5.190  18.144  0.00  0.00    +0.000 N 
ATOM      5  C   UNL     1       4.868   4.390  17.089  0.00  0.00    +0.000 A 
ATOM      6  C   UNL     1       5.888   5.019  16.412  0.00  0.00    +0.000 A 
ATOM      7  H   UNL     1       7.518   6.934  15.843  0.00  0.00    +0.000 HD
ENDROOT
BRANCH   1  11
ATOM      8  C   UNL     1       8.820  10.207  18.980  0.00  0.00    +0.000 A 
ATOM      9  C   UNL     1       9.035   8.886  19.355  0.00  0.00    +0.000 A 
ATOM     10  C   UNL     1       8.475   7.860  18.582  0.00  0.00    +0.000 A 
ATOM     11  C   UNL     1       7.690   8.158  17.458  0.00  0.00    +0.000 A 
ATOM     12  C   UNL     1       7.555   9.514  17.168  0.00  0.00    +0.000 A 
ATOM     13  N   UNL     1       8.092  10.533  17.890  0.00  0.00    +0.000 NA
BRANCH   8  17
ATOM     14  C   UNL     1      11.259  14.382  20.091  0.00  0.00    +0.000 C 
ATOM     15  N   UNL     1      10.470  13.178  20.185  0.00  0.00    +0.000 N 
ATOM     16  C   UNL     1      10.037  12.400  19.155  0.00  0.00    +0.000 A 
ATOM     17  C   UNL     1       9.390  11.318  19.724  0.00  0.00    +0.000 A 
ATOM     18  C   UNL     1       9.471  11.575  21.111  0.00  0.00    +0.000 A 
ATOM     19  N   UNL     1      10.123  12.706  21.396  0.00  0.00    +0.000 NA
ENDBRANCH   8  17
ENDBRANCH   1  11
BRANCH   4  20
ATOM     20  C   UNL     1       3.830   4.719  19.383  0.00  0.00    +0.000 C 
ATOM     21  C   UNL     1       4.372   3.323  19.658  0.00  0.00    +0.000 C 
ATOM     22  C   UNL     1       3.584   2.445  20.604  0.00  0.00    +0.000 C 
ATOM     23  C   UNL     1       2.109   2.631  20.872  0.00  0.00    +0.000 C 
ATOM     24  C   UNL     1       1.566   4.010  20.577  0.00  0.00    +0.000 C 
ATOM     25  C   UNL     1       2.273   4.815  19.452  0.00  0.00    +0.000 C 
BRANCH  25  26
ATOM     26  C   UNL     1       1.610   4.446  18.186  0.00  0.00    +0.000 C 
ATOM     27  N   UNL     1       1.070   4.153  17.215  0.00  0.00    +0.000 NA
ENDBRANCH  25  26
ENDBRANCH   4  20
BRANCH   6  28
ATOM     28  C   UNL     1       6.644   4.470  15.298  0.00  0.00    +0.000 C 
ATOM     29  N   UNL     1       6.075   3.387  14.670  0.00  0.00    +0.000 N 
ATOM     30  O   UNL     1       7.736   4.903  14.958  0.00  0.00    +0.000 OA
ATOM     31  H   UNL     1       5.291   2.899  15.077  0.00  0.00    +0.000 HD
ATOM     32  H   UNL     1       6.591   2.946  13.935  0.00  0.00    +0.000 HD
ENDBRANCH   6  28
TORSDOF 5
ENDMDL
