MODEL 1
REMARK VINA RESULT:      -8.2      0.000      0.000
REMARK  Name = 
REMARK  3 active torsions:
REMARK  status: ('A' for Active; 'I' for Inactive)
REMARK    1  A    between atoms: C_2  and  C_5
REMARK    2  A    between atoms: C_7  and  N_8
REMARK    3  A    between atoms: N_11  and  C_12
REMARK                            x       y       z     vdW  Elec       q    Type
REMARK                         _______ _______ _______ _____ _____    ______ ____
ROOT
ATOM      1  N   UNL     1       1.407   9.448  19.034  0.00  0.00    +0.000 N 
ATOM      2  C   UNL     1       1.752   8.776  17.759  0.00  0.00    +0.000 C 
ATOM      3  C   UNL     1       2.872   7.746  18.010  0.00  0.00    +0.000 C 
ATOM      4  N   UNL     1       2.411   6.757  19.021  0.00  0.00    +0.000 N 
ATOM      5  C   UNL     1       2.133   7.434  20.306  0.00  0.00    +0.000 C 
ATOM      6  C   UNL     1       1.007   8.480  20.087  0.00  0.00    +0.000 C 
ENDROOT
BRANCH   4   7
ATOM      7  C   UNL     1       3.328   5.697  19.152  0.00  0.00    +0.000 A 
ATOM      8  N   UNL     1       4.635   5.992  19.254  0.00  0.00    +0.000 NA
ATOM      9  C   UNL     1       5.485   4.962  19.241  0.00  0.00    +0.000 A 
ATOM     10  N   UNL     1       5.154   3.675  19.125  0.00  0.00    +0.000 NA
ATOM     11  C   UNL     1       3.835   3.397  19.032  0.00  0.00    +0.000 A 
ATOM     12  C   UNL     1       2.863   4.375  19.072  0.00  0.00    +0.000 A 
ATOM     13  C   UNL     1       1.404   4.063  18.965  0.00  0.00    +0.000 C 
ATOM     14  C   UNL     1       0.988   2.600  18.863  0.00  0.00    +0.000 C 
ATOM     15  C   UNL     1       2.064   1.534  18.726  0.00  0.00    +0.000 C 
ATOM     16  C   UNL     1       3.523   1.955  18.797  0.00  0.00    +0.000 C 
ENDBRANCH   4   7
BRANCH   1  19
ATOM     17  C   UNL     1      -1.551  11.259  17.939  0.00  0.00    +0.000 A 
ATOM     18  C   UNL     1      -0.593  10.268  18.041  0.00  0.00    +0.000 A 
ATOM     19  C   UNL     1       0.479  10.489  18.885  0.00  0.00    +0.000 A 
ATOM     20  N   UNL     1       0.602  11.631  19.577  0.00  0.00    +0.000 NA
ATOM     21  C   UNL     1      -0.352  12.555  19.396  0.00  0.00    +0.000 A 
ATOM     22  N   UNL     1      -1.428  12.433  18.607  0.00  0.00    +0.000 NA
BRANCH  17  24
ATOM     23  F   UNL     1      -3.834  11.810  17.393  0.00  0.00    +0.000 F 
ATOM     24  C   UNL     1      -2.774  11.008  17.072  0.00  0.00    +0.000 C 
ATOM     25  F   UNL     1      -3.246   9.733  17.171  0.00  0.00    +0.000 F 
ATOM     26  F   UNL     1      -2.545  11.229  15.746  0.00  0.00    +0.000 F 
ENDBRANCH  17  24
ENDBRANCH   1  19
TORSDOF 3
ENDMDL
MODEL 2
REMARK VINA RESULT:      -8.1      4.352      8.549
REMARK  Name = 
REMARK  3 active torsions:
REMARK  status: ('A' for Active; 'I' for Inactive)
REMARK    1  A    between atoms: C_2  and  C_5
REMARK    2  A    between atoms: C_7  and  N_8
REMARK    3  A    between atoms: N_11  and  C_12
REMARK                            x       y       z     vdW  Elec       q    Type
REMARK                         _______ _______ _______ _____ _____    ______ ____
ROOT
ATOM      1  N   UNL     1       3.080   7.270  18.528  0.00  0.00    +0.000 N 
ATOM      2  C   UNL     1       2.118   7.021  19.628  0.00  0.00    +0.000 C 
ATOM      3  C   UNL     1       1.636   8.369  20.201  0.00  0.00    +0.000 C 
ATOM      4  N   UNL     1       1.005   9.167  19.116  0.00  0.00    +0.000 N 
ATOM      5  C   UNL     1       1.995   9.462  18.058  0.00  0.00    +0.000 C 
ATOM      6  C   UNL     1       2.501   8.122  17.458  0.00  0.00    +0.000 C 
ENDROOT
BRANCH   4   7
ATOM      7  C   UNL     1       0.392  10.327  19.626  0.00  0.00    +0.000 A 
ATOM      8  N   UNL     1       0.991  10.971  20.642  0.00  0.00    +0.000 NA
ATOM      9  C   UNL     1       0.318  11.986  21.188  0.00  0.00    +0.000 A 
ATOM     10  N   UNL     1      -0.895  12.407  20.825  0.00  0.00    +0.000 NA
ATOM     11  C   UNL     1      -1.477  11.753  19.796  0.00  0.00    +0.000 A 
ATOM     12  C   UNL     1      -0.862  10.714  19.130  0.00  0.00    +0.000 A 
ATOM     13  C   UNL     1      -1.512   9.991  17.994  0.00  0.00    +0.000 C 
ATOM     14  C   UNL     1      -2.885  10.466  17.531  0.00  0.00    +0.000 C 
ATOM     15  C   UNL     1      -3.598  11.548  18.326  0.00  0.00    +0.000 C 
ATOM     16  C   UNL     1      -2.874  12.192  19.498  0.00  0.00    +0.000 C 
ENDBRANCH   4   7
BRANCH   1  19
ATOM     17  C   UNL     1       5.613   4.991  17.255  0.00  0.00    +0.000 A 
ATOM     18  C   UNL     1       5.006   6.155  17.688  0.00  0.00    +0.000 A 
ATOM     19  C   UNL     1       3.666   6.100  18.022  0.00  0.00    +0.000 A 
ATOM     20  N   UNL     1       2.965   4.961  17.921  0.00  0.00    +0.000 NA
ATOM     21  C   UNL     1       3.619   3.886  17.459  0.00  0.00    +0.000 A 
ATOM     22  N   UNL     1       4.912   3.838  17.116  0.00  0.00    +0.000 NA
BRANCH  17  24
ATOM     23  F   UNL     1       7.643   6.268  17.005  0.00  0.00    +0.000 F 
ATOM     24  C   UNL     1       7.101   5.013  16.949  0.00  0.00    +0.000 C 
ATOM     25  F   UNL     1       7.397   4.551  15.701  0.00  0.00    +0.000 F 
ATOM     26  F   UNL     1       7.838   4.264  17.818  0.00  0.00    +0.000 F 
ENDBRANCH  17  24
ENDBRANCH   1  19
TORSDOF 3
ENDMDL
MODEL 3
REMARK VINA RESULT:      -8.0      2.565      2.934
REMARK  Name = 
REMARK  3 active torsions:
REMARK  status: ('A' for Active; 'I' for Inactive)
REMARK    1  A    between atoms: C_2  and  C_5
REMARK    2  A    between atoms: C_7  and  N_8
REMARK    3  A    between atoms: N_11  and  C_12
REMARK                            x       y       z     vdW  Elec       q    Type
REMARK                         _______ _______ _______ _____ _____    ______ ____
ROOT
ATOM      1  N   UNL     1       1.266   9.649  19.427  0.00  0.00    +0.000 N 
ATOM      2  C   UNL     1       1.349   9.341  17.980  0.00  0.00    +0.000 C 
ATOM      3  C   UNL     1       2.519   8.368  17.730  0.00  0.00    +0.000 C 
ATOM      4  N   UNL     1       2.305   7.128  18.525  0.00  0.00    +0.000 N 
ATOM      5  C   UNL     1       2.289   7.444  19.969  0.00  0.00    +0.000 C 
ATOM      6  C   UNL     1       1.119   8.424  20.254  0.00  0.00    +0.000 C 
ENDROOT
BRANCH   4   7
ATOM      7  C   UNL     1       3.251   6.141  18.194  0.00  0.00    +0.000 A 
ATOM      8  N   UNL     1       4.445   6.534  17.719  0.00  0.00    +0.000 NA
ATOM      9  C   UNL     1       5.267   5.573  17.291  0.00  0.00    +0.000 A 
ATOM     10  N   UNL     1       5.004   4.266  17.282  0.00  0.00    +0.000 NA
ATOM     11  C   UNL     1       3.803   3.888  17.771  0.00  0.00    +0.000 A 
ATOM     12  C   UNL     1       2.887   4.788  18.275  0.00  0.00    +0.000 A 
ATOM     13  C   UNL     1       1.557   4.366  18.812  0.00  0.00    +0.000 C 
ATOM     14  C   UNL     1       1.236   2.875  18.846  0.00  0.00    +0.000 C 
ATOM     15  C   UNL     1       2.207   1.896  18.205  0.00  0.00    +0.000 C 
ATOM     16  C   UNL     1       3.515   2.427  17.640  0.00  0.00    +0.000 C 
ENDBRANCH   4   7
BRANCH   1  19
ATOM     17  C   UNL     1      -1.074  11.646  21.369  0.00  0.00    +0.000 A 
ATOM     18  C   UNL     1      -0.179  10.648  21.032  0.00  0.00    +0.000 A 
ATOM     19  C   UNL     1       0.305  10.623  19.737  0.00  0.00    +0.000 A 
ATOM     20  N   UNL     1      -0.086  11.526  18.826  0.00  0.00    +0.000 NA
ATOM     21  C   UNL     1      -0.983  12.440  19.224  0.00  0.00    +0.000 A 
ATOM     22  N   UNL     1      -1.504  12.549  20.453  0.00  0.00    +0.000 NA
BRANCH  17  24
ATOM     23  F   UNL     1      -1.048  12.804  23.483  0.00  0.00    +0.000 F 
ATOM     24  C   UNL     1      -1.563  11.734  22.805  0.00  0.00    +0.000 C 
ATOM     25  F   UNL     1      -1.230  10.643  23.551  0.00  0.00    +0.000 F 
ATOM     26  F   UNL     1      -2.917  11.864  22.903  0.00  0.00    +0.000 F 
ENDBRANCH  17  24
ENDBRANCH   1  19
TORSDOF 3
ENDMDL
MODEL 4
REMARK VINA RESULT:      -7.9      3.586      8.209
REMARK  Name = 
REMARK  3 active torsions:
REMARK  status: ('A' for Active; 'I' for Inactive)
REMARK    1  A    between atoms: C_2  and  C_5
REMARK    2  A    between atoms: C_7  and  N_8
REMARK    3  A    between atoms: N_11  and  C_12
REMARK                            x       y       z     vdW  Elec       q    Type
REMARK                         _______ _______ _______ _____ _____    ______ ____
ROOT
ATOM      1  N   UNL     1       2.935   7.344  18.666  0.00  0.00    +0.000 N 
ATOM      2  C   UNL     1       1.991   7.132  19.789  0.00  0.00    +0.000 C 
ATOM      3  C   UNL     1       1.525   8.499  20.330  0.00  0.00    +0.000 C 
ATOM      4  N   UNL     1       0.879   9.268  19.232  0.00  0.00    +0.000 N 
ATOM      5  C   UNL     1       1.852   9.526  18.149  0.00  0.00    +0.000 C 
ATOM      6  C   UNL     1       2.341   8.167  17.581  0.00  0.00    +0.000 C 
ENDROOT
BRANCH   4   7
ATOM      7  C   UNL     1       0.280  10.445  19.719  0.00  0.00    +0.000 A 
ATOM      8  N   UNL     1       0.909  11.126  20.692  0.00  0.00    +0.000 NA
ATOM      9  C   UNL     1       0.251  12.160  21.221  0.00  0.00    +0.000 A 
ATOM     10  N   UNL     1      -0.972  12.567  20.879  0.00  0.00    +0.000 NA
ATOM     11  C   UNL     1      -1.585  11.876  19.893  0.00  0.00    +0.000 A 
ATOM     12  C   UNL     1      -0.989  10.814  19.247  0.00  0.00    +0.000 A 
ATOM     13  C   UNL     1      -1.672  10.050  18.158  0.00  0.00    +0.000 C 
ATOM     14  C   UNL     1      -3.059  10.507  17.720  0.00  0.00    +0.000 C 
ATOM     15  C   UNL     1      -3.749  11.618  18.496  0.00  0.00    +0.000 C 
ATOM     16  C   UNL     1      -2.991  12.304  19.622  0.00  0.00    +0.000 C 
ENDBRANCH   4   7
BRANCH   1  19
ATOM     17  C   UNL     1       3.419   3.795  18.033  0.00  0.00    +0.000 A 
ATOM     18  C   UNL     1       2.909   4.967  18.556  0.00  0.00    +0.000 A 
ATOM     19  C   UNL     1       3.507   6.157  18.185  0.00  0.00    +0.000 A 
ATOM     20  N   UNL     1       4.559   6.182  17.353  0.00  0.00    +0.000 NA
ATOM     21  C   UNL     1       5.015   4.999  16.917  0.00  0.00    +0.000 A 
ATOM     22  N   UNL     1       4.502   3.798  17.215  0.00  0.00    +0.000 NA
BRANCH  17  24
ATOM     23  F   UNL     1       1.404   2.472  18.050  0.00  0.00    +0.000 F 
ATOM     24  C   UNL     1       2.733   2.482  18.373  0.00  0.00    +0.000 C 
ATOM     25  F   UNL     1       2.781   2.183  19.701  0.00  0.00    +0.000 F 
ATOM     26  F   UNL     1       3.270   1.413  17.720  0.00  0.00    +0.000 F 
ENDBRANCH  17  24
ENDBRANCH   1  19
TORSDOF 3
ENDMDL
MODEL 5
REMARK VINA RESULT:      -7.8      3.871      8.298
REMARK  Name = 
REMARK  3 active torsions:
REMARK  status: ('A' for Active; 'I' for Inactive)
REMARK    1  A    between atoms: C_2  and  C_5
REMARK    2  A    between atoms: C_7  and  N_8
REMARK    3  A    between atoms: N_11  and  C_12
REMARK                            x       y       z     vdW  Elec       q    Type
REMARK                         _______ _______ _______ _____ _____    ______ ____
ROOT
ATOM      1  N   UNL     1       2.904   7.371  18.987  0.00  0.00    +0.000 N 
ATOM      2  C   UNL     1       1.895   7.190  20.057  0.00  0.00    +0.000 C 
ATOM      3  C   UNL     1       1.375   8.570  20.508  0.00  0.00    +0.000 C 
ATOM      4  N   UNL     1       0.787   9.279  19.339  0.00  0.00    +0.000 N 
ATOM      5  C   UNL     1       1.822   9.509  18.308  0.00  0.00    +0.000 C 
ATOM      6  C   UNL     1       2.367   8.135  17.832  0.00  0.00    +0.000 C 
ENDROOT
BRANCH   4   7
ATOM      7  C   UNL     1       0.140  10.465  19.735  0.00  0.00    +0.000 A 
ATOM      8  N   UNL     1       0.702  11.205  20.706  0.00  0.00    +0.000 NA
ATOM      9  C   UNL     1      -0.002  12.249  21.148  0.00  0.00    +0.000 A 
ATOM     10  N   UNL     1      -1.213  12.613  20.722  0.00  0.00    +0.000 NA
ATOM     11  C   UNL     1      -1.758  11.862  19.740  0.00  0.00    +0.000 A 
ATOM     12  C   UNL     1      -1.108  10.783  19.179  0.00  0.00    +0.000 A 
ATOM     13  C   UNL     1      -1.716   9.953  18.094  0.00  0.00    +0.000 C 
ATOM     14  C   UNL     1      -3.086  10.360  17.561  0.00  0.00    +0.000 C 
ATOM     15  C   UNL     1      -3.838  11.490  18.244  0.00  0.00    +0.000 C 
ATOM     16  C   UNL     1      -3.155  12.246  19.373  0.00  0.00    +0.000 C 
ENDBRANCH   4   7
BRANCH   1  19
ATOM     17  C   UNL     1       4.890   5.030  17.036  0.00  0.00    +0.000 A 
ATOM     18  C   UNL     1       4.217   6.181  17.399  0.00  0.00    +0.000 A 
ATOM     19  C   UNL     1       3.524   6.175  18.596  0.00  0.00    +0.000 A 
ATOM     20  N   UNL     1       3.490   5.087  19.380  0.00  0.00    +0.000 NA
ATOM     21  C   UNL     1       4.141   4.001  18.939  0.00  0.00    +0.000 A 
ATOM     22  N   UNL     1       4.841   3.910  17.801  0.00  0.00    +0.000 NA
BRANCH  17  24
ATOM     23  F   UNL     1       5.219   5.881  14.804  0.00  0.00    +0.000 F 
ATOM     24  C   UNL     1       5.715   5.038  15.760  0.00  0.00    +0.000 C 
ATOM     25  F   UNL     1       5.781   3.816  15.159  0.00  0.00    +0.000 F 
ATOM     26  F   UNL     1       7.003   5.436  15.957  0.00  0.00    +0.000 F 
ENDBRANCH  17  24
ENDBRANCH   1  19
TORSDOF 3
ENDMDL
MODEL 6
REMARK VINA RESULT:      -7.7      3.608      8.326
REMARK  Name = 
REMARK  3 active torsions:
REMARK  status: ('A' for Active; 'I' for Inactive)
REMARK    1  A    between atoms: C_2  and  C_5
REMARK    2  A    between atoms: C_7  and  N_8
REMARK    3  A    between atoms: N_11  and  C_12
REMARK                            x       y       z     vdW  Elec       q    Type
REMARK                         _______ _______ _______ _____ _____    ______ ____
ROOT
ATOM      1  N   UNL     1       2.553   7.389  19.548  0.00  0.00    +0.000 N 
ATOM      2  C   UNL     1       1.475   7.556  20.551  0.00  0.00    +0.000 C 
ATOM      3  C   UNL     1       1.027   9.031  20.580  0.00  0.00    +0.000 C 
ATOM      4  N   UNL     1       0.555   9.428  19.225  0.00  0.00    +0.000 N 
ATOM      5  C   UNL     1       1.660   9.317  18.248  0.00  0.00    +0.000 C 
ATOM      6  C   UNL     1       2.136   7.840  18.196  0.00  0.00    +0.000 C 
ENDROOT
BRANCH   4   7
ATOM      7  C   UNL     1      -0.030  10.708  19.243  0.00  0.00    +0.000 A 
ATOM      8  N   UNL     1       0.648  11.711  19.826  0.00  0.00    +0.000 NA
ATOM      9  C   UNL     1       0.010  12.878  19.944  0.00  0.00    +0.000 A 
ATOM     10  N   UNL     1      -1.239  13.130  19.547  0.00  0.00    +0.000 NA
ATOM     11  C   UNL     1      -1.902  12.112  18.956  0.00  0.00    +0.000 A 
ATOM     12  C   UNL     1      -1.331  10.874  18.746  0.00  0.00    +0.000 A 
ATOM     13  C   UNL     1      -2.069   9.749  18.094  0.00  0.00    +0.000 C 
ATOM     14  C   UNL     1      -3.488  10.011  17.599  0.00  0.00    +0.000 C 
ATOM     15  C   UNL     1      -4.145  11.345  17.916  0.00  0.00    +0.000 C 
ATOM     16  C   UNL     1      -3.328  12.412  18.628  0.00  0.00    +0.000 C 
ENDBRANCH   4   7
BRANCH   1  19
ATOM     17  C   UNL     1       2.927   3.821  20.144  0.00  0.00    +0.000 A 
ATOM     18  C   UNL     1       2.427   5.107  20.208  0.00  0.00    +0.000 A 
ATOM     19  C   UNL     1       3.110   6.102  19.534  0.00  0.00    +0.000 A 
ATOM     20  N   UNL     1       4.232   5.840  18.847  0.00  0.00    +0.000 NA
ATOM     21  C   UNL     1       4.670   4.573  18.864  0.00  0.00    +0.000 A 
ATOM     22  N   UNL     1       4.078   3.542  19.480  0.00  0.00    +0.000 NA
BRANCH  17  24
ATOM     23  F   UNL     1       0.940   3.103  21.304  0.00  0.00    +0.000 F 
ATOM     24  C   UNL     1       2.154   2.700  20.819  0.00  0.00    +0.000 C 
ATOM     25  F   UNL     1       2.809   2.168  21.889  0.00  0.00    +0.000 F 
ATOM     26  F   UNL     1       1.879   1.660  19.982  0.00  0.00    +0.000 F 
ENDBRANCH  17  24
ENDBRANCH   1  19
TORSDOF 3
ENDMDL
MODEL 7
REMARK VINA RESULT:      -7.7      4.024      8.424
REMARK  Name = 
REMARK  3 active torsions:
REMARK  status: ('A' for Active; 'I' for Inactive)
REMARK    1  A    between atoms: C_2  and  C_5
REMARK    2  A    between atoms: C_7  and  N_8
REMARK    3  A    between atoms: N_11  and  C_12
REMARK                            x       y       z     vdW  Elec       q    Type
REMARK                         _______ _______ _______ _____ _____    ______ ____
ROOT
ATOM      1  N   UNL     1       2.863   7.326  18.986  0.00  0.00    +0.000 N 
ATOM      2  C   UNL     1       1.859   7.153  20.062  0.00  0.00    +0.000 C 
ATOM      3  C   UNL     1       1.366   8.538  20.529  0.00  0.00    +0.000 C 
ATOM      4  N   UNL     1       0.781   9.267  19.371  0.00  0.00    +0.000 N 
ATOM      5  C   UNL     1       1.812   9.488  18.334  0.00  0.00    +0.000 C 
ATOM      6  C   UNL     1       2.330   8.110  17.842  0.00  0.00    +0.000 C 
ENDROOT
BRANCH   4   7
ATOM      7  C   UNL     1       0.157  10.460  19.782  0.00  0.00    +0.000 A 
ATOM      8  N   UNL     1       0.748  11.191  20.742  0.00  0.00    +0.000 NA
ATOM      9  C   UNL     1       0.066  12.243  21.201  0.00  0.00    +0.000 A 
ATOM     10  N   UNL     1      -1.149  12.622  20.801  0.00  0.00    +0.000 NA
ATOM     11  C   UNL     1      -1.724  11.880  19.829  0.00  0.00    +0.000 A 
ATOM     12  C   UNL     1      -1.099  10.794  19.253  0.00  0.00    +0.000 A 
ATOM     13  C   UNL     1      -1.740   9.973  18.180  0.00  0.00    +0.000 C 
ATOM     14  C   UNL     1      -3.116  10.397  17.676  0.00  0.00    +0.000 C 
ATOM     15  C   UNL     1      -3.839  11.536  18.377  0.00  0.00    +0.000 C 
ATOM     16  C   UNL     1      -3.124  12.281  19.493  0.00  0.00    +0.000 C 
ENDBRANCH   4   7
BRANCH   1  19
ATOM     17  C   UNL     1       3.808   3.814  18.971  0.00  0.00    +0.000 A 
ATOM     18  C   UNL     1       3.286   5.021  19.395  0.00  0.00    +0.000 A 
ATOM     19  C   UNL     1       3.459   6.124  18.579  0.00  0.00    +0.000 A 
ATOM     20  N   UNL     1       4.124   6.038  17.417  0.00  0.00    +0.000 NA
ATOM     21  C   UNL     1       4.630   4.839  17.096  0.00  0.00    +0.000 A 
ATOM     22  N   UNL     1       4.511   3.715  17.814  0.00  0.00    +0.000 NA
BRANCH  17  24
ATOM     23  F   UNL     1       4.686   1.800  19.964  0.00  0.00    +0.000 F 
ATOM     24  C   UNL     1       3.569   2.575  19.817  0.00  0.00    +0.000 C 
ATOM     25  F   UNL     1       2.624   1.744  19.293  0.00  0.00    +0.000 F 
ATOM     26  F   UNL     1       3.162   2.863  21.086  0.00  0.00    +0.000 F 
ENDBRANCH  17  24
ENDBRANCH   1  19
TORSDOF 3
ENDMDL
MODEL 8
REMARK VINA RESULT:      -7.6      1.050      1.249
REMARK  Name = 
REMARK  3 active torsions:
REMARK  status: ('A' for Active; 'I' for Inactive)
REMARK    1  A    between atoms: C_2  and  C_5
REMARK    2  A    between atoms: C_7  and  N_8
REMARK    3  A    between atoms: N_11  and  C_12
REMARK                            x       y       z     vdW  Elec       q    Type
REMARK                         _______ _______ _______ _____ _____    ______ ____
ROOT
ATOM      1  N   UNL     1       1.120   9.775  19.125  0.00  0.00    +0.000 N 
ATOM      2  C   UNL     1       1.369   9.117  17.822  0.00  0.00    +0.000 C 
ATOM      3  C   UNL     1       2.551   8.137  17.960  0.00  0.00    +0.000 C 
ATOM      4  N   UNL     1       2.235   7.131  19.010  0.00  0.00    +0.000 N 
ATOM      5  C   UNL     1       2.053   7.798  20.318  0.00  0.00    +0.000 C 
ATOM      6  C   UNL     1       0.867   8.793  20.211  0.00  0.00    +0.000 C 
ENDROOT
BRANCH   4   7
ATOM      7  C   UNL     1       3.205   6.112  19.049  0.00  0.00    +0.000 A 
ATOM      8  N   UNL     1       4.332   6.276  18.335  0.00  0.00    +0.000 NA
ATOM      9  C   UNL     1       5.169   5.237  18.288  0.00  0.00    +0.000 A 
ATOM     10  N   UNL     1       4.980   4.053  18.873  0.00  0.00    +0.000 NA
ATOM     11  C   UNL     1       3.846   3.909  19.593  0.00  0.00    +0.000 A 
ATOM     12  C   UNL     1       2.926   4.926  19.745  0.00  0.00    +0.000 A 
ATOM     13  C   UNL     1       1.671   4.762  20.540  0.00  0.00    +0.000 C 
ATOM     14  C   UNL     1       1.438   3.431  21.250  0.00  0.00    +0.000 C 
ATOM     15  C   UNL     1       2.406   2.285  21.004  0.00  0.00    +0.000 C 
ATOM     16  C   UNL     1       3.631   2.535  20.139  0.00  0.00    +0.000 C 
ENDBRANCH   4   7
BRANCH   1  19
ATOM     17  C   UNL     1      -2.069  11.400  18.477  0.00  0.00    +0.000 A 
ATOM     18  C   UNL     1      -1.068  10.447  18.477  0.00  0.00    +0.000 A 
ATOM     19  C   UNL     1       0.137  10.774  19.069  0.00  0.00    +0.000 A 
ATOM     20  N   UNL     1       0.343  11.981  19.618  0.00  0.00    +0.000 NA
ATOM     21  C   UNL     1      -0.666  12.860  19.545  0.00  0.00    +0.000 A 
ATOM     22  N   UNL     1      -1.868  12.636  18.999  0.00  0.00    +0.000 NA
BRANCH  17  24
ATOM     23  F   UNL     1      -3.642  11.583  16.659  0.00  0.00    +0.000 F 
ATOM     24  C   UNL     1      -3.425  11.037  17.894  0.00  0.00    +0.000 C 
ATOM     25  F   UNL     1      -4.467  11.463  18.662  0.00  0.00    +0.000 F 
ATOM     26  F   UNL     1      -3.595   9.695  17.729  0.00  0.00    +0.000 F 
ENDBRANCH  17  24
ENDBRANCH   1  19
TORSDOF 3
ENDMDL
MODEL 9
REMARK VINA RESULT:      -7.6      2.088      2.533
REMARK  Name = 
REMARK  3 active torsions:
REMARK  status: ('A' for Active; 'I' for Inactive)
REMARK    1  A    between atoms: C_2  and  C_5
REMARK    2  A    between atoms: C_7  and  N_8
REMARK    3  A    between atoms: N_11  and  C_12
REMARK                            x       y       z     vdW  Elec       q    Type
REMARK                         _______ _______ _______ _____ _____    ______ ____
ROOT
ATOM      1  N   UNL     1       1.469   9.484  18.979  0.00  0.00    +0.000 N 
ATOM      2  C   UNL     1       1.794   8.794  17.709  0.00  0.00    +0.000 C 
ATOM      3  C   UNL     1       2.897   7.747  17.962  0.00  0.00    +0.000 C 
ATOM      4  N   UNL     1       2.426   6.776  18.987  0.00  0.00    +0.000 N 
ATOM      5  C   UNL     1       2.169   7.471  20.267  0.00  0.00    +0.000 C 
ATOM      6  C   UNL     1       1.060   8.534  20.045  0.00  0.00    +0.000 C 
ENDROOT
BRANCH   4   7
ATOM      7  C   UNL     1       3.325   5.701  19.122  0.00  0.00    +0.000 A 
ATOM      8  N   UNL     1       4.637   5.975  19.219  0.00  0.00    +0.000 NA
ATOM      9  C   UNL     1       5.470   4.931  19.211  0.00  0.00    +0.000 A 
ATOM     10  N   UNL     1       5.117   3.649  19.103  0.00  0.00    +0.000 NA
ATOM     11  C   UNL     1       3.793   3.393  19.015  0.00  0.00    +0.000 A 
ATOM     12  C   UNL     1       2.838   4.388  19.051  0.00  0.00    +0.000 A 
ATOM     13  C   UNL     1       1.374   4.100  18.950  0.00  0.00    +0.000 C 
ATOM     14  C   UNL     1       0.932   2.643  18.858  0.00  0.00    +0.000 C 
ATOM     15  C   UNL     1       1.989   1.558  18.725  0.00  0.00    +0.000 C 
ATOM     16  C   UNL     1       3.456   1.955  18.790  0.00  0.00    +0.000 C 
ENDBRANCH   4   7
BRANCH   1  19
ATOM     17  C   UNL     1       0.173  12.876  18.775  0.00  0.00    +0.000 A 
ATOM     18  C   UNL     1       1.042  11.824  18.992  0.00  0.00    +0.000 A 
ATOM     19  C   UNL     1       0.559  10.540  18.826  0.00  0.00    +0.000 A 
ATOM     20  N   UNL     1      -0.716  10.311  18.477  0.00  0.00    +0.000 NA
ATOM     21  C   UNL     1      -1.503  11.385  18.319  0.00  0.00    +0.000 A 
ATOM     22  N   UNL     1      -1.128  12.664  18.453  0.00  0.00    +0.000 NA
BRANCH  17  24
ATOM     23  F   UNL     1      -0.170  15.233  18.399  0.00  0.00    +0.000 F 
ATOM     24  C   UNL     1       0.702  14.297  18.884  0.00  0.00    +0.000 C 
ATOM     25  F   UNL     1       1.858  14.491  18.190  0.00  0.00    +0.000 F 
ATOM     26  F   UNL     1       0.958  14.676  20.168  0.00  0.00    +0.000 F 
ENDBRANCH  17  24
ENDBRANCH   1  19
TORSDOF 3
ENDMDL
