MODEL 1
REMARK VINA RESULT:      -7.5      0.000      0.000
REMARK  Name = 
REMARK  9 active torsions:
REMARK  status: ('A' for Active; 'I' for Inactive)
REMARK    1  A    between atoms: C_1  and  O_2
REMARK    2  A    between atoms: O_2  and  C_3
REMARK    3  A    between atoms: C_5  and  C_6
REMARK    4  A    between atoms: N_8  and  N_9
REMARK    5  A    between atoms: C_10  and  C_11
REMARK    6  A    between atoms: C_19  and  O_20
REMARK    7  A    between atoms: O_20  and  C_21
REMARK    8  A    between atoms: C_22  and  O_23
REMARK    9  A    between atoms: O_23  and  C_24
REMARK                            x       y       z     vdW  Elec       q    Type
REMARK                         _______ _______ _______ _____ _____    ______ ____
ROOT
ATOM      1  C   UNL     1       7.539   6.496  18.474  0.00  0.00    +0.000 C 
ATOM      2  O   UNL     1       8.306   6.080  19.338  0.00  0.00    +0.000 OA
ATOM      3  N   UNL     1       7.623   7.739  17.857  0.00  0.00    +0.000 N 
ATOM      4  H   UNL     1       6.893   8.069  17.238  0.00  0.00    +0.000 HD
ENDROOT
BRANCH   1   7
ATOM      5  C   UNL     1       4.252   4.650  18.746  0.00  0.00    +0.000 A 
ATOM      6  C   UNL     1       5.436   5.335  19.067  0.00  0.00    +0.000 A 
ATOM      7  C   UNL     1       6.376   5.651  18.083  0.00  0.00    +0.000 A 
ATOM      8  C   UNL     1       6.180   5.185  16.788  0.00  0.00    +0.000 A 
ATOM      9  C   UNL     1       5.041   4.428  16.459  0.00  0.00    +0.000 A 
ATOM     10  C   UNL     1       4.055   4.153  17.439  0.00  0.00    +0.000 A 
BRANCH   5  12
ATOM     11  C   UNL     1       2.331   5.485  19.872  0.00  0.00    +0.000 C 
ATOM     12  O   UNL     1       3.292   4.441  19.704  0.00  0.00    +0.000 OA
ENDBRANCH   5  12
BRANCH   9  13
ATOM     13  O   UNL     1       5.057   4.066  15.133  0.00  0.00    +0.000 OA
ATOM     14  C   UNL     1       6.277   4.103  14.409  0.00  0.00    +0.000 C 
ENDBRANCH   9  13
BRANCH  10  15
ATOM     15  O   UNL     1       2.986   3.418  17.010  0.00  0.00    +0.000 OA
ATOM     16  C   UNL     1       2.663   2.160  17.578  0.00  0.00    +0.000 C 
ENDBRANCH  10  15
ENDBRANCH   1   7
BRANCH   3  17
ATOM     17  N   UNL     1       8.592   8.615  18.265  0.00  0.00    +0.000 NA
ATOM     18  C   UNL     1       8.315   9.874  18.156  0.00  0.00    +0.000 C 
BRANCH  18  19
ATOM     19  C   UNL     1       9.281  10.912  18.579  0.00  0.00    +0.000 A 
ATOM     20  C   UNL     1       9.547  12.016  17.758  0.00  0.00    +0.000 A 
ATOM     21  C   UNL     1      10.460  12.992  18.179  0.00  0.00    +0.000 A 
ATOM     22  C   UNL     1      11.093  12.853  19.406  0.00  0.00    +0.000 A 
ATOM     23  F   UNL     1      11.971  13.781  19.806  0.00  0.00    +0.000 F 
ATOM     24  C   UNL     1      10.842  11.756  20.226  0.00  0.00    +0.000 A 
ATOM     25  C   UNL     1       9.929  10.780  19.814  0.00  0.00    +0.000 A 
ENDBRANCH  18  19
ENDBRANCH   3  17
TORSDOF 6
ENDMDL
MODEL 2
REMARK VINA RESULT:      -7.4      0.417      1.010
REMARK  Name = 
REMARK  9 active torsions:
REMARK  status: ('A' for Active; 'I' for Inactive)
REMARK    1  A    between atoms: C_1  and  O_2
REMARK    2  A    between atoms: O_2  and  C_3
REMARK    3  A    between atoms: C_5  and  C_6
REMARK    4  A    between atoms: N_8  and  N_9
REMARK    5  A    between atoms: C_10  and  C_11
REMARK    6  A    between atoms: C_19  and  O_20
REMARK    7  A    between atoms: O_20  and  C_21
REMARK    8  A    between atoms: C_22  and  O_23
REMARK    9  A    between atoms: O_23  and  C_24
REMARK                            x       y       z     vdW  Elec       q    Type
REMARK                         _______ _______ _______ _____ _____    ______ ____
ROOT
ATOM      1  C   UNL     1       7.514   6.618  18.176  0.00  0.00    +0.000 C 
ATOM      2  O   UNL     1       8.281   6.256  19.064  0.00  0.00    +0.000 OA
ATOM      3  N   UNL     1       7.636   7.790  17.438  0.00  0.00    +0.000 N 
ATOM      4  H   UNL     1       6.906   8.089  16.802  0.00  0.00    +0.000 HD
ENDROOT
BRANCH   1   7
ATOM      5  C   UNL     1       4.186   4.905  18.704  0.00  0.00    +0.000 A 
ATOM      6  C   UNL     1       5.404   5.569  18.930  0.00  0.00    +0.000 A 
ATOM      7  C   UNL     1       6.309   5.789  17.890  0.00  0.00    +0.000 A 
ATOM      8  C   UNL     1       6.043   5.247  16.637  0.00  0.00    +0.000 A 
ATOM      9  C   UNL     1       4.868   4.509  16.406  0.00  0.00    +0.000 A 
ATOM     10  C   UNL     1       3.918   4.332  17.442  0.00  0.00    +0.000 A 
BRANCH   5  12
ATOM     11  C   UNL     1       2.393   5.908  19.901  0.00  0.00    +0.000 C 
ATOM     12  O   UNL     1       3.263   4.790  19.713  0.00  0.00    +0.000 OA
ENDBRANCH   5  12
BRANCH   9  13
ATOM     13  O   UNL     1       4.815   4.062  15.107  0.00  0.00    +0.000 OA
ATOM     14  C   UNL     1       6.006   4.001  14.336  0.00  0.00    +0.000 C 
ENDBRANCH   9  13
BRANCH  10  15
ATOM     15  O   UNL     1       2.809   3.606  17.106  0.00  0.00    +0.000 OA
ATOM     16  C   UNL     1       2.571   2.311  17.631  0.00  0.00    +0.000 C 
ENDBRANCH  10  15
ENDBRANCH   1   7
BRANCH   3  17
ATOM     17  N   UNL     1       8.647   8.659  17.741  0.00  0.00    +0.000 NA
ATOM     18  C   UNL     1       8.327   9.696  18.446  0.00  0.00    +0.000 C 
BRANCH  18  19
ATOM     19  C   UNL     1       9.341  10.696  18.846  0.00  0.00    +0.000 A 
ATOM     20  C   UNL     1       9.567  10.980  20.200  0.00  0.00    +0.000 A 
ATOM     21  C   UNL     1      10.536  11.926  20.559  0.00  0.00    +0.000 A 
ATOM     22  C   UNL     1      11.261  12.574  19.568  0.00  0.00    +0.000 A 
ATOM     23  F   UNL     1      12.182  13.484  19.910  0.00  0.00    +0.000 F 
ATOM     24  C   UNL     1      11.038  12.305  18.221  0.00  0.00    +0.000 A 
ATOM     25  C   UNL     1      10.076  11.360  17.855  0.00  0.00    +0.000 A 
ENDBRANCH  18  19
ENDBRANCH   3  17
TORSDOF 6
ENDMDL
MODEL 3
REMARK VINA RESULT:      -7.4      0.615      2.653
REMARK  Name = 
REMARK  9 active torsions:
REMARK  status: ('A' for Active; 'I' for Inactive)
REMARK    1  A    between atoms: C_1  and  O_2
REMARK    2  A    between atoms: O_2  and  C_3
REMARK    3  A    between atoms: C_5  and  C_6
REMARK    4  A    between atoms: N_8  and  N_9
REMARK    5  A    between atoms: C_10  and  C_11
REMARK    6  A    between atoms: C_19  and  O_20
REMARK    7  A    between atoms: O_20  and  C_21
REMARK    8  A    between atoms: C_22  and  O_23
REMARK    9  A    between atoms: O_23  and  C_24
REMARK                            x       y       z     vdW  Elec       q    Type
REMARK                         _______ _______ _______ _____ _____    ______ ____
ROOT
ATOM      1  C   UNL     1       7.565   6.499  18.507  0.00  0.00    +0.000 C 
ATOM      2  O   UNL     1       8.287   5.996  19.364  0.00  0.00    +0.000 OA
ATOM      3  N   UNL     1       7.701   7.785  17.997  0.00  0.00    +0.000 N 
ATOM      4  H   UNL     1       7.003   8.181  17.378  0.00  0.00    +0.000 HD
ENDROOT
BRANCH   1   7
ATOM      5  C   UNL     1       5.567   4.081  16.397  0.00  0.00    +0.000 A 
ATOM      6  C   UNL     1       6.579   4.941  16.857  0.00  0.00    +0.000 A 
ATOM      7  C   UNL     1       6.401   5.716  18.005  0.00  0.00    +0.000 A 
ATOM      8  C   UNL     1       5.162   5.713  18.636  0.00  0.00    +0.000 A 
ATOM      9  C   UNL     1       4.107   4.921  18.148  0.00  0.00    +0.000 A 
ATOM     10  C   UNL     1       4.299   4.088  17.019  0.00  0.00    +0.000 A 
BRANCH   5  12
ATOM     11  C   UNL     1       6.181   3.884  14.109  0.00  0.00    +0.000 C 
ATOM     12  O   UNL     1       5.798   3.250  15.331  0.00  0.00    +0.000 OA
ENDBRANCH   5  12
BRANCH   9  13
ATOM     13  O   UNL     1       2.978   5.078  18.916  0.00  0.00    +0.000 OA
ATOM     14  C   UNL     1       2.975   4.630  20.263  0.00  0.00    +0.000 C 
ENDBRANCH   9  13
BRANCH  10  15
ATOM     15  O   UNL     1       3.211   3.354  16.635  0.00  0.00    +0.000 OA
ATOM     16  C   UNL     1       2.767   2.228  17.372  0.00  0.00    +0.000 C 
ENDBRANCH  10  15
ENDBRANCH   1   7
BRANCH   3  17
ATOM     17  N   UNL     1       8.671   8.600  18.511  0.00  0.00    +0.000 NA
ATOM     18  C   UNL     1       8.617   9.847  18.170  0.00  0.00    +0.000 C 
BRANCH  18  19
ATOM     19  C   UNL     1       9.605  10.826  18.677  0.00  0.00    +0.000 A 
ATOM     20  C   UNL     1      10.422  11.539  17.789  0.00  0.00    +0.000 A 
ATOM     21  C   UNL     1      11.347  12.465  18.288  0.00  0.00    +0.000 A 
ATOM     22  C   UNL     1      11.444  12.666  19.658  0.00  0.00    +0.000 A 
ATOM     23  F   UNL     1      12.333  13.546  20.137  0.00  0.00    +0.000 F 
ATOM     24  C   UNL     1      10.643  11.958  20.549  0.00  0.00    +0.000 A 
ATOM     25  C   UNL     1       9.715  11.034  20.058  0.00  0.00    +0.000 A 
ENDBRANCH  18  19
ENDBRANCH   3  17
TORSDOF 6
ENDMDL
MODEL 4
REMARK VINA RESULT:      -7.3      0.813      2.799
REMARK  Name = 
REMARK  9 active torsions:
REMARK  status: ('A' for Active; 'I' for Inactive)
REMARK    1  A    between atoms: C_1  and  O_2
REMARK    2  A    between atoms: O_2  and  C_3
REMARK    3  A    between atoms: C_5  and  C_6
REMARK    4  A    between atoms: N_8  and  N_9
REMARK    5  A    between atoms: C_10  and  C_11
REMARK    6  A    between atoms: C_19  and  O_20
REMARK    7  A    between atoms: O_20  and  C_21
REMARK    8  A    between atoms: C_22  and  O_23
REMARK    9  A    between atoms: O_23  and  C_24
REMARK                            x       y       z     vdW  Elec       q    Type
REMARK                         _______ _______ _______ _____ _____    ______ ____
ROOT
ATOM      1  C   UNL     1       7.689   6.362  18.634  0.00  0.00    +0.000 C 
ATOM      2  O   UNL     1       8.491   5.879  19.429  0.00  0.00    +0.000 OA
ATOM      3  N   UNL     1       7.739   7.656  18.129  0.00  0.00    +0.000 N 
ATOM      4  H   UNL     1       6.984   8.031  17.568  0.00  0.00    +0.000 HD
ENDROOT
BRANCH   1   7
ATOM      5  C   UNL     1       5.268   4.553  16.364  0.00  0.00    +0.000 A 
ATOM      6  C   UNL     1       6.273   5.411  16.842  0.00  0.00    +0.000 A 
ATOM      7  C   UNL     1       6.521   5.540  18.210  0.00  0.00    +0.000 A 
ATOM      8  C   UNL     1       5.686   4.890  19.112  0.00  0.00    +0.000 A 
ATOM      9  C   UNL     1       4.622   4.088  18.659  0.00  0.00    +0.000 A 
ATOM     10  C   UNL     1       4.401   3.906  17.272  0.00  0.00    +0.000 A 
BRANCH   5  12
ATOM     11  C   UNL     1       6.262   3.903  14.304  0.00  0.00    +0.000 C 
ATOM     12  O   UNL     1       5.108   4.357  15.015  0.00  0.00    +0.000 OA
ENDBRANCH   5  12
BRANCH   9  13
ATOM     13  O   UNL     1       3.926   3.552  19.716  0.00  0.00    +0.000 OA
ATOM     14  C   UNL     1       4.284   2.274  20.220  0.00  0.00    +0.000 C 
ENDBRANCH   9  13
BRANCH  10  15
ATOM     15  O   UNL     1       3.346   3.101  16.943  0.00  0.00    +0.000 OA
ATOM     16  C   UNL     1       2.007   3.460  17.238  0.00  0.00    +0.000 C 
ENDBRANCH  10  15
ENDBRANCH   1   7
BRANCH   3  17
ATOM     17  N   UNL     1       8.714   8.503  18.579  0.00  0.00    +0.000 NA
ATOM     18  C   UNL     1       8.566   9.757  18.295  0.00  0.00    +0.000 C 
BRANCH  18  19
ATOM     19  C   UNL     1       9.550  10.768  18.742  0.00  0.00    +0.000 A 
ATOM     20  C   UNL     1       9.865  10.903  20.101  0.00  0.00    +0.000 A 
ATOM     21  C   UNL     1      10.803  11.862  20.504  0.00  0.00    +0.000 A 
ATOM     22  C   UNL     1      11.411  12.669  19.551  0.00  0.00    +0.000 A 
ATOM     23  F   UNL     1      12.302  13.591  19.937  0.00  0.00    +0.000 F 
ATOM     24  C   UNL     1      11.099  12.548  18.201  0.00  0.00    +0.000 A 
ATOM     25  C   UNL     1      10.166  11.590  17.790  0.00  0.00    +0.000 A 
ENDBRANCH  18  19
ENDBRANCH   3  17
TORSDOF 6
ENDMDL
MODEL 5
REMARK VINA RESULT:      -7.2      0.504      2.816
REMARK  Name = 
REMARK  9 active torsions:
REMARK  status: ('A' for Active; 'I' for Inactive)
REMARK    1  A    between atoms: C_1  and  O_2
REMARK    2  A    between atoms: O_2  and  C_3
REMARK    3  A    between atoms: C_5  and  C_6
REMARK    4  A    between atoms: N_8  and  N_9
REMARK    5  A    between atoms: C_10  and  C_11
REMARK    6  A    between atoms: C_19  and  O_20
REMARK    7  A    between atoms: O_20  and  C_21
REMARK    8  A    between atoms: C_22  and  O_23
REMARK    9  A    between atoms: O_23  and  C_24
REMARK                            x       y       z     vdW  Elec       q    Type
REMARK                         _______ _______ _______ _____ _____    ______ ____
ROOT
ATOM      1  C   UNL     1       7.589   6.827  18.152  0.00  0.00    +0.000 C 
ATOM      2  O   UNL     1       8.329   6.490  19.072  0.00  0.00    +0.000 OA
ATOM      3  N   UNL     1       7.721   7.988  17.399  0.00  0.00    +0.000 N 
ATOM      4  H   UNL     1       7.011   8.267  16.733  0.00  0.00    +0.000 HD
ENDROOT
BRANCH   1   7
ATOM      5  C   UNL     1       5.430   4.267  16.398  0.00  0.00    +0.000 A 
ATOM      6  C   UNL     1       6.453   5.186  16.690  0.00  0.00    +0.000 A 
ATOM      7  C   UNL     1       6.405   5.978  17.839  0.00  0.00    +0.000 A 
ATOM      8  C   UNL     1       5.274   5.929  18.646  0.00  0.00    +0.000 A 
ATOM      9  C   UNL     1       4.200   5.076  18.331  0.00  0.00    +0.000 A 
ATOM     10  C   UNL     1       4.268   4.227  17.199  0.00  0.00    +0.000 A 
BRANCH   5  12
ATOM     11  C   UNL     1       6.231   3.945  14.183  0.00  0.00    +0.000 C 
ATOM     12  O   UNL     1       5.544   3.423  15.323  0.00  0.00    +0.000 OA
ENDBRANCH   5  12
BRANCH   9  13
ATOM     13  O   UNL     1       3.189   5.197  19.254  0.00  0.00    +0.000 OA
ATOM     14  C   UNL     1       2.620   6.471  19.512  0.00  0.00    +0.000 C 
ENDBRANCH   9  13
BRANCH  10  15
ATOM     15  O   UNL     1       3.174   3.433  16.991  0.00  0.00    +0.000 OA
ATOM     16  C   UNL     1       2.969   2.233  17.716  0.00  0.00    +0.000 C 
ENDBRANCH  10  15
ENDBRANCH   1   7
BRANCH   3  17
ATOM     17  N   UNL     1       8.711   8.875  17.722  0.00  0.00    +0.000 NA
ATOM     18  C   UNL     1       8.350   9.929  18.380  0.00  0.00    +0.000 C 
BRANCH  18  19
ATOM     19  C   UNL     1       9.337  10.950  18.796  0.00  0.00    +0.000 A 
ATOM     20  C   UNL     1       9.799  10.998  20.118  0.00  0.00    +0.000 A 
ATOM     21  C   UNL     1      10.738  11.969  20.491  0.00  0.00    +0.000 A 
ATOM     22  C   UNL     1      11.200  12.874  19.546  0.00  0.00    +0.000 A 
ATOM     23  F   UNL     1      12.091  13.807  19.903  0.00  0.00    +0.000 F 
ATOM     24  C   UNL     1      10.741  12.840  18.232  0.00  0.00    +0.000 A 
ATOM     25  C   UNL     1       9.807  11.872  17.852  0.00  0.00    +0.000 A 
ENDBRANCH  18  19
ENDBRANCH   3  17
TORSDOF 6
ENDMDL
MODEL 6
REMARK VINA RESULT:      -7.1      5.589      8.125
REMARK  Name = 
REMARK  9 active torsions:
REMARK  status: ('A' for Active; 'I' for Inactive)
REMARK    1  A    between atoms: C_1  and  O_2
REMARK    2  A    between atoms: O_2  and  C_3
REMARK    3  A    between atoms: C_5  and  C_6
REMARK    4  A    between atoms: N_8  and  N_9
REMARK    5  A    between atoms: C_10  and  C_11
REMARK    6  A    between atoms: C_19  and  O_20
REMARK    7  A    between atoms: O_20  and  C_21
REMARK    8  A    between atoms: C_22  and  O_23
REMARK    9  A    between atoms: O_23  and  C_24
REMARK                            x       y       z     vdW  Elec       q    Type
REMARK                         _______ _______ _______ _____ _____    ______ ____
ROOT
ATOM      1  C   UNL     1       2.428   7.589  18.716  0.00  0.00    +0.000 C 
ATOM      2  O   UNL     1       2.047   7.312  19.850  0.00  0.00    +0.000 OA
ATOM      3  N   UNL     1       2.063   8.724  18.001  0.00  0.00    +0.000 N 
ATOM      4  H   UNL     1       2.318   8.836  17.027  0.00  0.00    +0.000 HD
ENDROOT
BRANCH   1   7
ATOM      5  C   UNL     1       5.414   6.213  16.850  0.00  0.00    +0.000 A 
ATOM      6  C   UNL     1       4.484   7.091  17.433  0.00  0.00    +0.000 A 
ATOM      7  C   UNL     1       3.298   6.616  17.997  0.00  0.00    +0.000 A 
ATOM      8  C   UNL     1       2.989   5.265  17.882  0.00  0.00    +0.000 A 
ATOM      9  C   UNL     1       3.867   4.378  17.232  0.00  0.00    +0.000 A 
ATOM     10  C   UNL     1       5.099   4.843  16.709  0.00  0.00    +0.000 A 
BRANCH   5  12
ATOM     11  C   UNL     1       7.558   7.082  17.397  0.00  0.00    +0.000 C 
ATOM     12  O   UNL     1       6.619   6.683  16.395  0.00  0.00    +0.000 OA
ENDBRANCH   5  12
BRANCH   9  13
ATOM     13  O   UNL     1       3.360   3.101  17.227  0.00  0.00    +0.000 OA
ATOM     14  C   UNL     1       3.596   2.245  18.335  0.00  0.00    +0.000 C 
ENDBRANCH   9  13
BRANCH  10  15
ATOM     15  O   UNL     1       5.878   3.896  16.106  0.00  0.00    +0.000 OA
ATOM     16  C   UNL     1       6.082   3.872  14.703  0.00  0.00    +0.000 C 
ENDBRANCH  10  15
ENDBRANCH   1   7
BRANCH   3  17
ATOM     17  N   UNL     1       1.163   9.592  18.555  0.00  0.00    +0.000 NA
ATOM     18  C   UNL     1       0.000   9.656  17.992  0.00  0.00    +0.000 C 
BRANCH  18  19
ATOM     19  C   UNL     1      -1.058  10.549  18.513  0.00  0.00    +0.000 A 
ATOM     20  C   UNL     1      -0.842  11.312  19.668  0.00  0.00    +0.000 A 
ATOM     21  C   UNL     1      -1.855  12.157  20.142  0.00  0.00    +0.000 A 
ATOM     22  C   UNL     1      -3.063  12.227  19.462  0.00  0.00    +0.000 A 
ATOM     23  F   UNL     1      -4.034  13.027  19.919  0.00  0.00    +0.000 F 
ATOM     24  C   UNL     1      -3.290  11.466  18.319  0.00  0.00    +0.000 A 
ATOM     25  C   UNL     1      -2.283  10.624  17.837  0.00  0.00    +0.000 A 
ENDBRANCH  18  19
ENDBRANCH   3  17
TORSDOF 6
ENDMDL
MODEL 7
REMARK VINA RESULT:      -7.1      5.577      8.051
REMARK  Name = 
REMARK  9 active torsions:
REMARK  status: ('A' for Active; 'I' for Inactive)
REMARK    1  A    between atoms: C_1  and  O_2
REMARK    2  A    between atoms: O_2  and  C_3
REMARK    3  A    between atoms: C_5  and  C_6
REMARK    4  A    between atoms: N_8  and  N_9
REMARK    5  A    between atoms: C_10  and  C_11
REMARK    6  A    between atoms: C_19  and  O_20
REMARK    7  A    between atoms: O_20  and  C_21
REMARK    8  A    between atoms: C_22  and  O_23
REMARK    9  A    between atoms: O_23  and  C_24
REMARK                            x       y       z     vdW  Elec       q    Type
REMARK                         _______ _______ _______ _____ _____    ______ ____
ROOT
ATOM      1  C   UNL     1       2.509   7.670  18.619  0.00  0.00    +0.000 C 
ATOM      2  O   UNL     1       2.064   7.433  19.739  0.00  0.00    +0.000 OA
ATOM      3  N   UNL     1       2.163   8.763  17.833  0.00  0.00    +0.000 N 
ATOM      4  H   UNL     1       2.475   8.839  16.873  0.00  0.00    +0.000 HD
ENDROOT
BRANCH   1   7
ATOM      5  C   UNL     1       3.799   4.410  17.207  0.00  0.00    +0.000 A 
ATOM      6  C   UNL     1       3.025   5.362  17.891  0.00  0.00    +0.000 A 
ATOM      7  C   UNL     1       3.444   6.690  18.000  0.00  0.00    +0.000 A 
ATOM      8  C   UNL     1       4.698   7.044  17.513  0.00  0.00    +0.000 A 
ATOM      9  C   UNL     1       5.526   6.089  16.895  0.00  0.00    +0.000 A 
ATOM     10  C   UNL     1       5.083   4.754  16.730  0.00  0.00    +0.000 A 
BRANCH   5  12
ATOM     11  C   UNL     1       3.235   2.319  18.188  0.00  0.00    +0.000 C 
ATOM     12  O   UNL     1       3.323   3.137  17.019  0.00  0.00    +0.000 OA
ENDBRANCH   5  12
BRANCH   9  13
ATOM     13  O   UNL     1       6.717   6.653  16.501  0.00  0.00    +0.000 OA
ATOM     14  C   UNL     1       7.509   7.357  17.446  0.00  0.00    +0.000 C 
ENDBRANCH   9  13
BRANCH  10  15
ATOM     15  O   UNL     1       5.963   3.913  16.108  0.00  0.00    +0.000 OA
ATOM     16  C   UNL     1       6.117   3.895  14.699  0.00  0.00    +0.000 C 
ENDBRANCH  10  15
ENDBRANCH   1   7
BRANCH   3  17
ATOM     17  N   UNL     1       1.210   9.630  18.291  0.00  0.00    +0.000 NA
ATOM     18  C   UNL     1       0.010   9.464  17.837  0.00  0.00    +0.000 C 
BRANCH  18  19
ATOM     19  C   UNL     1      -1.104  10.333  18.272  0.00  0.00    +0.000 A 
ATOM     20  C   UNL     1      -0.952  11.192  19.369  0.00  0.00    +0.000 A 
ATOM     21  C   UNL     1      -2.017  12.012  19.763  0.00  0.00    +0.000 A 
ATOM     22  C   UNL     1      -3.214  11.964  19.061  0.00  0.00    +0.000 A 
ATOM     23  F   UNL     1      -4.236  12.742  19.441  0.00  0.00    +0.000 F 
ATOM     24  C   UNL     1      -3.379  11.109  17.975  0.00  0.00    +0.000 A 
ATOM     25  C   UNL     1      -2.318  10.290  17.575  0.00  0.00    +0.000 A 
ENDBRANCH  18  19
ENDBRANCH   3  17
TORSDOF 6
ENDMDL
MODEL 8
REMARK VINA RESULT:      -7.1      5.476      7.960
REMARK  Name = 
REMARK  9 active torsions:
REMARK  status: ('A' for Active; 'I' for Inactive)
REMARK    1  A    between atoms: C_1  and  O_2
REMARK    2  A    between atoms: O_2  and  C_3
REMARK    3  A    between atoms: C_5  and  C_6
REMARK    4  A    between atoms: N_8  and  N_9
REMARK    5  A    between atoms: C_10  and  C_11
REMARK    6  A    between atoms: C_19  and  O_20
REMARK    7  A    between atoms: O_20  and  C_21
REMARK    8  A    between atoms: C_22  and  O_23
REMARK    9  A    between atoms: O_23  and  C_24
REMARK                            x       y       z     vdW  Elec       q    Type
REMARK                         _______ _______ _______ _____ _____    ______ ____
ROOT
ATOM      1  C   UNL     1       2.507   7.355  18.756  0.00  0.00    +0.000 C 
ATOM      2  O   UNL     1       2.085   6.998  19.852  0.00  0.00    +0.000 OA
ATOM      3  N   UNL     1       2.172   8.542  18.114  0.00  0.00    +0.000 N 
ATOM      4  H   UNL     1       2.461   8.724  17.161  0.00  0.00    +0.000 HD
ENDROOT
BRANCH   1   7
ATOM      5  C   UNL     1       5.539   6.111  16.873  0.00  0.00    +0.000 A 
ATOM      6  C   UNL     1       4.592   6.947  17.488  0.00  0.00    +0.000 A 
ATOM      7  C   UNL     1       3.398   6.433  17.998  0.00  0.00    +0.000 A 
ATOM      8  C   UNL     1       3.101   5.089  17.795  0.00  0.00    +0.000 A 
ATOM      9  C   UNL     1       3.998   4.248  17.111  0.00  0.00    +0.000 A 
ATOM     10  C   UNL     1       5.236   4.751  16.643  0.00  0.00    +0.000 A 
BRANCH   5  12
ATOM     11  C   UNL     1       7.493   7.331  17.462  0.00  0.00    +0.000 C 
ATOM     12  O   UNL     1       6.751   6.615  16.472  0.00  0.00    +0.000 OA
ENDBRANCH   5  12
BRANCH   9  13
ATOM     13  O   UNL     1       3.500   2.971  17.019  0.00  0.00    +0.000 OA
ATOM     14  C   UNL     1       2.826   2.395  18.128  0.00  0.00    +0.000 C 
ENDBRANCH   9  13
BRANCH  10  15
ATOM     15  O   UNL     1       6.035   3.846  16.000  0.00  0.00    +0.000 OA
ATOM     16  C   UNL     1       6.212   3.867  14.594  0.00  0.00    +0.000 C 
ENDBRANCH  10  15
ENDBRANCH   1   7
BRANCH   3  17
ATOM     17  N   UNL     1       1.256   9.373  18.699  0.00  0.00    +0.000 NA
ATOM     18  C   UNL     1       0.222   9.685  17.987  0.00  0.00    +0.000 C 
BRANCH  18  19
ATOM     19  C   UNL     1      -0.841  10.565  18.521  0.00  0.00    +0.000 A 
ATOM     20  C   UNL     1      -2.067  10.689  17.852  0.00  0.00    +0.000 A 
ATOM     21  C   UNL     1      -3.063  11.522  18.377  0.00  0.00    +0.000 A 
ATOM     22  C   UNL     1      -2.824  12.218  19.554  0.00  0.00    +0.000 A 
ATOM     23  F   UNL     1      -3.773  13.021  20.052  0.00  0.00    +0.000 F 
ATOM     24  C   UNL     1      -1.608  12.109  20.221  0.00  0.00    +0.000 A 
ATOM     25  C   UNL     1      -0.610  11.276  19.706  0.00  0.00    +0.000 A 
ENDBRANCH  18  19
ENDBRANCH   3  17
TORSDOF 6
ENDMDL
MODEL 9
REMARK VINA RESULT:      -7.0      5.475      7.858
REMARK  Name = 
REMARK  9 active torsions:
REMARK  status: ('A' for Active; 'I' for Inactive)
REMARK    1  A    between atoms: C_1  and  O_2
REMARK    2  A    between atoms: O_2  and  C_3
REMARK    3  A    between atoms: C_5  and  C_6
REMARK    4  A    between atoms: N_8  and  N_9
REMARK    5  A    between atoms: C_10  and  C_11
REMARK    6  A    between atoms: C_19  and  O_20
REMARK    7  A    between atoms: O_20  and  C_21
REMARK    8  A    between atoms: C_22  and  O_23
REMARK    9  A    between atoms: O_23  and  C_24
REMARK                            x       y       z     vdW  Elec       q    Type
REMARK                         _______ _______ _______ _____ _____    ______ ____
ROOT
ATOM      1  C   UNL     1       2.543   7.400  18.783  0.00  0.00    +0.000 C 
ATOM      2  O   UNL     1       2.062   7.054  19.859  0.00  0.00    +0.000 OA
ATOM      3  N   UNL     1       2.243   8.581  18.113  0.00  0.00    +0.000 N 
ATOM      4  H   UNL     1       2.584   8.753  17.175  0.00  0.00    +0.000 HD
ENDROOT
BRANCH   1   7
ATOM      5  C   UNL     1       3.849   4.231  17.190  0.00  0.00    +0.000 A 
ATOM      6  C   UNL     1       3.085   5.136  17.946  0.00  0.00    +0.000 A 
ATOM      7  C   UNL     1       3.473   6.470  18.083  0.00  0.00    +0.000 A 
ATOM      8  C   UNL     1       4.691   6.877  17.550  0.00  0.00    +0.000 A 
ATOM      9  C   UNL     1       5.513   5.970  16.858  0.00  0.00    +0.000 A 
ATOM     10  C   UNL     1       5.098   4.629  16.665  0.00  0.00    +0.000 A 
BRANCH   5  12
ATOM     11  C   UNL     1       3.470   2.067  18.098  0.00  0.00    +0.000 C 
ATOM     12  O   UNL     1       3.399   2.952  16.979  0.00  0.00    +0.000 OA
ENDBRANCH   5  12
BRANCH   9  13
ATOM     13  O   UNL     1       6.667   6.581  16.428  0.00  0.00    +0.000 OA
ATOM     14  C   UNL     1       7.446   7.336  17.344  0.00  0.00    +0.000 C 
ENDBRANCH   9  13
BRANCH  10  15
ATOM     15  O   UNL     1       5.969   3.836  15.971  0.00  0.00    +0.000 OA
ATOM     16  C   UNL     1       6.112   3.929  14.564  0.00  0.00    +0.000 C 
ENDBRANCH  10  15
ENDBRANCH   1   7
BRANCH   3  17
ATOM     17  N   UNL     1       1.298   9.417  18.639  0.00  0.00    +0.000 NA
ATOM     18  C   UNL     1       0.230   9.599  17.933  0.00  0.00    +0.000 C 
BRANCH  18  19
ATOM     19  C   UNL     1      -0.867  10.471  18.408  0.00  0.00    +0.000 A 
ATOM     20  C   UNL     1      -2.050  10.596  17.668  0.00  0.00    +0.000 A 
ATOM     21  C   UNL     1      -3.080  11.422  18.138  0.00  0.00    +0.000 A 
ATOM     22  C   UNL     1      -2.915  12.110  19.333  0.00  0.00    +0.000 A 
ATOM     23  F   UNL     1      -3.895  12.906  19.779  0.00  0.00    +0.000 F 
ATOM     24  C   UNL     1      -1.741  11.999  20.071  0.00  0.00    +0.000 A 
ATOM     25  C   UNL     1      -0.710  11.173  19.610  0.00  0.00    +0.000 A 
ENDBRANCH  18  19
ENDBRANCH   3  17
TORSDOF 6
ENDMDL
