MODEL 1
REMARK VINA RESULT:      -7.1      0.000      0.000
REMARK  Name = 
REMARK  9 active torsions:
REMARK  status: ('A' for Active; 'I' for Inactive)
REMARK    1  A    between atoms: C_1  and  O_2
REMARK    2  A    between atoms: O_2  and  C_3
REMARK    3  A    between atoms: C_8  and  C_9
REMARK    4  A    between atoms: C_9  and  C_10
REMARK    5  A    between atoms: N_12  and  C_13
REMARK    6  A    between atoms: N_12  and  C_21
REMARK    7  A    between atoms: C_13  and  C_14
REMARK    8  A    between atoms: C_14  and  N_15
REMARK    9  A    between atoms: C_21  and  C_22
REMARK                            x       y       z     vdW  Elec       q    Type
REMARK                         _______ _______ _______ _____ _____    ______ ____
ROOT
ATOM      1  C   UNL     1       3.189   7.244  17.901  0.00  0.00    +0.000 C 
ATOM      2  O   UNL     1       4.293   7.765  17.714  0.00  0.00    +0.000 OA
ATOM      3  N   UNL     1       3.065   5.864  18.147  0.00  0.00    +0.000 N 
ENDROOT
BRANCH   1   4
ATOM      4  C   UNL     1       1.885   8.051  17.908  0.00  0.00    +0.000 C 
BRANCH   4  10
ATOM      5  C   UNL     1       0.514   9.719  19.275  0.00  0.00    +0.000 A 
ATOM      6  C   UNL     1       0.062  10.197  20.513  0.00  0.00    +0.000 A 
ATOM      7  C   UNL     1       0.455   9.580  21.698  0.00  0.00    +0.000 A 
ATOM      8  C   UNL     1       1.315   8.486  21.658  0.00  0.00    +0.000 A 
ATOM      9  C   UNL     1       1.800   8.024  20.435  0.00  0.00    +0.000 A 
ATOM     10  C   UNL     1       1.423   8.639  19.228  0.00  0.00    +0.000 A 
BRANCH   5  12
ATOM     11  C   UNL     1      -1.285  10.313  17.843  0.00  0.00    +0.000 C 
ATOM     12  O   UNL     1       0.119  10.254  18.075  0.00  0.00    +0.000 OA
ENDBRANCH   5  12
ENDBRANCH   4  10
ENDBRANCH   1   4
BRANCH   3  13
ATOM     13  C   UNL     1       4.270   5.015  18.095  0.00  0.00    +0.000 C 
BRANCH  13  14
ATOM     14  C   UNL     1       4.528   4.337  16.726  0.00  0.00    +0.000 C 
BRANCH  14  15
ATOM     15  N   UNL     1       5.886   3.760  16.569  0.00  0.00    +0.000 NA
ATOM     16  C   UNL     1       6.889   4.578  17.299  0.00  0.00    +0.000 C 
ATOM     17  C   UNL     1       7.180   5.945  16.645  0.00  0.00    +0.000 C 
ATOM     18  O   UNL     1       7.563   5.809  15.270  0.00  0.00    +0.000 OA
ATOM     19  C   UNL     1       6.573   5.081  14.530  0.00  0.00    +0.000 C 
ATOM     20  C   UNL     1       6.335   3.698  15.157  0.00  0.00    +0.000 C 
ENDBRANCH  14  15
ENDBRANCH  13  14
ENDBRANCH   3  13
BRANCH   3  21
ATOM     21  C   UNL     1       1.785   5.160  18.015  0.00  0.00    +0.000 C 
BRANCH  21  22
ATOM     22  C   UNL     1       1.555   4.224  19.152  0.00  0.00    +0.000 A 
ATOM     23  C   UNL     1       1.305   4.377  20.504  0.00  0.00    +0.000 A 
ATOM     24  C   UNL     1       1.229   3.074  21.051  0.00  0.00    +0.000 A 
ATOM     25  C   UNL     1       1.431   2.210  20.001  0.00  0.00    +0.000 A 
ATOM     26  O   UNL     1       1.631   2.895  18.849  0.00  0.00    +0.000 OA
ENDBRANCH  21  22
ENDBRANCH   3  21
TORSDOF 8
ENDMDL
MODEL 2
REMARK VINA RESULT:      -6.8      1.101      1.417
REMARK  Name = 
REMARK  9 active torsions:
REMARK  status: ('A' for Active; 'I' for Inactive)
REMARK    1  A    between atoms: C_1  and  O_2
REMARK    2  A    between atoms: O_2  and  C_3
REMARK    3  A    between atoms: C_8  and  C_9
REMARK    4  A    between atoms: C_9  and  C_10
REMARK    5  A    between atoms: N_12  and  C_13
REMARK    6  A    between atoms: N_12  and  C_21
REMARK    7  A    between atoms: C_13  and  C_14
REMARK    8  A    between atoms: C_14  and  N_15
REMARK    9  A    between atoms: C_21  and  C_22
REMARK                            x       y       z     vdW  Elec       q    Type
REMARK                         _______ _______ _______ _____ _____    ______ ____
ROOT
ATOM      1  C   UNL     1       3.167   7.218  17.863  0.00  0.00    +0.000 C 
ATOM      2  O   UNL     1       4.228   7.791  17.598  0.00  0.00    +0.000 OA
ATOM      3  N   UNL     1       3.131   5.837  18.136  0.00  0.00    +0.000 N 
ENDROOT
BRANCH   1   4
ATOM      4  C   UNL     1       1.826   7.956  17.942  0.00  0.00    +0.000 C 
BRANCH   4  10
ATOM      5  C   UNL     1       0.550   9.684  19.328  0.00  0.00    +0.000 A 
ATOM      6  C   UNL     1       0.174  10.208  20.572  0.00  0.00    +0.000 A 
ATOM      7  C   UNL     1       0.628   9.626  21.754  0.00  0.00    +0.000 A 
ATOM      8  C   UNL     1       1.474   8.523  21.702  0.00  0.00    +0.000 A 
ATOM      9  C   UNL     1       1.884   8.015  20.469  0.00  0.00    +0.000 A 
ATOM     10  C   UNL     1       1.445   8.594  19.266  0.00  0.00    +0.000 A 
BRANCH   5  12
ATOM     11  C   UNL     1      -1.144  10.889  18.179  0.00  0.00    +0.000 C 
ATOM     12  O   UNL     1       0.092  10.183  18.134  0.00  0.00    +0.000 OA
ENDBRANCH   5  12
ENDBRANCH   4  10
ENDBRANCH   1   4
BRANCH   3  13
ATOM     13  C   UNL     1       4.374   5.050  18.019  0.00  0.00    +0.000 C 
BRANCH  13  14
ATOM     14  C   UNL     1       5.434   5.347  19.108  0.00  0.00    +0.000 C 
BRANCH  14  15
ATOM     15  N   UNL     1       6.809   4.900  18.770  0.00  0.00    +0.000 NA
ATOM     16  C   UNL     1       7.792   5.979  19.045  0.00  0.00    +0.000 C 
ATOM     17  C   UNL     1       7.721   7.160  18.055  0.00  0.00    +0.000 C 
ATOM     18  O   UNL     1       7.838   6.723  16.694  0.00  0.00    +0.000 OA
ATOM     19  C   UNL     1       6.850   5.730  16.386  0.00  0.00    +0.000 C 
ATOM     20  C   UNL     1       6.970   4.532  17.343  0.00  0.00    +0.000 C 
ENDBRANCH  14  15
ENDBRANCH  13  14
ENDBRANCH   3  13
BRANCH   3  21
ATOM     21  C   UNL     1       1.885   5.067  18.096  0.00  0.00    +0.000 C 
BRANCH  21  22
ATOM     22  C   UNL     1       1.792   4.115  19.240  0.00  0.00    +0.000 A 
ATOM     23  C   UNL     1       1.553   2.758  19.360  0.00  0.00    +0.000 A 
ATOM     24  C   UNL     1       1.548   2.470  20.746  0.00  0.00    +0.000 A 
ATOM     25  C   UNL     1       1.789   3.664  21.383  0.00  0.00    +0.000 A 
ATOM     26  O   UNL     1       1.935   4.665  20.482  0.00  0.00    +0.000 OA
ENDBRANCH  21  22
ENDBRANCH   3  21
TORSDOF 8
ENDMDL
MODEL 3
REMARK VINA RESULT:      -6.6      1.787      2.776
REMARK  Name = 
REMARK  9 active torsions:
REMARK  status: ('A' for Active; 'I' for Inactive)
REMARK    1  A    between atoms: C_1  and  O_2
REMARK    2  A    between atoms: O_2  and  C_3
REMARK    3  A    between atoms: C_8  and  C_9
REMARK    4  A    between atoms: C_9  and  C_10
REMARK    5  A    between atoms: N_12  and  C_13
REMARK    6  A    between atoms: N_12  and  C_21
REMARK    7  A    between atoms: C_13  and  C_14
REMARK    8  A    between atoms: C_14  and  N_15
REMARK    9  A    between atoms: C_21  and  C_22
REMARK                            x       y       z     vdW  Elec       q    Type
REMARK                         _______ _______ _______ _____ _____    ______ ____
ROOT
ATOM      1  C   UNL     1       1.937   8.394  18.614  0.00  0.00    +0.000 C 
ATOM      2  O   UNL     1       2.091   8.639  17.414  0.00  0.00    +0.000 OA
ATOM      3  N   UNL     1       2.333   7.159  19.163  0.00  0.00    +0.000 N 
ENDROOT
BRANCH   1   4
ATOM      4  C   UNL     1       1.337   9.407  19.595  0.00  0.00    +0.000 C 
BRANCH   4  10
ATOM      5  C   UNL     1       0.526  11.772  19.063  0.00  0.00    +0.000 A 
ATOM      6  C   UNL     1      -0.429  12.634  18.508  0.00  0.00    +0.000 A 
ATOM      7  C   UNL     1      -1.578  12.126  17.904  0.00  0.00    +0.000 A 
ATOM      8  C   UNL     1      -1.788  10.752  17.861  0.00  0.00    +0.000 A 
ATOM      9  C   UNL     1      -0.862   9.886  18.441  0.00  0.00    +0.000 A 
ATOM     10  C   UNL     1       0.299  10.378  19.064  0.00  0.00    +0.000 A 
BRANCH   5  12
ATOM     11  C   UNL     1       1.577  13.170  20.669  0.00  0.00    +0.000 C 
ATOM     12  O   UNL     1       1.699  12.213  19.622  0.00  0.00    +0.000 OA
ENDBRANCH   5  12
ENDBRANCH   4  10
ENDBRANCH   1   4
BRANCH   3  13
ATOM     13  C   UNL     1       2.862   6.113  18.268  0.00  0.00    +0.000 C 
BRANCH  13  14
ATOM     14  C   UNL     1       4.398   6.144  18.070  0.00  0.00    +0.000 C 
BRANCH  14  15
ATOM     15  N   UNL     1       5.113   4.958  18.602  0.00  0.00    +0.000 NA
ATOM     16  C   UNL     1       6.395   5.361  19.237  0.00  0.00    +0.000 C 
ATOM     17  C   UNL     1       7.479   5.809  18.233  0.00  0.00    +0.000 C 
ATOM     18  O   UNL     1       7.718   4.815  17.228  0.00  0.00    +0.000 OA
ATOM     19  C   UNL     1       6.502   4.461  16.554  0.00  0.00    +0.000 C 
ATOM     20  C   UNL     1       5.452   3.961  17.558  0.00  0.00    +0.000 C 
ENDBRANCH  14  15
ENDBRANCH  13  14
ENDBRANCH   3  13
BRANCH   3  21
ATOM     21  C   UNL     1       1.851   6.696  20.468  0.00  0.00    +0.000 C 
BRANCH  21  22
ATOM     22  C   UNL     1       1.734   5.210  20.513  0.00  0.00    +0.000 A 
ATOM     23  C   UNL     1       0.810   4.292  20.049  0.00  0.00    +0.000 A 
ATOM     24  C   UNL     1       1.263   3.017  20.466  0.00  0.00    +0.000 A 
ATOM     25  C   UNL     1       2.434   3.236  21.150  0.00  0.00    +0.000 A 
ATOM     26  O   UNL     1       2.727   4.559  21.187  0.00  0.00    +0.000 OA
ENDBRANCH  21  22
ENDBRANCH   3  21
TORSDOF 8
ENDMDL
MODEL 4
REMARK VINA RESULT:      -6.6      1.580      2.742
REMARK  Name = 
REMARK  9 active torsions:
REMARK  status: ('A' for Active; 'I' for Inactive)
REMARK    1  A    between atoms: C_1  and  O_2
REMARK    2  A    between atoms: O_2  and  C_3
REMARK    3  A    between atoms: C_8  and  C_9
REMARK    4  A    between atoms: C_9  and  C_10
REMARK    5  A    between atoms: N_12  and  C_13
REMARK    6  A    between atoms: N_12  and  C_21
REMARK    7  A    between atoms: C_13  and  C_14
REMARK    8  A    between atoms: C_14  and  N_15
REMARK    9  A    between atoms: C_21  and  C_22
REMARK                            x       y       z     vdW  Elec       q    Type
REMARK                         _______ _______ _______ _____ _____    ______ ____
ROOT
ATOM      1  C   UNL     1       2.120   8.166  18.853  0.00  0.00    +0.000 C 
ATOM      2  O   UNL     1       2.379   8.472  17.685  0.00  0.00    +0.000 OA
ATOM      3  N   UNL     1       2.301   6.851  19.321  0.00  0.00    +0.000 N 
ENDROOT
BRANCH   1   4
ATOM      4  C   UNL     1       1.615   9.185  19.882  0.00  0.00    +0.000 C 
BRANCH   4  10
ATOM      5  C   UNL     1      -0.286  10.769  20.523  0.00  0.00    +0.000 A 
ATOM      6  C   UNL     1      -1.440  11.486  20.180  0.00  0.00    +0.000 A 
ATOM      7  C   UNL     1      -1.958  11.422  18.888  0.00  0.00    +0.000 A 
ATOM      8  C   UNL     1      -1.333  10.629  17.930  0.00  0.00    +0.000 A 
ATOM      9  C   UNL     1      -0.204   9.884  18.270  0.00  0.00    +0.000 A 
ATOM     10  C   UNL     1       0.327   9.927  19.570  0.00  0.00    +0.000 A 
BRANCH   5  12
ATOM     11  C   UNL     1      -0.525  10.468  22.867  0.00  0.00    +0.000 C 
ATOM     12  O   UNL     1       0.297  10.835  21.764  0.00  0.00    +0.000 OA
ENDBRANCH   5  12
ENDBRANCH   4  10
ENDBRANCH   1   4
BRANCH   3  13
ATOM     13  C   UNL     1       2.727   5.804  18.373  0.00  0.00    +0.000 C 
BRANCH  13  14
ATOM     14  C   UNL     1       4.260   5.645  18.228  0.00  0.00    +0.000 C 
BRANCH  14  15
ATOM     15  N   UNL     1       4.820   6.178  16.961  0.00  0.00    +0.000 NA
ATOM     16  C   UNL     1       5.194   5.068  16.047  0.00  0.00    +0.000 C 
ATOM     17  C   UNL     1       6.443   4.280  16.495  0.00  0.00    +0.000 C 
ATOM     18  O   UNL     1       7.569   5.141  16.711  0.00  0.00    +0.000 OA
ATOM     19  C   UNL     1       7.249   6.181  17.645  0.00  0.00    +0.000 C 
ATOM     20  C   UNL     1       6.040   6.996  17.158  0.00  0.00    +0.000 C 
ENDBRANCH  14  15
ENDBRANCH  13  14
ENDBRANCH   3  13
BRANCH   3  21
ATOM     21  C   UNL     1       1.681   6.373  20.561  0.00  0.00    +0.000 C 
BRANCH  21  22
ATOM     22  C   UNL     1       1.662   4.883  20.624  0.00  0.00    +0.000 A 
ATOM     23  C   UNL     1       0.809   3.899  20.158  0.00  0.00    +0.000 A 
ATOM     24  C   UNL     1       1.338   2.663  20.599  0.00  0.00    +0.000 A 
ATOM     25  C   UNL     1       2.481   2.968  21.300  0.00  0.00    +0.000 A 
ATOM     26  O   UNL     1       2.684   4.307  21.323  0.00  0.00    +0.000 OA
ENDBRANCH  21  22
ENDBRANCH   3  21
TORSDOF 8
ENDMDL
MODEL 5
REMARK VINA RESULT:      -6.6      1.444      2.075
REMARK  Name = 
REMARK  9 active torsions:
REMARK  status: ('A' for Active; 'I' for Inactive)
REMARK    1  A    between atoms: C_1  and  O_2
REMARK    2  A    between atoms: O_2  and  C_3
REMARK    3  A    between atoms: C_8  and  C_9
REMARK    4  A    between atoms: C_9  and  C_10
REMARK    5  A    between atoms: N_12  and  C_13
REMARK    6  A    between atoms: N_12  and  C_21
REMARK    7  A    between atoms: C_13  and  C_14
REMARK    8  A    between atoms: C_14  and  N_15
REMARK    9  A    between atoms: C_21  and  C_22
REMARK                            x       y       z     vdW  Elec       q    Type
REMARK                         _______ _______ _______ _____ _____    ______ ____
ROOT
ATOM      1  C   UNL     1       3.035   7.133  17.966  0.00  0.00    +0.000 C 
ATOM      2  O   UNL     1       4.015   7.851  17.746  0.00  0.00    +0.000 OA
ATOM      3  N   UNL     1       3.165   5.736  18.079  0.00  0.00    +0.000 N 
ENDROOT
BRANCH   1   4
ATOM      4  C   UNL     1       1.623   7.697  18.158  0.00  0.00    +0.000 C 
BRANCH   4  10
ATOM      5  C   UNL     1       1.105   9.383  20.008  0.00  0.00    +0.000 A 
ATOM      6  C   UNL     1       1.054  10.705  20.471  0.00  0.00    +0.000 A 
ATOM      7  C   UNL     1       1.437  11.760  19.645  0.00  0.00    +0.000 A 
ATOM      8  C   UNL     1       1.863  11.504  18.345  0.00  0.00    +0.000 A 
ATOM      9  C   UNL     1       1.884  10.195  17.863  0.00  0.00    +0.000 A 
ATOM     10  C   UNL     1       1.492   9.118  18.677  0.00  0.00    +0.000 A 
BRANCH   5  12
ATOM     11  C   UNL     1      -0.286   8.479  21.709  0.00  0.00    +0.000 C 
ATOM     12  O   UNL     1       0.790   8.302  20.793  0.00  0.00    +0.000 OA
ENDBRANCH   5  12
ENDBRANCH   4  10
ENDBRANCH   1   4
BRANCH   3  13
ATOM     13  C   UNL     1       4.484   5.117  17.846  0.00  0.00    +0.000 C 
BRANCH  13  14
ATOM     14  C   UNL     1       5.474   5.234  19.031  0.00  0.00    +0.000 C 
BRANCH  14  15
ATOM     15  N   UNL     1       6.881   4.902  18.695  0.00  0.00    +0.000 NA
ATOM     16  C   UNL     1       7.765   6.075  18.926  0.00  0.00    +0.000 C 
ATOM     17  C   UNL     1       7.581   7.212  17.899  0.00  0.00    +0.000 C 
ATOM     18  O   UNL     1       7.728   6.743  16.552  0.00  0.00    +0.000 OA
ATOM     19  C   UNL     1       6.833   5.654  16.285  0.00  0.00    +0.000 C 
ATOM     20  C   UNL     1       7.067   4.504  17.279  0.00  0.00    +0.000 C 
ENDBRANCH  14  15
ENDBRANCH  13  14
ENDBRANCH   3  13
BRANCH   3  21
ATOM     21  C   UNL     1       2.013   4.835  17.978  0.00  0.00    +0.000 C 
BRANCH  21  22
ATOM     22  C   UNL     1       1.785   4.093  19.251  0.00  0.00    +0.000 A 
ATOM     23  C   UNL     1       1.232   4.410  20.478  0.00  0.00    +0.000 A 
ATOM     24  C   UNL     1       1.361   3.258  21.290  0.00  0.00    +0.000 A 
ATOM     25  C   UNL     1       1.978   2.311  20.509  0.00  0.00    +0.000 A 
ATOM     26  O   UNL     1       2.241   2.805  19.275  0.00  0.00    +0.000 OA
ENDBRANCH  21  22
ENDBRANCH   3  21
TORSDOF 8
ENDMDL
MODEL 6
REMARK VINA RESULT:      -6.6      0.816      1.331
REMARK  Name = 
REMARK  9 active torsions:
REMARK  status: ('A' for Active; 'I' for Inactive)
REMARK    1  A    between atoms: C_1  and  O_2
REMARK    2  A    between atoms: O_2  and  C_3
REMARK    3  A    between atoms: C_8  and  C_9
REMARK    4  A    between atoms: C_9  and  C_10
REMARK    5  A    between atoms: N_12  and  C_13
REMARK    6  A    between atoms: N_12  and  C_21
REMARK    7  A    between atoms: C_13  and  C_14
REMARK    8  A    between atoms: C_14  and  N_15
REMARK    9  A    between atoms: C_21  and  C_22
REMARK                            x       y       z     vdW  Elec       q    Type
REMARK                         _______ _______ _______ _____ _____    ______ ____
ROOT
ATOM      1  C   UNL     1       2.744   7.690  18.142  0.00  0.00    +0.000 C 
ATOM      2  O   UNL     1       3.785   8.305  17.894  0.00  0.00    +0.000 OA
ATOM      3  N   UNL     1       2.757   6.306  18.399  0.00  0.00    +0.000 N 
ENDROOT
BRANCH   1   4
ATOM      4  C   UNL     1       1.375   8.377  18.218  0.00  0.00    +0.000 C 
BRANCH   4  10
ATOM      5  C   UNL     1       0.105  10.125  19.584  0.00  0.00    +0.000 A 
ATOM      6  C   UNL     1      -0.293  10.647  20.821  0.00  0.00    +0.000 A 
ATOM      7  C   UNL     1       0.115  10.046  22.010  0.00  0.00    +0.000 A 
ATOM      8  C   UNL     1       0.936   8.923  21.972  0.00  0.00    +0.000 A 
ATOM      9  C   UNL     1       1.367   8.414  20.747  0.00  0.00    +0.000 A 
ATOM     10  C   UNL     1       0.974   9.013  19.537  0.00  0.00    +0.000 A 
BRANCH   5  12
ATOM     11  C   UNL     1      -1.697  10.943  18.269  0.00  0.00    +0.000 C 
ATOM     12  O   UNL     1      -0.309  10.643  18.383  0.00  0.00    +0.000 OA
ENDBRANCH   5  12
ENDBRANCH   4  10
ENDBRANCH   1   4
BRANCH   3  13
ATOM     13  C   UNL     1       4.029   5.567  18.283  0.00  0.00    +0.000 C 
BRANCH  13  14
ATOM     14  C   UNL     1       4.363   5.069  16.855  0.00  0.00    +0.000 C 
BRANCH  14  15
ATOM     15  N   UNL     1       5.331   5.918  16.116  0.00  0.00    +0.000 NA
ATOM     16  C   UNL     1       5.838   5.207  14.914  0.00  0.00    +0.000 C 
ATOM     17  C   UNL     1       6.800   4.043  15.232  0.00  0.00    +0.000 C 
ATOM     18  O   UNL     1       7.897   4.466  16.052  0.00  0.00    +0.000 OA
ATOM     19  C   UNL     1       7.429   5.094  17.254  0.00  0.00    +0.000 C 
ATOM     20  C   UNL     1       6.519   6.288  16.923  0.00  0.00    +0.000 C 
ENDBRANCH  14  15
ENDBRANCH  13  14
ENDBRANCH   3  13
BRANCH   3  21
ATOM     21  C   UNL     1       1.540   5.490  18.339  0.00  0.00    +0.000 C 
BRANCH  21  22
ATOM     22  C   UNL     1       1.527   4.447  19.404  0.00  0.00    +0.000 A 
ATOM     23  C   UNL     1       1.471   4.467  20.786  0.00  0.00    +0.000 A 
ATOM     24  C   UNL     1       1.542   3.119  21.213  0.00  0.00    +0.000 A 
ATOM     25  C   UNL     1       1.631   2.363  20.068  0.00  0.00    +0.000 A 
ATOM     26  O   UNL     1       1.625   3.156  18.970  0.00  0.00    +0.000 OA
ENDBRANCH  21  22
ENDBRANCH   3  21
TORSDOF 8
ENDMDL
MODEL 7
REMARK VINA RESULT:      -6.5      1.614      2.609
REMARK  Name = 
REMARK  9 active torsions:
REMARK  status: ('A' for Active; 'I' for Inactive)
REMARK    1  A    between atoms: C_1  and  O_2
REMARK    2  A    between atoms: O_2  and  C_3
REMARK    3  A    between atoms: C_8  and  C_9
REMARK    4  A    between atoms: C_9  and  C_10
REMARK    5  A    between atoms: N_12  and  C_13
REMARK    6  A    between atoms: N_12  and  C_21
REMARK    7  A    between atoms: C_13  and  C_14
REMARK    8  A    between atoms: C_14  and  N_15
REMARK    9  A    between atoms: C_21  and  C_22
REMARK                            x       y       z     vdW  Elec       q    Type
REMARK                         _______ _______ _______ _____ _____    ______ ____
ROOT
ATOM      1  C   UNL     1       2.132   8.153  19.094  0.00  0.00    +0.000 C 
ATOM      2  O   UNL     1       2.562   8.480  17.984  0.00  0.00    +0.000 OA
ATOM      3  N   UNL     1       2.308   6.848  19.589  0.00  0.00    +0.000 N 
ENDROOT
BRANCH   1   4
ATOM      4  C   UNL     1       1.405   9.135  20.021  0.00  0.00    +0.000 C 
BRANCH   4  10
ATOM      5  C   UNL     1      -0.447  10.887  20.200  0.00  0.00    +0.000 A 
ATOM      6  C   UNL     1      -1.534  11.571  19.639  0.00  0.00    +0.000 A 
ATOM      7  C   UNL     1      -1.963  11.280  18.345  0.00  0.00    +0.000 A 
ATOM      8  C   UNL     1      -1.318  10.293  17.607  0.00  0.00    +0.000 A 
ATOM      9  C   UNL     1      -0.257   9.582  18.168  0.00  0.00    +0.000 A 
ATOM     10  C   UNL     1       0.185   9.854  19.475  0.00  0.00    +0.000 A 
BRANCH   5  12
ATOM     11  C   UNL     1      -0.763  10.789  22.552  0.00  0.00    +0.000 C 
ATOM     12  O   UNL     1       0.052  11.168  21.447  0.00  0.00    +0.000 OA
ENDBRANCH   5  12
ENDBRANCH   4  10
ENDBRANCH   1   4
BRANCH   3  13
ATOM     13  C   UNL     1       2.944   5.833  18.727  0.00  0.00    +0.000 C 
BRANCH  13  14
ATOM     14  C   UNL     1       4.464   5.645  18.960  0.00  0.00    +0.000 C 
BRANCH  14  15
ATOM     15  N   UNL     1       5.137   4.773  17.966  0.00  0.00    +0.000 NA
ATOM     16  C   UNL     1       6.614   4.898  18.076  0.00  0.00    +0.000 C 
ATOM     17  C   UNL     1       7.170   6.244  17.564  0.00  0.00    +0.000 C 
ATOM     18  O   UNL     1       6.751   6.517  16.220  0.00  0.00    +0.000 OA
ATOM     19  C   UNL     1       5.322   6.470  16.106  0.00  0.00    +0.000 C 
ATOM     20  C   UNL     1       4.786   5.104  16.564  0.00  0.00    +0.000 C 
ENDBRANCH  14  15
ENDBRANCH  13  14
ENDBRANCH   3  13
BRANCH   3  21
ATOM     21  C   UNL     1       1.519   6.326  20.710  0.00  0.00    +0.000 C 
BRANCH  21  22
ATOM     22  C   UNL     1       1.544   4.836  20.750  0.00  0.00    +0.000 A 
ATOM     23  C   UNL     1       0.837   3.833  20.112  0.00  0.00    +0.000 A 
ATOM     24  C   UNL     1       1.314   2.607  20.635  0.00  0.00    +0.000 A 
ATOM     25  C   UNL     1       2.282   2.937  21.553  0.00  0.00    +0.000 A 
ATOM     26  O   UNL     1       2.427   4.282  21.633  0.00  0.00    +0.000 OA
ENDBRANCH  21  22
ENDBRANCH   3  21
TORSDOF 8
ENDMDL
MODEL 8
REMARK VINA RESULT:      -6.5      1.083      1.128
REMARK  Name = 
REMARK  9 active torsions:
REMARK  status: ('A' for Active; 'I' for Inactive)
REMARK    1  A    between atoms: C_1  and  O_2
REMARK    2  A    between atoms: O_2  and  C_3
REMARK    3  A    between atoms: C_8  and  C_9
REMARK    4  A    between atoms: C_9  and  C_10
REMARK    5  A    between atoms: N_12  and  C_13
REMARK    6  A    between atoms: N_12  and  C_21
REMARK    7  A    between atoms: C_13  and  C_14
REMARK    8  A    between atoms: C_14  and  N_15
REMARK    9  A    between atoms: C_21  and  C_22
REMARK                            x       y       z     vdW  Elec       q    Type
REMARK                         _______ _______ _______ _____ _____    ______ ____
ROOT
ATOM      1  C   UNL     1       2.598   8.211  18.065  0.00  0.00    +0.000 C 
ATOM      2  O   UNL     1       3.458   9.052  17.788  0.00  0.00    +0.000 OA
ATOM      3  N   UNL     1       2.934   6.856  18.244  0.00  0.00    +0.000 N 
ENDROOT
BRANCH   1   4
ATOM      4  C   UNL     1       1.121   8.572  18.263  0.00  0.00    +0.000 C 
BRANCH   4  10
ATOM      5  C   UNL     1      -0.182  10.303  19.618  0.00  0.00    +0.000 A 
ATOM      6  C   UNL     1      -0.579  10.834  20.853  0.00  0.00    +0.000 A 
ATOM      7  C   UNL     1      -0.137  10.263  22.045  0.00  0.00    +0.000 A 
ATOM      8  C   UNL     1       0.715   9.164  22.013  0.00  0.00    +0.000 A 
ATOM      9  C   UNL     1       1.145   8.650  20.790  0.00  0.00    +0.000 A 
ATOM     10  C   UNL     1       0.719   9.217  19.576  0.00  0.00    +0.000 A 
BRANCH   5  12
ATOM     11  C   UNL     1      -1.990  10.529  18.093  0.00  0.00    +0.000 C 
ATOM     12  O   UNL     1      -0.627  10.790  18.415  0.00  0.00    +0.000 OA
ENDBRANCH   5  12
ENDBRANCH   4  10
ENDBRANCH   1   4
BRANCH   3  13
ATOM     13  C   UNL     1       4.326   6.424  18.010  0.00  0.00    +0.000 C 
BRANCH  13  14
ATOM     14  C   UNL     1       4.563   5.704  16.660  0.00  0.00    +0.000 C 
BRANCH  14  15
ATOM     15  N   UNL     1       5.070   4.314  16.783  0.00  0.00    +0.000 NA
ATOM     16  C   UNL     1       6.028   4.205  17.913  0.00  0.00    +0.000 C 
ATOM     17  C   UNL     1       7.387   4.887  17.653  0.00  0.00    +0.000 C 
ATOM     18  O   UNL     1       7.997   4.416  16.443  0.00  0.00    +0.000 OA
ATOM     19  C   UNL     1       7.114   4.577  15.325  0.00  0.00    +0.000 C 
ATOM     20  C   UNL     1       5.786   3.844  15.573  0.00  0.00    +0.000 C 
ENDBRANCH  14  15
ENDBRANCH  13  14
ENDBRANCH   3  13
BRANCH   3  21
ATOM     21  C   UNL     1       1.925   5.792  18.213  0.00  0.00    +0.000 C 
BRANCH  21  22
ATOM     22  C   UNL     1       2.043   4.891  19.395  0.00  0.00    +0.000 A 
ATOM     23  C   UNL     1       1.873   5.047  20.759  0.00  0.00    +0.000 A 
ATOM     24  C   UNL     1       2.188   3.800  21.351  0.00  0.00    +0.000 A 
ATOM     25  C   UNL     1       2.525   2.963  20.314  0.00  0.00    +0.000 A 
ATOM     26  O   UNL     1       2.443   3.613  19.128  0.00  0.00    +0.000 OA
ENDBRANCH  21  22
ENDBRANCH   3  21
TORSDOF 8
ENDMDL
MODEL 9
REMARK VINA RESULT:      -6.4      1.783      2.672
REMARK  Name = 
REMARK  9 active torsions:
REMARK  status: ('A' for Active; 'I' for Inactive)
REMARK    1  A    between atoms: C_1  and  O_2
REMARK    2  A    between atoms: O_2  and  C_3
REMARK    3  A    between atoms: C_8  and  C_9
REMARK    4  A    between atoms: C_9  and  C_10
REMARK    5  A    between atoms: N_12  and  C_13
REMARK    6  A    between atoms: N_12  and  C_21
REMARK    7  A    between atoms: C_13  and  C_14
REMARK    8  A    between atoms: C_14  and  N_15
REMARK    9  A    between atoms: C_21  and  C_22
REMARK                            x       y       z     vdW  Elec       q    Type
REMARK                         _______ _______ _______ _____ _____    ______ ____
ROOT
ATOM      1  C   UNL     1       1.758   8.460  18.710  0.00  0.00    +0.000 C 
ATOM      2  O   UNL     1       1.891   8.712  17.509  0.00  0.00    +0.000 OA
ATOM      3  N   UNL     1       2.266   7.271  19.267  0.00  0.00    +0.000 N 
ENDROOT
BRANCH   1   4
ATOM      4  C   UNL     1       1.063   9.418  19.684  0.00  0.00    +0.000 C 
BRANCH   4  10
ATOM      5  C   UNL     1      -0.683  10.940  18.603  0.00  0.00    +0.000 A 
ATOM      6  C   UNL     1      -1.092  12.210  18.176  0.00  0.00    +0.000 A 
ATOM      7  C   UNL     1      -0.260  13.316  18.339  0.00  0.00    +0.000 A 
ATOM      8  C   UNL     1       0.995  13.159  18.919  0.00  0.00    +0.000 A 
ATOM      9  C   UNL     1       1.427  11.893  19.315  0.00  0.00    +0.000 A 
ATOM     10  C   UNL     1       0.606  10.764  19.150  0.00  0.00    +0.000 A 
BRANCH   5  12
ATOM     11  C   UNL     1      -2.684   9.971  17.768  0.00  0.00    +0.000 C 
ATOM     12  O   UNL     1      -1.481   9.827  18.516  0.00  0.00    +0.000 OA
ENDBRANCH   5  12
ENDBRANCH   4  10
ENDBRANCH   1   4
BRANCH   3  13
ATOM     13  C   UNL     1       2.893   6.274  18.378  0.00  0.00    +0.000 C 
BRANCH  13  14
ATOM     14  C   UNL     1       4.442   6.298  18.368  0.00  0.00    +0.000 C 
BRANCH  14  15
ATOM     15  N   UNL     1       5.082   5.011  18.736  0.00  0.00    +0.000 NA
ATOM     16  C   UNL     1       6.559   5.104  18.604  0.00  0.00    +0.000 C 
ATOM     17  C   UNL     1       7.056   5.159  17.144  0.00  0.00    +0.000 C 
ATOM     18  O   UNL     1       6.561   4.057  16.370  0.00  0.00    +0.000 OA
ATOM     19  C   UNL     1       5.129   3.990  16.428  0.00  0.00    +0.000 C 
ATOM     20  C   UNL     1       4.650   3.877  17.884  0.00  0.00    +0.000 C 
ENDBRANCH  14  15
ENDBRANCH  13  14
ENDBRANCH   3  13
BRANCH   3  21
ATOM     21  C   UNL     1       1.826   6.772  20.573  0.00  0.00    +0.000 C 
BRANCH  21  22
ATOM     22  C   UNL     1       1.695   5.287  20.576  0.00  0.00    +0.000 A 
ATOM     23  C   UNL     1       0.808   4.386  20.014  0.00  0.00    +0.000 A 
ATOM     24  C   UNL     1       1.213   3.099  20.441  0.00  0.00    +0.000 A 
ATOM     25  C   UNL     1       2.322   3.293  21.230  0.00  0.00    +0.000 A 
ATOM     26  O   UNL     1       2.620   4.612  21.321  0.00  0.00    +0.000 OA
ENDBRANCH  21  22
ENDBRANCH   3  21
TORSDOF 8
ENDMDL
