MODEL 1
REMARK VINA RESULT:      -7.4      0.000      0.000
REMARK  Name = 
REMARK  8 active torsions:
REMARK  status: ('A' for Active; 'I' for Inactive)
REMARK    1  A    between atoms: C_1  and  O_2
REMARK    2  A    between atoms: O_2  and  C_3
REMARK    3  A    between atoms: C_6  and  C_7
REMARK    4  A    between atoms: C_7  and  C_8
REMARK    5  A    between atoms: C_8  and  N_9
REMARK    6  A    between atoms: C_14  and  O_15
REMARK    7  A    between atoms: C_16  and  O_17
REMARK    8  A    between atoms: O_17  and  C_18
REMARK                            x       y       z     vdW  Elec       q    Type
REMARK                         _______ _______ _______ _____ _____    ______ ____
ROOT
ATOM      1  N   UNL     1       7.582   5.964  18.273  0.00  0.00    +0.000 NA
ATOM      2  C   UNL     1       6.935   6.086  16.955  0.00  0.00    +0.000 C 
ATOM      3  C   UNL     1       6.298   4.759  16.555  0.00  0.00    +0.000 C 
ATOM      4  C   UNL     1       5.118   4.597  17.470  0.00  0.00    +0.000 A 
ATOM      5  C   UNL     1       3.867   4.268  16.954  0.00  0.00    +0.000 A 
ATOM      6  C   UNL     1       2.755   4.375  17.781  0.00  0.00    +0.000 A 
ATOM      7  C   UNL     1       2.879   4.700  19.135  0.00  0.00    +0.000 A 
ATOM      8  C   UNL     1       4.152   4.966  19.663  0.00  0.00    +0.000 A 
ATOM      9  C   UNL     1       5.286   4.959  18.823  0.00  0.00    +0.000 A 
ATOM     10  C   UNL     1       6.677   5.393  19.310  0.00  0.00    +0.000 C 
ENDROOT
BRANCH   6  11
ATOM     11  O   UNL     1       1.506   4.179  17.242  0.00  0.00    +0.000 OA
ATOM     12  H   UNL     1       1.547   4.357  16.290  0.00  0.00    +0.000 HD
ENDBRANCH   6  11
BRANCH   7  13
ATOM     13  O   UNL     1       1.691   4.845  19.794  0.00  0.00    +0.000 OA
ATOM     14  C   UNL     1       1.282   3.841  20.706  0.00  0.00    +0.000 C 
ENDBRANCH   7  13
BRANCH   1  15
ATOM     15  C   UNL     1       8.199   7.265  18.614  0.00  0.00    +0.000 C 
BRANCH  15  16
ATOM     16  C   UNL     1       7.847   8.447  17.690  0.00  0.00    +0.000 C 
BRANCH  16  20
ATOM     17  C   UNL     1       9.586  12.198  19.069  0.00  0.00    +0.000 A 
ATOM     18  C   UNL     1       8.803  12.151  17.914  0.00  0.00    +0.000 A 
ATOM     19  C   UNL     1       8.239  10.948  17.473  0.00  0.00    +0.000 A 
ATOM     20  C   UNL     1       8.456   9.756  18.174  0.00  0.00    +0.000 A 
ATOM     21  C   UNL     1       9.244   9.808  19.334  0.00  0.00    +0.000 A 
ATOM     22  C   UNL     1       9.811  11.014  19.780  0.00  0.00    +0.000 A 
BRANCH  17  24
ATOM     23  C   UNL     1      11.510  13.495  19.592  0.00  0.00    +0.000 C 
ATOM     24  O   UNL     1      10.099  13.426  19.372  0.00  0.00    +0.000 OA
ENDBRANCH  17  24
ENDBRANCH  16  20
ENDBRANCH  15  16
ENDBRANCH   1  15
TORSDOF 6
ENDMDL
MODEL 2
REMARK VINA RESULT:      -7.2      0.783      1.271
REMARK  Name = 
REMARK  8 active torsions:
REMARK  status: ('A' for Active; 'I' for Inactive)
REMARK    1  A    between atoms: C_1  and  O_2
REMARK    2  A    between atoms: O_2  and  C_3
REMARK    3  A    between atoms: C_6  and  C_7
REMARK    4  A    between atoms: C_7  and  C_8
REMARK    5  A    between atoms: C_8  and  N_9
REMARK    6  A    between atoms: C_14  and  O_15
REMARK    7  A    between atoms: C_16  and  O_17
REMARK    8  A    between atoms: O_17  and  C_18
REMARK                            x       y       z     vdW  Elec       q    Type
REMARK                         _______ _______ _______ _____ _____    ______ ____
ROOT
ATOM      1  N   UNL     1       7.864   6.181  18.008  0.00  0.00    +0.000 NA
ATOM      2  C   UNL     1       7.099   6.399  16.767  0.00  0.00    +0.000 C 
ATOM      3  C   UNL     1       6.720   5.062  16.138  0.00  0.00    +0.000 C 
ATOM      4  C   UNL     1       5.680   4.479  17.050  0.00  0.00    +0.000 A 
ATOM      5  C   UNL     1       4.485   3.985  16.531  0.00  0.00    +0.000 A 
ATOM      6  C   UNL     1       3.447   3.690  17.408  0.00  0.00    +0.000 A 
ATOM      7  C   UNL     1       3.613   3.778  18.793  0.00  0.00    +0.000 A 
ATOM      8  C   UNL     1       4.842   4.216  19.311  0.00  0.00    +0.000 A 
ATOM      9  C   UNL     1       5.879   4.613  18.441  0.00  0.00    +0.000 A 
ATOM     10  C   UNL     1       7.185   5.245  18.946  0.00  0.00    +0.000 C 
ENDROOT
BRANCH   6  11
ATOM     11  O   UNL     1       2.227   3.327  16.892  0.00  0.00    +0.000 OA
ATOM     12  H   UNL     1       1.537   3.565  17.529  0.00  0.00    +0.000 HD
ENDBRANCH   6  11
BRANCH   7  13
ATOM     13  O   UNL     1       2.480   3.535  19.516  0.00  0.00    +0.000 OA
ATOM     14  C   UNL     1       2.583   3.341  20.915  0.00  0.00    +0.000 C 
ENDBRANCH   7  13
BRANCH   1  15
ATOM     15  C   UNL     1       8.223   7.500  18.573  0.00  0.00    +0.000 C 
BRANCH  15  16
ATOM     16  C   UNL     1       7.914   8.726  17.691  0.00  0.00    +0.000 C 
BRANCH  16  20
ATOM     17  C   UNL     1       9.719  12.369  19.263  0.00  0.00    +0.000 A 
ATOM     18  C   UNL     1       9.861  11.151  19.930  0.00  0.00    +0.000 A 
ATOM     19  C   UNL     1       9.286   9.979  19.423  0.00  0.00    +0.000 A 
ATOM     20  C   UNL     1       8.543  10.000  18.238  0.00  0.00    +0.000 A 
ATOM     21  C   UNL     1       8.402  11.227  17.570  0.00  0.00    +0.000 A 
ATOM     22  C   UNL     1       8.978  12.405  18.076  0.00  0.00    +0.000 A 
BRANCH  17  24
ATOM     23  C   UNL     1      11.292  14.148  19.127  0.00  0.00    +0.000 C 
ATOM     24  O   UNL     1      10.303  13.439  19.877  0.00  0.00    +0.000 OA
ENDBRANCH  17  24
ENDBRANCH  16  20
ENDBRANCH  15  16
ENDBRANCH   1  15
TORSDOF 6
ENDMDL
MODEL 3
REMARK VINA RESULT:      -7.2      6.074      8.800
REMARK  Name = 
REMARK  8 active torsions:
REMARK  status: ('A' for Active; 'I' for Inactive)
REMARK    1  A    between atoms: C_1  and  O_2
REMARK    2  A    between atoms: O_2  and  C_3
REMARK    3  A    between atoms: C_6  and  C_7
REMARK    4  A    between atoms: C_7  and  C_8
REMARK    5  A    between atoms: C_8  and  N_9
REMARK    6  A    between atoms: C_14  and  O_15
REMARK    7  A    between atoms: C_16  and  O_17
REMARK    8  A    between atoms: O_17  and  C_18
REMARK                            x       y       z     vdW  Elec       q    Type
REMARK                         _______ _______ _______ _____ _____    ______ ____
ROOT
ATOM      1  N   UNL     1       1.590   9.027  19.422  0.00  0.00    +0.000 NA
ATOM      2  C   UNL     1       1.652   8.602  18.012  0.00  0.00    +0.000 C 
ATOM      3  C   UNL     1       2.959   7.864  17.740  0.00  0.00    +0.000 C 
ATOM      4  C   UNL     1       2.828   6.552  18.457  0.00  0.00    +0.000 A 
ATOM      5  C   UNL     1       3.118   5.358  17.801  0.00  0.00    +0.000 A 
ATOM      6  C   UNL     1       2.748   4.160  18.400  0.00  0.00    +0.000 A 
ATOM      7  C   UNL     1       2.190   4.124  19.681  0.00  0.00    +0.000 A 
ATOM      8  C   UNL     1       1.959   5.330  20.363  0.00  0.00    +0.000 A 
ATOM      9  C   UNL     1       2.238   6.564  19.739  0.00  0.00    +0.000 A 
ATOM     10  C   UNL     1       1.863   7.913  20.372  0.00  0.00    +0.000 C 
ENDROOT
BRANCH   6  11
ATOM     11  O   UNL     1       2.914   2.990  17.699  0.00  0.00    +0.000 OA
ATOM     12  H   UNL     1       2.712   2.245  18.285  0.00  0.00    +0.000 HD
ENDBRANCH   6  11
BRANCH   7  13
ATOM     13  O   UNL     1       1.806   2.881  20.097  0.00  0.00    +0.000 OA
ATOM     14  C   UNL     1       1.429   2.693  21.450  0.00  0.00    +0.000 C 
ENDBRANCH   7  13
BRANCH   1  15
ATOM     15  C   UNL     1       0.317   9.750  19.637  0.00  0.00    +0.000 C 
BRANCH  15  16
ATOM     16  C   UNL     1      -0.007  10.870  18.630  0.00  0.00    +0.000 C 
BRANCH  16  20
ATOM     17  C   UNL     1      -4.240  10.976  17.594  0.00  0.00    +0.000 A 
ATOM     18  C   UNL     1      -3.731  11.775  18.619  0.00  0.00    +0.000 A 
ATOM     19  C   UNL     1      -2.370  11.746  18.949  0.00  0.00    +0.000 A 
ATOM     20  C   UNL     1      -1.485  10.905  18.266  0.00  0.00    +0.000 A 
ATOM     21  C   UNL     1      -2.002  10.102  17.237  0.00  0.00    +0.000 A 
ATOM     22  C   UNL     1      -3.366  10.130  16.902  0.00  0.00    +0.000 A 
BRANCH  17  24
ATOM     23  C   UNL     1      -6.422  10.863  18.533  0.00  0.00    +0.000 C 
ATOM     24  O   UNL     1      -5.586  11.078  17.394  0.00  0.00    +0.000 OA
ENDBRANCH  17  24
ENDBRANCH  16  20
ENDBRANCH  15  16
ENDBRANCH   1  15
TORSDOF 6
ENDMDL
MODEL 4
REMARK VINA RESULT:      -7.1      6.127      8.878
REMARK  Name = 
REMARK  8 active torsions:
REMARK  status: ('A' for Active; 'I' for Inactive)
REMARK    1  A    between atoms: C_1  and  O_2
REMARK    2  A    between atoms: O_2  and  C_3
REMARK    3  A    between atoms: C_6  and  C_7
REMARK    4  A    between atoms: C_7  and  C_8
REMARK    5  A    between atoms: C_8  and  N_9
REMARK    6  A    between atoms: C_14  and  O_15
REMARK    7  A    between atoms: C_16  and  O_17
REMARK    8  A    between atoms: O_17  and  C_18
REMARK                            x       y       z     vdW  Elec       q    Type
REMARK                         _______ _______ _______ _____ _____    ______ ____
ROOT
ATOM      1  N   UNL     1       1.539   9.039  19.468  0.00  0.00    +0.000 NA
ATOM      2  C   UNL     1       1.604   8.618  18.057  0.00  0.00    +0.000 C 
ATOM      3  C   UNL     1       2.925   7.909  17.777  0.00  0.00    +0.000 C 
ATOM      4  C   UNL     1       2.825   6.593  18.493  0.00  0.00    +0.000 A 
ATOM      5  C   UNL     1       3.139   5.407  17.833  0.00  0.00    +0.000 A 
ATOM      6  C   UNL     1       2.796   4.200  18.430  0.00  0.00    +0.000 A 
ATOM      7  C   UNL     1       2.245   4.150  19.714  0.00  0.00    +0.000 A 
ATOM      8  C   UNL     1       1.992   5.349  20.399  0.00  0.00    +0.000 A 
ATOM      9  C   UNL     1       2.241   6.590  19.777  0.00  0.00    +0.000 A 
ATOM     10  C   UNL     1       1.839   7.929  20.415  0.00  0.00    +0.000 C 
ENDROOT
BRANCH   6  11
ATOM     11  O   UNL     1       2.985   3.035  17.727  0.00  0.00    +0.000 OA
ATOM     12  H   UNL     1       2.861   2.285  18.327  0.00  0.00    +0.000 HD
ENDBRANCH   6  11
BRANCH   7  13
ATOM     13  O   UNL     1       1.889   2.898  20.129  0.00  0.00    +0.000 OA
ATOM     14  C   UNL     1       1.457   2.712  21.465  0.00  0.00    +0.000 C 
ENDBRANCH   7  13
BRANCH   1  15
ATOM     15  C   UNL     1       0.252   9.734  19.690  0.00  0.00    +0.000 C 
BRANCH  15  16
ATOM     16  C   UNL     1      -0.105  10.843  18.681  0.00  0.00    +0.000 C 
BRANCH  16  20
ATOM     17  C   UNL     1      -4.395  11.072  17.944  0.00  0.00    +0.000 A 
ATOM     18  C   UNL     1      -3.604  10.122  17.296  0.00  0.00    +0.000 A 
ATOM     19  C   UNL     1      -2.227  10.044  17.536  0.00  0.00    +0.000 A 
ATOM     20  C   UNL     1      -1.604  10.926  18.425  0.00  0.00    +0.000 A 
ATOM     21  C   UNL     1      -2.403  11.880  19.075  0.00  0.00    +0.000 A 
ATOM     22  C   UNL     1      -3.785  11.961  18.837  0.00  0.00    +0.000 A 
BRANCH  17  24
ATOM     23  C   UNL     1      -6.646  10.735  18.635  0.00  0.00    +0.000 C 
ATOM     24  O   UNL     1      -5.716  11.061  17.599  0.00  0.00    +0.000 OA
ENDBRANCH  17  24
ENDBRANCH  16  20
ENDBRANCH  15  16
ENDBRANCH   1  15
TORSDOF 6
ENDMDL
MODEL 5
REMARK VINA RESULT:      -7.1      5.001      7.722
REMARK  Name = 
REMARK  8 active torsions:
REMARK  status: ('A' for Active; 'I' for Inactive)
REMARK    1  A    between atoms: C_1  and  O_2
REMARK    2  A    between atoms: O_2  and  C_3
REMARK    3  A    between atoms: C_6  and  C_7
REMARK    4  A    between atoms: C_7  and  C_8
REMARK    5  A    between atoms: C_8  and  N_9
REMARK    6  A    between atoms: C_14  and  O_15
REMARK    7  A    between atoms: C_16  and  O_17
REMARK    8  A    between atoms: O_17  and  C_18
REMARK                            x       y       z     vdW  Elec       q    Type
REMARK                         _______ _______ _______ _____ _____    ______ ____
ROOT
ATOM      1  N   UNL     1       1.967   5.781  19.619  0.00  0.00    +0.000 NA
ATOM      2  C   UNL     1       2.858   4.812  20.280  0.00  0.00    +0.000 C 
ATOM      3  C   UNL     1       3.405   3.816  19.261  0.00  0.00    +0.000 C 
ATOM      4  C   UNL     1       4.366   4.604  18.419  0.00  0.00    +0.000 A 
ATOM      5  C   UNL     1       5.647   4.116  18.170  0.00  0.00    +0.000 A 
ATOM      6  C   UNL     1       6.590   4.969  17.610  0.00  0.00    +0.000 A 
ATOM      7  C   UNL     1       6.253   6.262  17.199  0.00  0.00    +0.000 A 
ATOM      8  C   UNL     1       4.942   6.725  17.396  0.00  0.00    +0.000 A 
ATOM      9  C   UNL     1       3.992   5.912  18.048  0.00  0.00    +0.000 A 
ATOM     10  C   UNL     1       2.593   6.421  18.429  0.00  0.00    +0.000 C 
ENDROOT
BRANCH   6  11
ATOM     11  O   UNL     1       7.887   4.533  17.484  0.00  0.00    +0.000 OA
ATOM     12  H   UNL     1       8.363   5.139  16.896  0.00  0.00    +0.000 HD
ENDBRANCH   6  11
BRANCH   7  13
ATOM     13  O   UNL     1       7.306   7.004  16.744  0.00  0.00    +0.000 OA
ATOM     14  C   UNL     1       7.773   8.090  17.526  0.00  0.00    +0.000 C 
ENDBRANCH   7  13
BRANCH   1  15
ATOM     15  C   UNL     1       1.449   6.714  20.644  0.00  0.00    +0.000 C 
BRANCH  15  16
ATOM     16  C   UNL     1       1.797   8.203  20.448  0.00  0.00    +0.000 C 
BRANCH  16  20
ATOM     17  C   UNL     1      -0.994  10.829  22.524  0.00  0.00    +0.000 A 
ATOM     18  C   UNL     1      -0.254   9.872  23.220  0.00  0.00    +0.000 A 
ATOM     19  C   UNL     1       0.647   9.032  22.556  0.00  0.00    +0.000 A 
ATOM     20  C   UNL     1       0.821   9.121  21.170  0.00  0.00    +0.000 A 
ATOM     21  C   UNL     1       0.075  10.084  20.473  0.00  0.00    +0.000 A 
ATOM     22  C   UNL     1      -0.829  10.930  21.138  0.00  0.00    +0.000 A 
BRANCH  17  24
ATOM     23  C   UNL     1      -2.765  12.415  22.584  0.00  0.00    +0.000 C 
ATOM     24  O   UNL     1      -1.856  11.563  23.286  0.00  0.00    +0.000 OA
ENDBRANCH  17  24
ENDBRANCH  16  20
ENDBRANCH  15  16
ENDBRANCH   1  15
TORSDOF 6
ENDMDL
MODEL 6
REMARK VINA RESULT:      -7.0      5.098      6.761
REMARK  Name = 
REMARK  8 active torsions:
REMARK  status: ('A' for Active; 'I' for Inactive)
REMARK    1  A    between atoms: C_1  and  O_2
REMARK    2  A    between atoms: O_2  and  C_3
REMARK    3  A    between atoms: C_6  and  C_7
REMARK    4  A    between atoms: C_7  and  C_8
REMARK    5  A    between atoms: C_8  and  N_9
REMARK    6  A    between atoms: C_14  and  O_15
REMARK    7  A    between atoms: C_16  and  O_17
REMARK    8  A    between atoms: O_17  and  C_18
REMARK                            x       y       z     vdW  Elec       q    Type
REMARK                         _______ _______ _______ _____ _____    ______ ____
ROOT
ATOM      1  N   UNL     1       3.722   4.477  18.934  0.00  0.00    +0.000 NA
ATOM      2  C   UNL     1       4.754   5.525  19.024  0.00  0.00    +0.000 C 
ATOM      3  C   UNL     1       6.134   4.930  18.761  0.00  0.00    +0.000 C 
ATOM      4  C   UNL     1       6.148   4.601  17.296  0.00  0.00    +0.000 A 
ATOM      5  C   UNL     1       7.213   5.005  16.494  0.00  0.00    +0.000 A 
ATOM      6  C   UNL     1       7.081   4.912  15.113  0.00  0.00    +0.000 A 
ATOM      7  C   UNL     1       5.956   4.329  14.523  0.00  0.00    +0.000 A 
ATOM      8  C   UNL     1       4.914   3.866  15.343  0.00  0.00    +0.000 A 
ATOM      9  C   UNL     1       4.981   4.035  16.742  0.00  0.00    +0.000 A 
ATOM     10  C   UNL     1       3.808   3.690  17.672  0.00  0.00    +0.000 C 
ENDROOT
BRANCH   6  11
ATOM     11  O   UNL     1       8.074   5.429  14.316  0.00  0.00    +0.000 OA
ATOM     12  H   UNL     1       8.559   4.697  13.908  0.00  0.00    +0.000 HD
ENDBRANCH   6  11
BRANCH   7  13
ATOM     13  O   UNL     1       5.938   4.386  13.159  0.00  0.00    +0.000 OA
ATOM     14  C   UNL     1       5.891   3.178  12.420  0.00  0.00    +0.000 C 
ENDBRANCH   7  13
BRANCH   1  15
ATOM     15  C   UNL     1       2.405   5.093  19.210  0.00  0.00    +0.000 C 
BRANCH  15  16
ATOM     16  C   UNL     1       2.364   6.125  20.355  0.00  0.00    +0.000 C 
BRANCH  16  20
ATOM     17  C   UNL     1       1.049  10.051  18.995  0.00  0.00    +0.000 A 
ATOM     18  C   UNL     1       0.832   9.637  20.309  0.00  0.00    +0.000 A 
ATOM     19  C   UNL     1       1.258   8.378  20.749  0.00  0.00    +0.000 A 
ATOM     20  C   UNL     1       1.905   7.495  19.877  0.00  0.00    +0.000 A 
ATOM     21  C   UNL     1       2.121   7.916  18.555  0.00  0.00    +0.000 A 
ATOM     22  C   UNL     1       1.695   9.179  18.111  0.00  0.00    +0.000 A 
BRANCH  17  24
ATOM     23  C   UNL     1       0.198  12.126  19.789  0.00  0.00    +0.000 C 
ATOM     24  O   UNL     1       0.558  11.288  18.688  0.00  0.00    +0.000 OA
ENDBRANCH  17  24
ENDBRANCH  16  20
ENDBRANCH  15  16
ENDBRANCH   1  15
TORSDOF 6
ENDMDL
MODEL 7
REMARK VINA RESULT:      -7.0      4.383      7.196
REMARK  Name = 
REMARK  8 active torsions:
REMARK  status: ('A' for Active; 'I' for Inactive)
REMARK    1  A    between atoms: C_1  and  O_2
REMARK    2  A    between atoms: O_2  and  C_3
REMARK    3  A    between atoms: C_6  and  C_7
REMARK    4  A    between atoms: C_7  and  C_8
REMARK    5  A    between atoms: C_8  and  N_9
REMARK    6  A    between atoms: C_14  and  O_15
REMARK    7  A    between atoms: C_16  and  O_17
REMARK    8  A    between atoms: O_17  and  C_18
REMARK                            x       y       z     vdW  Elec       q    Type
REMARK                         _______ _______ _______ _____ _____    ______ ____
ROOT
ATOM      1  N   UNL     1       2.071   5.184  18.771  0.00  0.00    +0.000 NA
ATOM      2  C   UNL     1       2.873   3.965  18.981  0.00  0.00    +0.000 C 
ATOM      3  C   UNL     1       3.374   3.426  17.644  0.00  0.00    +0.000 C 
ATOM      4  C   UNL     1       4.411   4.410  17.187  0.00  0.00    +0.000 A 
ATOM      5  C   UNL     1       5.660   3.967  16.756  0.00  0.00    +0.000 A 
ATOM      6  C   UNL     1       6.676   4.900  16.583  0.00  0.00    +0.000 A 
ATOM      7  C   UNL     1       6.444   6.270  16.731  0.00  0.00    +0.000 A 
ATOM      8  C   UNL     1       5.165   6.713  17.103  0.00  0.00    +0.000 A 
ATOM      9  C   UNL     1       4.142   5.782  17.377  0.00  0.00    +0.000 A 
ATOM     10  C   UNL     1       2.773   6.199  17.937  0.00  0.00    +0.000 C 
ENDROOT
BRANCH   6  11
ATOM     11  O   UNL     1       7.941   4.454  16.285  0.00  0.00    +0.000 OA
ATOM     12  H   UNL     1       8.467   5.201  15.964  0.00  0.00    +0.000 HD
ENDBRANCH   6  11
BRANCH   7  13
ATOM     13  O   UNL     1       7.558   7.050  16.609  0.00  0.00    +0.000 OA
ATOM     14  C   UNL     1       7.825   8.031  17.596  0.00  0.00    +0.000 C 
ENDBRANCH   7  13
BRANCH   1  15
ATOM     15  C   UNL     1       1.595   5.662  20.088  0.00  0.00    +0.000 C 
BRANCH  15  16
ATOM     16  C   UNL     1       2.272   6.933  20.636  0.00  0.00    +0.000 C 
BRANCH  16  20
ATOM     17  C   UNL     1      -0.313  10.430  20.347  0.00  0.00    +0.000 A 
ATOM     18  C   UNL     1       0.588  10.116  19.328  0.00  0.00    +0.000 A 
ATOM     19  C   UNL     1       1.415   8.990  19.417  0.00  0.00    +0.000 A 
ATOM     20  C   UNL     1       1.368   8.154  20.538  0.00  0.00    +0.000 A 
ATOM     21  C   UNL     1       0.461   8.473  21.561  0.00  0.00    +0.000 A 
ATOM     22  C   UNL     1      -0.372   9.602  21.474  0.00  0.00    +0.000 A 
BRANCH  17  24
ATOM     23  C   UNL     1      -2.004  11.539  19.093  0.00  0.00    +0.000 C 
ATOM     24  O   UNL     1      -1.040  11.569  20.149  0.00  0.00    +0.000 OA
ENDBRANCH  17  24
ENDBRANCH  16  20
ENDBRANCH  15  16
ENDBRANCH   1  15
TORSDOF 6
ENDMDL
MODEL 8
REMARK VINA RESULT:      -7.0      5.060      6.678
REMARK  Name = 
REMARK  8 active torsions:
REMARK  status: ('A' for Active; 'I' for Inactive)
REMARK    1  A    between atoms: C_1  and  O_2
REMARK    2  A    between atoms: O_2  and  C_3
REMARK    3  A    between atoms: C_6  and  C_7
REMARK    4  A    between atoms: C_7  and  C_8
REMARK    5  A    between atoms: C_8  and  N_9
REMARK    6  A    between atoms: C_14  and  O_15
REMARK    7  A    between atoms: C_16  and  O_17
REMARK    8  A    between atoms: O_17  and  C_18
REMARK                            x       y       z     vdW  Elec       q    Type
REMARK                         _______ _______ _______ _____ _____    ______ ____
ROOT
ATOM      1  N   UNL     1       4.019   4.438  18.563  0.00  0.00    +0.000 NA
ATOM      2  C   UNL     1       4.974   5.560  18.578  0.00  0.00    +0.000 C 
ATOM      3  C   UNL     1       6.389   5.053  18.318  0.00  0.00    +0.000 C 
ATOM      4  C   UNL     1       6.403   4.649  16.872  0.00  0.00    +0.000 A 
ATOM      5  C   UNL     1       7.421   5.086  16.028  0.00  0.00    +0.000 A 
ATOM      6  C   UNL     1       7.273   4.912  14.657  0.00  0.00    +0.000 A 
ATOM      7  C   UNL     1       6.183   4.221  14.121  0.00  0.00    +0.000 A 
ATOM      8  C   UNL     1       5.192   3.727  14.984  0.00  0.00    +0.000 A 
ATOM      9  C   UNL     1       5.270   3.973  16.371  0.00  0.00    +0.000 A 
ATOM     10  C   UNL     1       4.141   3.594  17.342  0.00  0.00    +0.000 C 
ENDROOT
BRANCH   6  11
ATOM     11  O   UNL     1       8.212   5.457  13.814  0.00  0.00    +0.000 OA
ATOM     12  H   UNL     1       7.946   6.363  13.596  0.00  0.00    +0.000 HD
ENDBRANCH   6  11
BRANCH   7  13
ATOM     13  O   UNL     1       6.138   4.204  12.756  0.00  0.00    +0.000 OA
ATOM     14  C   UNL     1       5.661   3.045  12.096  0.00  0.00    +0.000 C 
ENDBRANCH   7  13
BRANCH   1  15
ATOM     15  C   UNL     1       2.666   4.971  18.835  0.00  0.00    +0.000 C 
BRANCH  15  16
ATOM     16  C   UNL     1       2.529   5.878  20.074  0.00  0.00    +0.000 C 
BRANCH  16  20
ATOM     17  C   UNL     1       1.129   9.871  19.032  0.00  0.00    +0.000 A 
ATOM     18  C   UNL     1       1.755   9.060  18.085  0.00  0.00    +0.000 A 
ATOM     19  C   UNL     1       2.201   7.775  18.417  0.00  0.00    +0.000 A 
ATOM     20  C   UNL     1       2.039   7.273  19.713  0.00  0.00    +0.000 A 
ATOM     21  C   UNL     1       1.409   8.093  20.663  0.00  0.00    +0.000 A 
ATOM     22  C   UNL     1       0.960   9.383  20.332  0.00  0.00    +0.000 A 
BRANCH  17  24
ATOM     23  C   UNL     1       1.582  12.206  19.016  0.00  0.00    +0.000 C 
ATOM     24  O   UNL     1       0.769  11.111  18.587  0.00  0.00    +0.000 OA
ENDBRANCH  17  24
ENDBRANCH  16  20
ENDBRANCH  15  16
ENDBRANCH   1  15
TORSDOF 6
ENDMDL
MODEL 9
REMARK VINA RESULT:      -6.9      4.838      6.995
REMARK  Name = 
REMARK  8 active torsions:
REMARK  status: ('A' for Active; 'I' for Inactive)
REMARK    1  A    between atoms: C_1  and  O_2
REMARK    2  A    between atoms: O_2  and  C_3
REMARK    3  A    between atoms: C_6  and  C_7
REMARK    4  A    between atoms: C_7  and  C_8
REMARK    5  A    between atoms: C_8  and  N_9
REMARK    6  A    between atoms: C_14  and  O_15
REMARK    7  A    between atoms: C_16  and  O_17
REMARK    8  A    between atoms: O_17  and  C_18
REMARK                            x       y       z     vdW  Elec       q    Type
REMARK                         _______ _______ _______ _____ _____    ______ ____
ROOT
ATOM      1  N   UNL     1       4.372   4.989  18.074  0.00  0.00    +0.000 NA
ATOM      2  C   UNL     1       5.134   6.206  17.742  0.00  0.00    +0.000 C 
ATOM      3  C   UNL     1       6.596   5.857  17.476  0.00  0.00    +0.000 C 
ATOM      4  C   UNL     1       6.592   5.122  16.167  0.00  0.00    +0.000 A 
ATOM      5  C   UNL     1       7.479   5.482  15.155  0.00  0.00    +0.000 A 
ATOM      6  C   UNL     1       7.284   4.963  13.880  0.00  0.00    +0.000 A 
ATOM      7  C   UNL     1       6.291   4.015  13.621  0.00  0.00    +0.000 A 
ATOM      8  C   UNL     1       5.441   3.608  14.662  0.00  0.00    +0.000 A 
ATOM      9  C   UNL     1       5.556   4.191  15.942  0.00  0.00    +0.000 A 
ATOM     10  C   UNL     1       4.559   3.901  17.074  0.00  0.00    +0.000 C 
ENDROOT
BRANCH   6  11
ATOM     11  O   UNL     1       8.075   5.416  12.852  0.00  0.00    +0.000 OA
ATOM     12  H   UNL     1       7.536   5.482  12.050  0.00  0.00    +0.000 HD
ENDBRANCH   6  11
BRANCH   7  13
ATOM     13  O   UNL     1       6.172   3.663  12.306  0.00  0.00    +0.000 OA
ATOM     14  C   UNL     1       4.924   3.194  11.828  0.00  0.00    +0.000 C 
ENDBRANCH   7  13
BRANCH   1  15
ATOM     15  C   UNL     1       2.968   5.375  18.340  0.00  0.00    +0.000 C 
BRANCH  15  16
ATOM     16  C   UNL     1       2.708   6.125  19.661  0.00  0.00    +0.000 C 
BRANCH  16  20
ATOM     17  C   UNL     1       0.941  10.056  19.008  0.00  0.00    +0.000 A 
ATOM     18  C   UNL     1       0.921   9.460  20.270  0.00  0.00    +0.000 A 
ATOM     19  C   UNL     1       1.492   8.199  20.482  0.00  0.00    +0.000 A 
ATOM     20  C   UNL     1       2.091   7.498  19.430  0.00  0.00    +0.000 A 
ATOM     21  C   UNL     1       2.109   8.101  18.162  0.00  0.00    +0.000 A 
ATOM     22  C   UNL     1       1.537   9.366  17.946  0.00  0.00    +0.000 A 
BRANCH  17  24
ATOM     23  C   UNL     1      -1.097  11.280  19.087  0.00  0.00    +0.000 C 
ATOM     24  O   UNL     1       0.324  11.271  18.931  0.00  0.00    +0.000 OA
ENDBRANCH  17  24
ENDBRANCH  16  20
ENDBRANCH  15  16
ENDBRANCH   1  15
TORSDOF 6
ENDMDL
