MODEL 1
REMARK VINA RESULT:      -8.2      0.000      0.000
REMARK  Name = 
REMARK  4 active torsions:
REMARK  status: ('A' for Active; 'I' for Inactive)
REMARK    1  A    between atoms: C_2  and  C_3
REMARK    2  A    between atoms: C_2  and  C_16
REMARK    3  A    between atoms: C_4  and  C_5
REMARK    4  A    between atoms: C_6  and  O_7
REMARK                            x       y       z     vdW  Elec       q    Type
REMARK                         _______ _______ _______ _____ _____    ______ ____
ROOT
ATOM      1  C   UNL     1       3.250   5.716  18.156  0.00  0.00    +0.000 A 
ATOM      2  C   UNL     1       4.146   5.393  17.121  0.00  0.00    +0.000 A 
ATOM      3  C   UNL     1       4.420   4.071  16.797  0.00  0.00    +0.000 A 
ATOM      4  C   UNL     1       3.816   3.041  17.514  0.00  0.00    +0.000 A 
ATOM      5  C   UNL     1       2.926   3.322  18.560  0.00  0.00    +0.000 A 
ATOM      6  C   UNL     1       2.336   2.267  19.278  0.00  0.00    +0.000 A 
ATOM      7  C   UNL     1       1.449   2.517  20.323  0.00  0.00    +0.000 A 
ATOM      8  C   UNL     1       1.137   3.826  20.663  0.00  0.00    +0.000 A 
ATOM      9  C   UNL     1       1.718   4.886  19.961  0.00  0.00    +0.000 A 
ATOM     10  C   UNL     1       2.624   4.670  18.894  0.00  0.00    +0.000 A 
ENDROOT
BRANCH   1  12
ATOM     11  C   UNL     1       1.940   7.798  17.944  0.00  0.00    +0.000 C 
ATOM     12  C   UNL     1       2.978   7.129  18.470  0.00  0.00    +0.000 C 
BRANCH  11  14
ATOM     13  O   UNL     1       2.175  10.135  17.692  0.00  0.00    +0.000 OA
ATOM     14  C   UNL     1       1.715   9.214  18.355  0.00  0.00    +0.000 C 
BRANCH  14  15
ATOM     15  C   UNL     1       0.960   9.462  19.619  0.00  0.00    +0.000 A 
ATOM     16  C   UNL     1       1.361   8.800  20.796  0.00  0.00    +0.000 A 
ATOM     17  C   UNL     1       0.725   9.058  22.014  0.00  0.00    +0.000 A 
ATOM     18  C   UNL     1      -0.304   9.990  22.079  0.00  0.00    +0.000 A 
ATOM     19  C   UNL     1      -0.708  10.658  20.924  0.00  0.00    +0.000 A 
ATOM     20  C   UNL     1      -0.085  10.397  19.694  0.00  0.00    +0.000 A 
ATOM     21 CL   UNL     1      -0.717  11.241  18.324  0.00  0.00    +0.000 Cl
ENDBRANCH  14  15
ENDBRANCH  11  14
ENDBRANCH   1  12
BRANCH   2  22
ATOM     22  O   UNL     1       4.808   6.338  16.383  0.00  0.00    +0.000 OA
ATOM     23  H   UNL     1       5.129   7.035  16.980  0.00  0.00    +0.000 HD
ENDBRANCH   2  22
TORSDOF 4
ENDMDL
MODEL 2
REMARK VINA RESULT:      -7.8      2.162      6.542
REMARK  Name = 
REMARK  4 active torsions:
REMARK  status: ('A' for Active; 'I' for Inactive)
REMARK    1  A    between atoms: C_2  and  C_3
REMARK    2  A    between atoms: C_2  and  C_16
REMARK    3  A    between atoms: C_4  and  C_5
REMARK    4  A    between atoms: C_6  and  O_7
REMARK                            x       y       z     vdW  Elec       q    Type
REMARK                         _______ _______ _______ _____ _____    ______ ____
ROOT
ATOM      1  C   UNL     1       1.160   9.387  19.797  0.00  0.00    +0.000 A 
ATOM      2  C   UNL     1       1.109  10.135  18.607  0.00  0.00    +0.000 A 
ATOM      3  C   UNL     1       0.351  11.295  18.521  0.00  0.00    +0.000 A 
ATOM      4  C   UNL     1      -0.386  11.725  19.621  0.00  0.00    +0.000 A 
ATOM      5  C   UNL     1      -0.371  11.002  20.822  0.00  0.00    +0.000 A 
ATOM      6  C   UNL     1      -1.133  11.447  21.916  0.00  0.00    +0.000 A 
ATOM      7  C   UNL     1      -1.137  10.747  23.120  0.00  0.00    +0.000 A 
ATOM      8  C   UNL     1      -0.378   9.593  23.248  0.00  0.00    +0.000 A 
ATOM      9  C   UNL     1       0.383   9.134  22.168  0.00  0.00    +0.000 A 
ATOM     10  C   UNL     1       0.410   9.819  20.930  0.00  0.00    +0.000 A 
ENDROOT
BRANCH   1  12
ATOM     11  C   UNL     1       2.036   7.287  18.840  0.00  0.00    +0.000 C 
ATOM     12  C   UNL     1       1.978   8.163  19.855  0.00  0.00    +0.000 C 
BRANCH  11  14
ATOM     13  O   UNL     1       4.064   6.120  18.510  0.00  0.00    +0.000 OA
ATOM     14  C   UNL     1       2.928   6.097  18.968  0.00  0.00    +0.000 C 
BRANCH  14  15
ATOM     15  C   UNL     1       2.373   4.876  19.623  0.00  0.00    +0.000 A 
ATOM     16  C   UNL     1       2.634   4.654  20.989  0.00  0.00    +0.000 A 
ATOM     17  C   UNL     1       2.075   3.559  21.656  0.00  0.00    +0.000 A 
ATOM     18  C   UNL     1       1.236   2.684  20.976  0.00  0.00    +0.000 A 
ATOM     19  C   UNL     1       0.964   2.894  19.625  0.00  0.00    +0.000 A 
ATOM     20  C   UNL     1       1.530   3.982  18.943  0.00  0.00    +0.000 A 
ATOM     21 CL   UNL     1       1.167   4.099  17.256  0.00  0.00    +0.000 Cl
ENDBRANCH  14  15
ENDBRANCH  11  14
ENDBRANCH   1  12
BRANCH   2  22
ATOM     22  O   UNL     1       1.778   9.774  17.468  0.00  0.00    +0.000 OA
ATOM     23  H   UNL     1       2.734   9.867  17.622  0.00  0.00    +0.000 HD
ENDBRANCH   2  22
TORSDOF 4
ENDMDL
MODEL 3
REMARK VINA RESULT:      -7.7      2.316      6.731
REMARK  Name = 
REMARK  4 active torsions:
REMARK  status: ('A' for Active; 'I' for Inactive)
REMARK    1  A    between atoms: C_2  and  C_3
REMARK    2  A    between atoms: C_2  and  C_16
REMARK    3  A    between atoms: C_4  and  C_5
REMARK    4  A    between atoms: C_6  and  O_7
REMARK                            x       y       z     vdW  Elec       q    Type
REMARK                         _______ _______ _______ _____ _____    ______ ____
ROOT
ATOM      1  C   UNL     1       1.319   8.854  19.825  0.00  0.00    +0.000 A 
ATOM      2  C   UNL     1       1.244   9.450  18.554  0.00  0.00    +0.000 A 
ATOM      3  C   UNL     1       0.501  10.605  18.347  0.00  0.00    +0.000 A 
ATOM      4  C   UNL     1      -0.196  11.181  19.406  0.00  0.00    +0.000 A 
ATOM      5  C   UNL     1      -0.155  10.611  20.686  0.00  0.00    +0.000 A 
ATOM      6  C   UNL     1      -0.876  11.202  21.738  0.00  0.00    +0.000 A 
ATOM      7  C   UNL     1      -0.854  10.655  23.019  0.00  0.00    +0.000 A 
ATOM      8  C   UNL     1      -0.109   9.511  23.267  0.00  0.00    +0.000 A 
ATOM      9  C   UNL     1       0.611   8.910  22.231  0.00  0.00    +0.000 A 
ATOM     10  C   UNL     1       0.611   9.436  20.916  0.00  0.00    +0.000 A 
ENDROOT
BRANCH   1  12
ATOM     11  C   UNL     1       1.561   6.426  20.202  0.00  0.00    +0.000 C 
ATOM     12  C   UNL     1       2.120   7.631  20.010  0.00  0.00    +0.000 C 
BRANCH  11  14
ATOM     13  O   UNL     1       2.402   4.531  21.336  0.00  0.00    +0.000 OA
ATOM     14  C   UNL     1       2.450   5.235  20.334  0.00  0.00    +0.000 C 
BRANCH  14  15
ATOM     15  C   UNL     1       3.423   4.965  19.235  0.00  0.00    +0.000 A 
ATOM     16  C   UNL     1       4.795   5.183  19.468  0.00  0.00    +0.000 A 
ATOM     17  C   UNL     1       5.745   4.876  18.489  0.00  0.00    +0.000 A 
ATOM     18  C   UNL     1       5.343   4.334  17.274  0.00  0.00    +0.000 A 
ATOM     19  C   UNL     1       3.988   4.107  17.031  0.00  0.00    +0.000 A 
ATOM     20  C   UNL     1       3.026   4.424  18.002  0.00  0.00    +0.000 A 
ATOM     21 CL   UNL     1       1.376   4.156  17.558  0.00  0.00    +0.000 Cl
ENDBRANCH  14  15
ENDBRANCH  11  14
ENDBRANCH   1  12
BRANCH   2  22
ATOM     22  O   UNL     1       1.872   8.939  17.449  0.00  0.00    +0.000 OA
ATOM     23  H   UNL     1       2.012   9.656  16.808  0.00  0.00    +0.000 HD
ENDBRANCH   2  22
TORSDOF 4
ENDMDL
MODEL 4
REMARK VINA RESULT:      -7.7      2.234      6.720
REMARK  Name = 
REMARK  4 active torsions:
REMARK  status: ('A' for Active; 'I' for Inactive)
REMARK    1  A    between atoms: C_2  and  C_3
REMARK    2  A    between atoms: C_2  and  C_16
REMARK    3  A    between atoms: C_4  and  C_5
REMARK    4  A    between atoms: C_6  and  O_7
REMARK                            x       y       z     vdW  Elec       q    Type
REMARK                         _______ _______ _______ _____ _____    ______ ____
ROOT
ATOM      1  C   UNL     1       1.255   9.178  19.723  0.00  0.00    +0.000 A 
ATOM      2  C   UNL     1       1.181   9.913  18.526  0.00  0.00    +0.000 A 
ATOM      3  C   UNL     1       0.426  11.075  18.443  0.00  0.00    +0.000 A 
ATOM      4  C   UNL     1      -0.287  11.519  19.554  0.00  0.00    +0.000 A 
ATOM      5  C   UNL     1      -0.249  10.810  20.762  0.00  0.00    +0.000 A 
ATOM      6  C   UNL     1      -0.986  11.270  21.867  0.00  0.00    +0.000 A 
ATOM      7  C   UNL     1      -0.968  10.582  23.078  0.00  0.00    +0.000 A 
ATOM      8  C   UNL     1      -0.210   9.427  23.203  0.00  0.00    +0.000 A 
ATOM      9  C   UNL     1       0.526   8.954  22.113  0.00  0.00    +0.000 A 
ATOM     10  C   UNL     1       0.530   9.626  20.866  0.00  0.00    +0.000 A 
ENDROOT
BRANCH   1  12
ATOM     11  C   UNL     1       2.269   7.172  18.703  0.00  0.00    +0.000 C 
ATOM     12  C   UNL     1       2.069   7.952  19.777  0.00  0.00    +0.000 C 
BRANCH  11  14
ATOM     13  O   UNL     1       4.366   6.096  18.869  0.00  0.00    +0.000 OA
ATOM     14  C   UNL     1       3.148   5.973  18.840  0.00  0.00    +0.000 C 
BRANCH  14  15
ATOM     15  C   UNL     1       2.496   4.631  18.887  0.00  0.00    +0.000 A 
ATOM     16  C   UNL     1       1.513   4.382  19.865  0.00  0.00    +0.000 A 
ATOM     17  C   UNL     1       0.830   3.163  19.898  0.00  0.00    +0.000 A 
ATOM     18  C   UNL     1       1.103   2.185  18.950  0.00  0.00    +0.000 A 
ATOM     19  C   UNL     1       2.069   2.419  17.971  0.00  0.00    +0.000 A 
ATOM     20  C   UNL     1       2.770   3.634  17.937  0.00  0.00    +0.000 A 
ATOM     21 CL   UNL     1       3.986   3.780  16.716  0.00  0.00    +0.000 Cl
ENDBRANCH  14  15
ENDBRANCH  11  14
ENDBRANCH   1  12
BRANCH   2  22
ATOM     22  O   UNL     1       1.825   9.537  17.377  0.00  0.00    +0.000 OA
ATOM     23  H   UNL     1       2.456   8.828  17.588  0.00  0.00    +0.000 HD
ENDBRANCH   2  22
TORSDOF 4
ENDMDL
MODEL 5
REMARK VINA RESULT:      -7.6      1.369      3.082
REMARK  Name = 
REMARK  4 active torsions:
REMARK  status: ('A' for Active; 'I' for Inactive)
REMARK    1  A    between atoms: C_2  and  C_3
REMARK    2  A    between atoms: C_2  and  C_16
REMARK    3  A    between atoms: C_4  and  C_5
REMARK    4  A    between atoms: C_6  and  O_7
REMARK                            x       y       z     vdW  Elec       q    Type
REMARK                         _______ _______ _______ _____ _____    ______ ____
ROOT
ATOM      1  C   UNL     1       3.386   5.646  18.033  0.00  0.00    +0.000 A 
ATOM      2  C   UNL     1       2.731   4.618  18.735  0.00  0.00    +0.000 A 
ATOM      3  C   UNL     1       2.991   3.283  18.458  0.00  0.00    +0.000 A 
ATOM      4  C   UNL     1       3.902   2.945  17.460  0.00  0.00    +0.000 A 
ATOM      5  C   UNL     1       4.567   3.939  16.730  0.00  0.00    +0.000 A 
ATOM      6  C   UNL     1       5.473   3.576  15.718  0.00  0.00    +0.000 A 
ATOM      7  C   UNL     1       6.146   4.544  14.976  0.00  0.00    +0.000 A 
ATOM      8  C   UNL     1       5.924   5.889  15.237  0.00  0.00    +0.000 A 
ATOM      9  C   UNL     1       5.024   6.267  16.237  0.00  0.00    +0.000 A 
ATOM     10  C   UNL     1       4.321   5.311  17.010  0.00  0.00    +0.000 A 
ENDROOT
BRANCH   1  12
ATOM     11  C   UNL     1       1.988   7.677  17.909  0.00  0.00    +0.000 C 
ATOM     12  C   UNL     1       3.090   7.053  18.354  0.00  0.00    +0.000 C 
BRANCH  11  14
ATOM     13  O   UNL     1       2.170  10.018  17.645  0.00  0.00    +0.000 OA
ATOM     14  C   UNL     1       1.747   9.090  18.324  0.00  0.00    +0.000 C 
BRANCH  14  15
ATOM     15  C   UNL     1       1.023   9.326  19.608  0.00  0.00    +0.000 A 
ATOM     16  C   UNL     1       1.513   8.734  20.788  0.00  0.00    +0.000 A 
ATOM     17  C   UNL     1       0.905   8.988  22.021  0.00  0.00    +0.000 A 
ATOM     18  C   UNL     1      -0.186   9.846  22.097  0.00  0.00    +0.000 A 
ATOM     19  C   UNL     1      -0.678  10.445  20.938  0.00  0.00    +0.000 A 
ATOM     20  C   UNL     1      -0.083  10.187  19.694  0.00  0.00    +0.000 A 
ATOM     21 CL   UNL     1      -0.824  10.938  18.323  0.00  0.00    +0.000 Cl
ENDBRANCH  14  15
ENDBRANCH  11  14
ENDBRANCH   1  12
BRANCH   2  22
ATOM     22  O   UNL     1       1.801   4.855  19.712  0.00  0.00    +0.000 OA
ATOM     23  H   UNL     1       1.951   4.234  20.445  0.00  0.00    +0.000 HD
ENDBRANCH   2  22
TORSDOF 4
ENDMDL
MODEL 6
REMARK VINA RESULT:      -7.6      2.430      6.647
REMARK  Name = 
REMARK  4 active torsions:
REMARK  status: ('A' for Active; 'I' for Inactive)
REMARK    1  A    between atoms: C_2  and  C_3
REMARK    2  A    between atoms: C_2  and  C_16
REMARK    3  A    between atoms: C_4  and  C_5
REMARK    4  A    between atoms: C_6  and  O_7
REMARK                            x       y       z     vdW  Elec       q    Type
REMARK                         _______ _______ _______ _____ _____    ______ ____
ROOT
ATOM      1  C   UNL     1       1.272   9.622  19.282  0.00  0.00    +0.000 A 
ATOM      2  C   UNL     1       1.583  10.787  18.557  0.00  0.00    +0.000 A 
ATOM      3  C   UNL     1       1.258  12.045  19.048  0.00  0.00    +0.000 A 
ATOM      4  C   UNL     1       0.597  12.164  20.268  0.00  0.00    +0.000 A 
ATOM      5  C   UNL     1       0.260  11.027  21.015  0.00  0.00    +0.000 A 
ATOM      6  C   UNL     1      -0.417  11.170  22.239  0.00  0.00    +0.000 A 
ATOM      7  C   UNL     1      -0.766  10.058  23.000  0.00  0.00    +0.000 A 
ATOM      8  C   UNL     1      -0.441   8.786  22.551  0.00  0.00    +0.000 A 
ATOM      9  C   UNL     1       0.229   8.626  21.334  0.00  0.00    +0.000 A 
ATOM     10  C   UNL     1       0.598   9.734  20.533  0.00  0.00    +0.000 A 
ENDROOT
BRANCH   1  12
ATOM     11  C   UNL     1       2.423   7.442  19.397  0.00  0.00    +0.000 C 
ATOM     12  C   UNL     1       1.636   8.304  18.735  0.00  0.00    +0.000 C 
BRANCH  11  14
ATOM     13  O   UNL     1       2.977   6.016  17.596  0.00  0.00    +0.000 OA
ATOM     14  C   UNL     1       2.700   6.109  18.786  0.00  0.00    +0.000 C 
BRANCH  14  15
ATOM     15  C   UNL     1       2.579   4.903  19.657  0.00  0.00    +0.000 A 
ATOM     16  C   UNL     1       1.374   4.677  20.350  0.00  0.00    +0.000 A 
ATOM     17  C   UNL     1       1.196   3.524  21.120  0.00  0.00    +0.000 A 
ATOM     18  C   UNL     1       2.208   2.574  21.196  0.00  0.00    +0.000 A 
ATOM     19  C   UNL     1       3.405   2.780  20.511  0.00  0.00    +0.000 A 
ATOM     20  C   UNL     1       3.598   3.940  19.746  0.00  0.00    +0.000 A 
ATOM     21 CL   UNL     1       5.148   4.110  18.996  0.00  0.00    +0.000 Cl
ENDBRANCH  14  15
ENDBRANCH  11  14
ENDBRANCH   1  12
BRANCH   2  22
ATOM     22  O   UNL     1       2.205  10.765  17.337  0.00  0.00    +0.000 OA
ATOM     23  H   UNL     1       2.909  11.436  17.331  0.00  0.00    +0.000 HD
ENDBRANCH   2  22
TORSDOF 4
ENDMDL
MODEL 7
REMARK VINA RESULT:      -7.6      0.995      1.032
REMARK  Name = 
REMARK  4 active torsions:
REMARK  status: ('A' for Active; 'I' for Inactive)
REMARK    1  A    between atoms: C_2  and  C_3
REMARK    2  A    between atoms: C_2  and  C_16
REMARK    3  A    between atoms: C_4  and  C_5
REMARK    4  A    between atoms: C_6  and  O_7
REMARK                            x       y       z     vdW  Elec       q    Type
REMARK                         _______ _______ _______ _____ _____    ______ ____
ROOT
ATOM      1  C   UNL     1       2.929   5.881  18.011  0.00  0.00    +0.000 A 
ATOM      2  C   UNL     1       4.142   5.895  17.300  0.00  0.00    +0.000 A 
ATOM      3  C   UNL     1       4.929   4.755  17.202  0.00  0.00    +0.000 A 
ATOM      4  C   UNL     1       4.527   3.578  17.829  0.00  0.00    +0.000 A 
ATOM      5  C   UNL     1       3.330   3.526  18.556  0.00  0.00    +0.000 A 
ATOM      6  C   UNL     1       2.949   2.331  19.190  0.00  0.00    +0.000 A 
ATOM      7  C   UNL     1       1.765   2.252  19.921  0.00  0.00    +0.000 A 
ATOM      8  C   UNL     1       0.945   3.366  20.025  0.00  0.00    +0.000 A 
ATOM      9  C   UNL     1       1.311   4.563  19.403  0.00  0.00    +0.000 A 
ATOM     10  C   UNL     1       2.507   4.681  18.654  0.00  0.00    +0.000 A 
ENDROOT
BRANCH   1  12
ATOM     11  C   UNL     1       2.181   7.947  19.135  0.00  0.00    +0.000 C 
ATOM     12  C   UNL     1       2.116   7.107  18.091  0.00  0.00    +0.000 C 
BRANCH  11  14
ATOM     13  O   UNL     1       1.291   9.872  18.094  0.00  0.00    +0.000 OA
ATOM     14  C   UNL     1       1.355   9.190  19.110  0.00  0.00    +0.000 C 
BRANCH  14  15
ATOM     15  C   UNL     1       0.661   9.593  20.368  0.00  0.00    +0.000 A 
ATOM     16  C   UNL     1       0.190   8.592  21.240  0.00  0.00    +0.000 A 
ATOM     17  C   UNL     1      -0.403   8.928  22.461  0.00  0.00    +0.000 A 
ATOM     18  C   UNL     1      -0.519  10.261  22.836  0.00  0.00    +0.000 A 
ATOM     19  C   UNL     1      -0.052  11.263  21.985  0.00  0.00    +0.000 A 
ATOM     20  C   UNL     1       0.533  10.937  20.752  0.00  0.00    +0.000 A 
ATOM     21 CL   UNL     1       1.014  12.270  19.760  0.00  0.00    +0.000 Cl
ENDBRANCH  14  15
ENDBRANCH  11  14
ENDBRANCH   1  12
BRANCH   2  22
ATOM     22  O   UNL     1       4.631   7.013  16.677  0.00  0.00    +0.000 OA
ATOM     23  H   UNL     1       5.322   7.407  17.237  0.00  0.00    +0.000 HD
ENDBRANCH   2  22
TORSDOF 4
ENDMDL
MODEL 8
REMARK VINA RESULT:      -7.5      2.442      6.856
REMARK  Name = 
REMARK  4 active torsions:
REMARK  status: ('A' for Active; 'I' for Inactive)
REMARK    1  A    between atoms: C_2  and  C_3
REMARK    2  A    between atoms: C_2  and  C_16
REMARK    3  A    between atoms: C_4  and  C_5
REMARK    4  A    between atoms: C_6  and  O_7
REMARK                            x       y       z     vdW  Elec       q    Type
REMARK                         _______ _______ _______ _____ _____    ______ ____
ROOT
ATOM      1  C   UNL     1       1.476   8.458  19.989  0.00  0.00    +0.000 A 
ATOM      2  C   UNL     1       1.593   8.944  18.675  0.00  0.00    +0.000 A 
ATOM      3  C   UNL     1       1.019  10.153  18.304  0.00  0.00    +0.000 A 
ATOM      4  C   UNL     1       0.301  10.895  19.239  0.00  0.00    +0.000 A 
ATOM      5  C   UNL     1       0.153  10.441  20.556  0.00  0.00    +0.000 A 
ATOM      6  C   UNL     1      -0.585  11.200  21.479  0.00  0.00    +0.000 A 
ATOM      7  C   UNL     1      -0.750  10.771  22.794  0.00  0.00    +0.000 A 
ATOM      8  C   UNL     1      -0.176   9.576  23.205  0.00  0.00    +0.000 A 
ATOM      9  C   UNL     1       0.559   8.807  22.298  0.00  0.00    +0.000 A 
ATOM     10  C   UNL     1       0.746   9.211  20.954  0.00  0.00    +0.000 A 
ENDROOT
BRANCH   1  12
ATOM     11  C   UNL     1       1.418   6.018  20.360  0.00  0.00    +0.000 C 
ATOM     12  C   UNL     1       2.101   7.173  20.350  0.00  0.00    +0.000 C 
BRANCH  11  14
ATOM     13  O   UNL     1       2.380   4.465  21.859  0.00  0.00    +0.000 OA
ATOM     14  C   UNL     1       2.144   4.757  20.693  0.00  0.00    +0.000 C 
BRANCH  14  15
ATOM     15  C   UNL     1       2.611   3.902  19.562  0.00  0.00    +0.000 A 
ATOM     16  C   UNL     1       1.771   2.876  19.088  0.00  0.00    +0.000 A 
ATOM     17  C   UNL     1       2.142   2.099  17.986  0.00  0.00    +0.000 A 
ATOM     18  C   UNL     1       3.345   2.344  17.334  0.00  0.00    +0.000 A 
ATOM     19  C   UNL     1       4.185   3.360  17.789  0.00  0.00    +0.000 A 
ATOM     20  C   UNL     1       3.828   4.137  18.901  0.00  0.00    +0.000 A 
ATOM     21 CL   UNL     1       4.981   5.322  19.406  0.00  0.00    +0.000 Cl
ENDBRANCH  14  15
ENDBRANCH  11  14
ENDBRANCH   1  12
BRANCH   2  22
ATOM     22  O   UNL     1       2.254   8.269  17.684  0.00  0.00    +0.000 OA
ATOM     23  H   UNL     1       3.001   8.812  17.378  0.00  0.00    +0.000 HD
ENDBRANCH   2  22
TORSDOF 4
ENDMDL
MODEL 9
REMARK VINA RESULT:      -7.5      1.809      6.613
REMARK  Name = 
REMARK  4 active torsions:
REMARK  status: ('A' for Active; 'I' for Inactive)
REMARK    1  A    between atoms: C_2  and  C_3
REMARK    2  A    between atoms: C_2  and  C_16
REMARK    3  A    between atoms: C_4  and  C_5
REMARK    4  A    between atoms: C_6  and  O_7
REMARK                            x       y       z     vdW  Elec       q    Type
REMARK                         _______ _______ _______ _____ _____    ______ ____
ROOT
ATOM      1  C   UNL     1       1.298   9.373  19.571  0.00  0.00    +0.000 A 
ATOM      2  C   UNL     1       1.157  10.230  18.465  0.00  0.00    +0.000 A 
ATOM      3  C   UNL     1       0.356  11.362  18.533  0.00  0.00    +0.000 A 
ATOM      4  C   UNL     1      -0.335  11.654  19.706  0.00  0.00    +0.000 A 
ATOM      5  C   UNL     1      -0.229  10.820  20.827  0.00  0.00    +0.000 A 
ATOM      6  C   UNL     1      -0.945  11.127  21.998  0.00  0.00    +0.000 A 
ATOM      7  C   UNL     1      -0.859  10.313  23.125  0.00  0.00    +0.000 A 
ATOM      8  C   UNL     1      -0.055   9.183  23.100  0.00  0.00    +0.000 A 
ATOM      9  C   UNL     1       0.660   8.861  21.942  0.00  0.00    +0.000 A 
ATOM     10  C   UNL     1       0.597   9.664  20.777  0.00  0.00    +0.000 A 
ENDROOT
BRANCH   1  12
ATOM     11  C   UNL     1       2.083   7.328  18.434  0.00  0.00    +0.000 C 
ATOM     12  C   UNL     1       2.159   8.182  19.466  0.00  0.00    +0.000 C 
BRANCH  11  14
ATOM     13  O   UNL     1       4.226   6.357  18.210  0.00  0.00    +0.000 OA
ATOM     14  C   UNL     1       3.028   6.173  18.387  0.00  0.00    +0.000 C 
BRANCH  14  15
ATOM     15  C   UNL     1       2.457   4.799  18.511  0.00  0.00    +0.000 A 
ATOM     16  C   UNL     1       2.657   3.878  17.464  0.00  0.00    +0.000 A 
ATOM     17  C   UNL     1       2.200   2.562  17.572  0.00  0.00    +0.000 A 
ATOM     18  C   UNL     1       1.554   2.141  18.728  0.00  0.00    +0.000 A 
ATOM     19  C   UNL     1       1.354   3.040  19.776  0.00  0.00    +0.000 A 
ATOM     20  C   UNL     1       1.797   4.367  19.672  0.00  0.00    +0.000 A 
ATOM     21 CL   UNL     1       1.434   5.400  21.011  0.00  0.00    +0.000 Cl
ENDBRANCH  14  15
ENDBRANCH  11  14
ENDBRANCH   1  12
BRANCH   2  22
ATOM     22  O   UNL     1       1.774  10.007  17.263  0.00  0.00    +0.000 OA
ATOM     23  H   UNL     1       1.622  10.774  16.685  0.00  0.00    +0.000 HD
ENDBRANCH   2  22
TORSDOF 4
ENDMDL
