MODEL 1
REMARK VINA RESULT:      -7.5      0.000      0.000
REMARK  Name = 
REMARK  4 active torsions:
REMARK  status: ('A' for Active; 'I' for Inactive)
REMARK    1  A    between atoms: C_1  and  O_2
REMARK    2  A    between atoms: O_2  and  C_3
REMARK    3  A    between atoms: C_6  and  C_7
REMARK    4  A    between atoms: C_13  and  C_14
REMARK                            x       y       z     vdW  Elec       q    Type
REMARK                         _______ _______ _______ _____ _____    ______ ____
ROOT
ATOM      1  C   UNL     1       8.379   9.166  18.313  0.00  0.00    +0.000 C 
ATOM      2  O   UNL     1       7.498   9.476  17.515  0.00  0.00    +0.000 OA
ATOM      3  N   UNL     1       8.598   7.915  18.842  0.00  0.00    +0.000 N 
ATOM      4  C   UNL     1       7.884   6.783  18.518  0.00  0.00    +0.000 A 
ATOM      5  N   UNL     1       7.960   5.669  19.214  0.00  0.00    +0.000 NA
ATOM      6  N   UNL     1       7.143   4.675  18.703  0.00  0.00    +0.000 NA
ATOM      7  C   UNL     1       6.512   5.062  17.608  0.00  0.00    +0.000 A 
ATOM      8  S   UNL     1       6.880   6.676  17.144  0.00  0.00    +0.000 S 
ATOM      9  H   UNL     1       9.211   7.801  19.637  0.00  0.00    +0.000 HD
ENDROOT
BRANCH   1  13
ATOM     10  C   UNL     1      11.093  12.210  19.643  0.00  0.00    +0.000 A 
ATOM     11  C   UNL     1      10.979  11.884  18.291  0.00  0.00    +0.000 A 
ATOM     12  C   UNL     1      10.067  10.915  17.873  0.00  0.00    +0.000 A 
ATOM     13  C   UNL     1       9.263  10.252  18.807  0.00  0.00    +0.000 A 
ATOM     14  C   UNL     1       9.380  10.569  20.166  0.00  0.00    +0.000 A 
ATOM     15  C   UNL     1      10.296  11.547  20.579  0.00  0.00    +0.000 A 
BRANCH  10  17
ATOM     16  C   UNL     1      11.855  14.439  19.407  0.00  0.00    +0.000 C 
ATOM     17  O   UNL     1      12.059  13.133  19.930  0.00  0.00    +0.000 OA
ENDBRANCH  10  17
ENDBRANCH   1  13
BRANCH   7  18
ATOM     18  C   UNL     1       5.573   4.249  16.785  0.00  0.00    +0.000 C 
ATOM     19  F   UNL     1       4.694   5.009  16.079  0.00  0.00    +0.000 F 
ATOM     20  F   UNL     1       6.222   3.471  15.875  0.00  0.00    +0.000 F 
ATOM     21  F   UNL     1       4.825   3.405  17.546  0.00  0.00    +0.000 F 
ENDBRANCH   7  18
TORSDOF 3
ENDMDL
MODEL 2
REMARK VINA RESULT:      -7.4      0.240      1.379
REMARK  Name = 
REMARK  4 active torsions:
REMARK  status: ('A' for Active; 'I' for Inactive)
REMARK    1  A    between atoms: C_1  and  O_2
REMARK    2  A    between atoms: O_2  and  C_3
REMARK    3  A    between atoms: C_6  and  C_7
REMARK    4  A    between atoms: C_13  and  C_14
REMARK                            x       y       z     vdW  Elec       q    Type
REMARK                         _______ _______ _______ _____ _____    ______ ____
ROOT
ATOM      1  C   UNL     1       8.366   9.088  18.276  0.00  0.00    +0.000 C 
ATOM      2  O   UNL     1       7.477   9.397  17.488  0.00  0.00    +0.000 OA
ATOM      3  N   UNL     1       8.576   7.842  18.822  0.00  0.00    +0.000 N 
ATOM      4  C   UNL     1       7.841   6.715  18.529  0.00  0.00    +0.000 A 
ATOM      5  N   UNL     1       7.913   5.612  19.242  0.00  0.00    +0.000 NA
ATOM      6  N   UNL     1       7.073   4.622  18.761  0.00  0.00    +0.000 NA
ATOM      7  C   UNL     1       6.430   5.000  17.670  0.00  0.00    +0.000 A 
ATOM      8  S   UNL     1       6.813   6.601  17.173  0.00  0.00    +0.000 S 
ATOM      9  H   UNL     1       9.200   7.732  19.609  0.00  0.00    +0.000 HD
ENDROOT
BRANCH   1  13
ATOM     10  C   UNL     1      10.827  12.296  19.708  0.00  0.00    +0.000 A 
ATOM     11  C   UNL     1      10.055  11.531  20.583  0.00  0.00    +0.000 A 
ATOM     12  C   UNL     1       9.286  10.471  20.104  0.00  0.00    +0.000 A 
ATOM     13  C   UNL     1       9.274  10.168  18.738  0.00  0.00    +0.000 A 
ATOM     14  C   UNL     1      10.039  10.938  17.854  0.00  0.00    +0.000 A 
ATOM     15  C   UNL     1      10.813  12.001  18.342  0.00  0.00    +0.000 A 
BRANCH  10  17
ATOM     16  C   UNL     1      11.443  14.579  19.596  0.00  0.00    +0.000 C 
ATOM     17  O   UNL     1      11.489  13.339  20.290  0.00  0.00    +0.000 OA
ENDBRANCH  10  17
ENDBRANCH   1  13
BRANCH   7  18
ATOM     18  C   UNL     1       5.466   4.187  16.875  0.00  0.00    +0.000 C 
ATOM     19  F   UNL     1       6.067   3.465  15.893  0.00  0.00    +0.000 F 
ATOM     20  F   UNL     1       4.783   3.294  17.644  0.00  0.00    +0.000 F 
ATOM     21  F   UNL     1       4.528   4.961  16.263  0.00  0.00    +0.000 F 
ENDBRANCH   7  18
TORSDOF 3
ENDMDL
MODEL 3
REMARK VINA RESULT:      -6.9      8.089      9.563
REMARK  Name = 
REMARK  4 active torsions:
REMARK  status: ('A' for Active; 'I' for Inactive)
REMARK    1  A    between atoms: C_1  and  O_2
REMARK    2  A    between atoms: O_2  and  C_3
REMARK    3  A    between atoms: C_6  and  C_7
REMARK    4  A    between atoms: C_13  and  C_14
REMARK                            x       y       z     vdW  Elec       q    Type
REMARK                         _______ _______ _______ _____ _____    ______ ____
ROOT
ATOM      1  C   UNL     1       1.976   8.012  19.122  0.00  0.00    +0.000 C 
ATOM      2  O   UNL     1       1.501   8.883  18.400  0.00  0.00    +0.000 OA
ATOM      3  N   UNL     1       1.872   7.941  20.493  0.00  0.00    +0.000 N 
ATOM      4  C   UNL     1       1.167   8.825  21.280  0.00  0.00    +0.000 A 
ATOM      5  N   UNL     1       1.289   8.867  22.589  0.00  0.00    +0.000 NA
ATOM      6  N   UNL     1       0.490   9.843  23.158  0.00  0.00    +0.000 NA
ATOM      7  C   UNL     1      -0.244  10.474  22.258  0.00  0.00    +0.000 A 
ATOM      8  S   UNL     1       0.009   9.909  20.654  0.00  0.00    +0.000 S 
ATOM      9  H   UNL     1       2.461   7.307  21.014  0.00  0.00    +0.000 HD
ENDROOT
BRANCH   1  13
ATOM     10  C   UNL     1       4.299   5.056  17.057  0.00  0.00    +0.000 A 
ATOM     11  C   UNL     1       4.555   6.418  16.897  0.00  0.00    +0.000 A 
ATOM     12  C   UNL     1       3.811   7.364  17.601  0.00  0.00    +0.000 A 
ATOM     13  C   UNL     1       2.793   6.957  18.471  0.00  0.00    +0.000 A 
ATOM     14  C   UNL     1       2.526   5.592  18.630  0.00  0.00    +0.000 A 
ATOM     15  C   UNL     1       3.281   4.645  17.921  0.00  0.00    +0.000 A 
BRANCH  10  17
ATOM     16  C   UNL     1       6.464   4.420  16.341  0.00  0.00    +0.000 C 
ATOM     17  O   UNL     1       5.056   4.234  16.271  0.00  0.00    +0.000 OA
ENDBRANCH  10  17
ENDBRANCH   1  13
BRANCH   7  18
ATOM     18  C   UNL     1      -1.229  11.563  22.514  0.00  0.00    +0.000 C 
ATOM     19  F   UNL     1      -0.646  12.717  22.932  0.00  0.00    +0.000 F 
ATOM     20  F   UNL     1      -1.952  11.880  21.404  0.00  0.00    +0.000 F 
ATOM     21  F   UNL     1      -2.132  11.220  23.473  0.00  0.00    +0.000 F 
ENDBRANCH   7  18
TORSDOF 3
ENDMDL
MODEL 4
REMARK VINA RESULT:      -6.9      7.510      8.909
REMARK  Name = 
REMARK  4 active torsions:
REMARK  status: ('A' for Active; 'I' for Inactive)
REMARK    1  A    between atoms: C_1  and  O_2
REMARK    2  A    between atoms: O_2  and  C_3
REMARK    3  A    between atoms: C_6  and  C_7
REMARK    4  A    between atoms: C_13  and  C_14
REMARK                            x       y       z     vdW  Elec       q    Type
REMARK                         _______ _______ _______ _____ _____    ______ ____
ROOT
ATOM      1  C   UNL     1       3.066   6.385  18.583  0.00  0.00    +0.000 C 
ATOM      2  O   UNL     1       2.749   5.638  19.504  0.00  0.00    +0.000 OA
ATOM      3  N   UNL     1       2.644   7.683  18.401  0.00  0.00    +0.000 N 
ATOM      4  C   UNL     1       1.826   8.377  19.264  0.00  0.00    +0.000 A 
ATOM      5  N   UNL     1       1.254   9.517  18.942  0.00  0.00    +0.000 NA
ATOM      6  N   UNL     1       0.469  10.018  19.966  0.00  0.00    +0.000 NA
ATOM      7  C   UNL     1       0.515   9.257  21.046  0.00  0.00    +0.000 A 
ATOM      8  S   UNL     1       1.520   7.874  20.864  0.00  0.00    +0.000 S 
ATOM      9  H   UNL     1       2.794   8.145  17.515  0.00  0.00    +0.000 HD
ENDROOT
BRANCH   1  13
ATOM     10  C   UNL     1       5.680   4.640  15.664  0.00  0.00    +0.000 A 
ATOM     11  C   UNL     1       4.834   3.849  16.441  0.00  0.00    +0.000 A 
ATOM     12  C   UNL     1       3.966   4.435  17.362  0.00  0.00    +0.000 A 
ATOM     13  C   UNL     1       3.943   5.826  17.523  0.00  0.00    +0.000 A 
ATOM     14  C   UNL     1       4.796   6.624  16.752  0.00  0.00    +0.000 A 
ATOM     15  C   UNL     1       5.664   6.028  15.825  0.00  0.00    +0.000 A 
BRANCH  10  17
ATOM     16  C   UNL     1       6.086   3.775  13.498  0.00  0.00    +0.000 C 
ATOM     17  O   UNL     1       6.520   3.944  14.841  0.00  0.00    +0.000 OA
ENDBRANCH  10  17
ENDBRANCH   1  13
BRANCH   7  18
ATOM     18  C   UNL     1      -0.185   9.500  22.339  0.00  0.00    +0.000 C 
ATOM     19  F   UNL     1      -0.924  10.641  22.335  0.00  0.00    +0.000 F 
ATOM     20  F   UNL     1      -1.040   8.491  22.663  0.00  0.00    +0.000 F 
ATOM     21  F   UNL     1       0.687   9.613  23.379  0.00  0.00    +0.000 F 
ENDBRANCH   7  18
TORSDOF 3
ENDMDL
MODEL 5
REMARK VINA RESULT:      -6.9      8.332      9.816
REMARK  Name = 
REMARK  4 active torsions:
REMARK  status: ('A' for Active; 'I' for Inactive)
REMARK    1  A    between atoms: C_1  and  O_2
REMARK    2  A    between atoms: O_2  and  C_3
REMARK    3  A    between atoms: C_6  and  C_7
REMARK    4  A    between atoms: C_13  and  C_14
REMARK                            x       y       z     vdW  Elec       q    Type
REMARK                         _______ _______ _______ _____ _____    ______ ____
ROOT
ATOM      1  C   UNL     1       1.812   8.246  19.508  0.00  0.00    +0.000 C 
ATOM      2  O   UNL     1       1.337   9.093  18.757  0.00  0.00    +0.000 OA
ATOM      3  N   UNL     1       1.674   8.198  20.876  0.00  0.00    +0.000 N 
ATOM      4  C   UNL     1       0.930   9.080  21.628  0.00  0.00    +0.000 A 
ATOM      5  N   UNL     1       1.017   9.149  22.938  0.00  0.00    +0.000 NA
ATOM      6  N   UNL     1       0.182  10.117  23.469  0.00  0.00    +0.000 NA
ATOM      7  C   UNL     1      -0.542  10.714  22.538  0.00  0.00    +0.000 A 
ATOM      8  S   UNL     1      -0.234  10.127  20.952  0.00  0.00    +0.000 S 
ATOM      9  H   UNL     1       2.264   7.587  21.424  0.00  0.00    +0.000 HD
ENDROOT
BRANCH   1  13
ATOM     10  C   UNL     1       4.385   5.199  17.928  0.00  0.00    +0.000 A 
ATOM     11  C   UNL     1       3.645   4.988  19.091  0.00  0.00    +0.000 A 
ATOM     12  C   UNL     1       2.788   5.977  19.573  0.00  0.00    +0.000 A 
ATOM     13  C   UNL     1       2.669   7.197  18.897  0.00  0.00    +0.000 A 
ATOM     14  C   UNL     1       3.415   7.418  17.734  0.00  0.00    +0.000 A 
ATOM     15  C   UNL     1       4.273   6.417  17.253  0.00  0.00    +0.000 A 
BRANCH  10  17
ATOM     16  C   UNL     1       5.815   4.247  16.299  0.00  0.00    +0.000 C 
ATOM     17  O   UNL     1       5.228   4.177  17.592  0.00  0.00    +0.000 OA
ENDBRANCH  10  17
ENDBRANCH   1  13
BRANCH   7  18
ATOM     18  C   UNL     1      -1.557  11.786  22.748  0.00  0.00    +0.000 C 
ATOM     19  F   UNL     1      -2.173  12.164  21.597  0.00  0.00    +0.000 F 
ATOM     20  F   UNL     1      -2.545  11.403  23.603  0.00  0.00    +0.000 F 
ATOM     21  F   UNL     1      -1.007  12.913  23.277  0.00  0.00    +0.000 F 
ENDBRANCH   7  18
TORSDOF 3
ENDMDL
MODEL 6
REMARK VINA RESULT:      -6.9      8.154      9.700
REMARK  Name = 
REMARK  4 active torsions:
REMARK  status: ('A' for Active; 'I' for Inactive)
REMARK    1  A    between atoms: C_1  and  O_2
REMARK    2  A    between atoms: O_2  and  C_3
REMARK    3  A    between atoms: C_6  and  C_7
REMARK    4  A    between atoms: C_13  and  C_14
REMARK                            x       y       z     vdW  Elec       q    Type
REMARK                         _______ _______ _______ _____ _____    ______ ____
ROOT
ATOM      1  C   UNL     1       1.860   8.106  19.057  0.00  0.00    +0.000 C 
ATOM      2  O   UNL     1       1.293   8.936  18.352  0.00  0.00    +0.000 OA
ATOM      3  N   UNL     1       1.857   8.065  20.433  0.00  0.00    +0.000 N 
ATOM      4  C   UNL     1       1.167   8.933  21.249  0.00  0.00    +0.000 A 
ATOM      5  N   UNL     1       1.379   9.013  22.545  0.00  0.00    +0.000 NA
ATOM      6  N   UNL     1       0.575   9.964  23.149  0.00  0.00    +0.000 NA
ATOM      7  C   UNL     1      -0.251  10.537  22.291  0.00  0.00    +0.000 A 
ATOM      8  S   UNL     1      -0.084   9.946  20.685  0.00  0.00    +0.000 S 
ATOM      9  H   UNL     1       2.512   7.472  20.923  0.00  0.00    +0.000 HD
ENDROOT
BRANCH   1  13
ATOM     10  C   UNL     1       4.256   5.035  17.260  0.00  0.00    +0.000 A 
ATOM     11  C   UNL     1       3.151   4.719  18.052  0.00  0.00    +0.000 A 
ATOM     12  C   UNL     1       2.364   5.731  18.601  0.00  0.00    +0.000 A 
ATOM     13  C   UNL     1       2.680   7.075  18.371  0.00  0.00    +0.000 A 
ATOM     14  C   UNL     1       3.792   7.397  17.585  0.00  0.00    +0.000 A 
ATOM     15  C   UNL     1       4.578   6.375  17.032  0.00  0.00    +0.000 A 
BRANCH  10  17
ATOM     16  C   UNL     1       5.697   4.130  15.614  0.00  0.00    +0.000 C 
ATOM     17  O   UNL     1       4.977   3.958  16.828  0.00  0.00    +0.000 OA
ENDBRANCH  10  17
ENDBRANCH   1  13
BRANCH   7  18
ATOM     18  C   UNL     1      -1.267  11.584  22.593  0.00  0.00    +0.000 C 
ATOM     19  F   UNL     1      -0.722  12.720  23.103  0.00  0.00    +0.000 F 
ATOM     20  F   UNL     1      -1.970  11.959  21.489  0.00  0.00    +0.000 F 
ATOM     21  F   UNL     1      -2.184  11.158  23.505  0.00  0.00    +0.000 F 
ENDBRANCH   7  18
TORSDOF 3
ENDMDL
MODEL 7
REMARK VINA RESULT:      -6.9      7.248      8.374
REMARK  Name = 
REMARK  4 active torsions:
REMARK  status: ('A' for Active; 'I' for Inactive)
REMARK    1  A    between atoms: C_1  and  O_2
REMARK    2  A    between atoms: O_2  and  C_3
REMARK    3  A    between atoms: C_6  and  C_7
REMARK    4  A    between atoms: C_13  and  C_14
REMARK                            x       y       z     vdW  Elec       q    Type
REMARK                         _______ _______ _______ _____ _____    ______ ____
ROOT
ATOM      1  C   UNL     1       1.462   8.285  20.295  0.00  0.00    +0.000 C 
ATOM      2  O   UNL     1       1.775   8.563  19.141  0.00  0.00    +0.000 OA
ATOM      3  N   UNL     1       1.605   7.061  20.908  0.00  0.00    +0.000 N 
ATOM      4  C   UNL     1       2.175   5.949  20.331  0.00  0.00    +0.000 A 
ATOM      5  N   UNL     1       2.075   4.745  20.852  0.00  0.00    +0.000 NA
ATOM      6  N   UNL     1       2.719   3.788  20.087  0.00  0.00    +0.000 NA
ATOM      7  C   UNL     1       3.322   4.313  19.036  0.00  0.00    +0.000 A 
ATOM      8  S   UNL     1       3.129   6.018  18.919  0.00  0.00    +0.000 S 
ATOM      9  H   UNL     1       1.136   6.876  21.784  0.00  0.00    +0.000 HD
ENDROOT
BRANCH   1  13
ATOM     10  C   UNL     1      -0.585  11.241  22.634  0.00  0.00    +0.000 A 
ATOM     11  C   UNL     1      -0.461   9.926  23.080  0.00  0.00    +0.000 A 
ATOM     12  C   UNL     1       0.236   8.985  22.322  0.00  0.00    +0.000 A 
ATOM     13  C   UNL     1       0.812   9.351  21.100  0.00  0.00    +0.000 A 
ATOM     14  C   UNL     1       0.683  10.667  20.643  0.00  0.00    +0.000 A 
ATOM     15  C   UNL     1      -0.016  11.609  21.412  0.00  0.00    +0.000 A 
BRANCH  10  17
ATOM     16  C   UNL     1      -2.719  12.144  23.116  0.00  0.00    +0.000 C 
ATOM     17  O   UNL     1      -1.338  12.050  23.437  0.00  0.00    +0.000 OA
ENDBRANCH  10  17
ENDBRANCH   1  13
BRANCH   7  18
ATOM     18  C   UNL     1       4.124   3.587  18.011  0.00  0.00    +0.000 C 
ATOM     19  F   UNL     1       5.449   3.890  18.062  0.00  0.00    +0.000 F 
ATOM     20  F   UNL     1       4.036   2.234  18.147  0.00  0.00    +0.000 F 
ATOM     21  F   UNL     1       3.714   3.872  16.744  0.00  0.00    +0.000 F 
ENDBRANCH   7  18
TORSDOF 3
ENDMDL
MODEL 8
REMARK VINA RESULT:      -6.8      7.452      8.722
REMARK  Name = 
REMARK  4 active torsions:
REMARK  status: ('A' for Active; 'I' for Inactive)
REMARK    1  A    between atoms: C_1  and  O_2
REMARK    2  A    between atoms: O_2  and  C_3
REMARK    3  A    between atoms: C_6  and  C_7
REMARK    4  A    between atoms: C_13  and  C_14
REMARK                            x       y       z     vdW  Elec       q    Type
REMARK                         _______ _______ _______ _____ _____    ______ ____
ROOT
ATOM      1  C   UNL     1       3.402   6.087  18.179  0.00  0.00    +0.000 C 
ATOM      2  O   UNL     1       3.020   5.347  19.082  0.00  0.00    +0.000 OA
ATOM      3  N   UNL     1       3.023   7.394  17.979  0.00  0.00    +0.000 N 
ATOM      4  C   UNL     1       2.180   8.108  18.800  0.00  0.00    +0.000 A 
ATOM      5  N   UNL     1       1.654   9.262  18.451  0.00  0.00    +0.000 NA
ATOM      6  N   UNL     1       0.830   9.782  19.435  0.00  0.00    +0.000 NA
ATOM      7  C   UNL     1       0.802   9.020  20.514  0.00  0.00    +0.000 A 
ATOM      8  S   UNL     1       1.780   7.612  20.382  0.00  0.00    +0.000 S 
ATOM      9  H   UNL     1       3.230   7.853  17.103  0.00  0.00    +0.000 HD
ENDROOT
BRANCH   1  13
ATOM     10  C   UNL     1       5.941   4.510  15.101  0.00  0.00    +0.000 A 
ATOM     11  C   UNL     1       5.716   5.882  15.220  0.00  0.00    +0.000 A 
ATOM     12  C   UNL     1       4.914   6.380  16.247  0.00  0.00    +0.000 A 
ATOM     13  C   UNL     1       4.318   5.506  17.164  0.00  0.00    +0.000 A 
ATOM     14  C   UNL     1       4.533   4.128  17.044  0.00  0.00    +0.000 A 
ATOM     15  C   UNL     1       5.344   3.634  16.011  0.00  0.00    +0.000 A 
BRANCH  10  17
ATOM     16  C   UNL     1       5.989   3.603  12.915  0.00  0.00    +0.000 C 
ATOM     17  O   UNL     1       6.696   4.145  14.023  0.00  0.00    +0.000 OA
ENDBRANCH  10  17
ENDBRANCH   1  13
BRANCH   7  18
ATOM     18  C   UNL     1       0.043   9.280  21.771  0.00  0.00    +0.000 C 
ATOM     19  F   UNL     1       0.845   9.370  22.865  0.00  0.00    +0.000 F 
ATOM     20  F   UNL     1      -0.665  10.442  21.718  0.00  0.00    +0.000 F 
ATOM     21  F   UNL     1      -0.858   8.294  22.036  0.00  0.00    +0.000 F 
ENDBRANCH   7  18
TORSDOF 3
ENDMDL
MODEL 9
REMARK VINA RESULT:      -6.8      6.323      7.497
REMARK  Name = 
REMARK  4 active torsions:
REMARK  status: ('A' for Active; 'I' for Inactive)
REMARK    1  A    between atoms: C_1  and  O_2
REMARK    2  A    between atoms: O_2  and  C_3
REMARK    3  A    between atoms: C_6  and  C_7
REMARK    4  A    between atoms: C_13  and  C_14
REMARK                            x       y       z     vdW  Elec       q    Type
REMARK                         _______ _______ _______ _____ _____    ______ ____
ROOT
ATOM      1  C   UNL     1       2.378   7.844  18.672  0.00  0.00    +0.000 C 
ATOM      2  O   UNL     1       2.567   8.259  17.532  0.00  0.00    +0.000 OA
ATOM      3  N   UNL     1       2.920   6.708  19.227  0.00  0.00    +0.000 N 
ATOM      4  C   UNL     1       3.812   5.867  18.598  0.00  0.00    +0.000 A 
ATOM      5  N   UNL     1       4.116   4.675  19.063  0.00  0.00    +0.000 NA
ATOM      6  N   UNL     1       5.024   4.014  18.254  0.00  0.00    +0.000 NA
ATOM      7  C   UNL     1       5.408   4.753  17.228  0.00  0.00    +0.000 A 
ATOM      8  S   UNL     1       4.670   6.305  17.192  0.00  0.00    +0.000 S 
ATOM      9  H   UNL     1       2.551   6.342  20.093  0.00  0.00    +0.000 HD
ENDROOT
BRANCH   1  13
ATOM     10  C   UNL     1      -0.259  10.212  21.088  0.00  0.00    +0.000 A 
ATOM     11  C   UNL     1      -0.033  10.523  19.747  0.00  0.00    +0.000 A 
ATOM     12  C   UNL     1       0.801   9.723  18.967  0.00  0.00    +0.000 A 
ATOM     13  C   UNL     1       1.430   8.604  19.526  0.00  0.00    +0.000 A 
ATOM     14  C   UNL     1       1.214   8.292  20.873  0.00  0.00    +0.000 A 
ATOM     15  C   UNL     1       0.370   9.099  21.651  0.00  0.00    +0.000 A 
BRANCH  10  17
ATOM     16  C   UNL     1      -1.206  10.880  23.152  0.00  0.00    +0.000 C 
ATOM     17  O   UNL     1      -1.050  11.103  21.757  0.00  0.00    +0.000 OA
ENDBRANCH  10  17
ENDBRANCH   1  13
BRANCH   7  18
ATOM     18  C   UNL     1       6.387   4.372  16.171  0.00  0.00    +0.000 C 
ATOM     19  F   UNL     1       6.493   5.305  15.187  0.00  0.00    +0.000 F 
ATOM     20  F   UNL     1       7.643   4.194  16.666  0.00  0.00    +0.000 F 
ATOM     21  F   UNL     1       6.048   3.205  15.557  0.00  0.00    +0.000 F 
ENDBRANCH   7  18
TORSDOF 3
ENDMDL
