MODEL 1
REMARK VINA RESULT:      -7.4      0.000      0.000
REMARK  Name = 
REMARK  5 active torsions:
REMARK  status: ('A' for Active; 'I' for Inactive)
REMARK    1  A    between atoms: C_1  and  C_2
REMARK    2  A    between atoms: C_5  and  N_6
REMARK    3  A    between atoms: N_9  and  C_10
REMARK    4  A    between atoms: C_11  and  C_12
REMARK    5  A    between atoms: C_17  and  C_18
REMARK                            x       y       z     vdW  Elec       q    Type
REMARK                         _______ _______ _______ _____ _____    ______ ____
ROOT
ATOM      1  N   UNL     1       3.214   5.866  19.312  0.00  0.00    +0.000 N 
ATOM      2  C   UNL     1       2.468   7.012  19.528  0.00  0.00    +0.000 C 
ATOM      3  O   UNL     1       2.312   7.926  18.723  0.00  0.00    +0.000 OA
ATOM      4  N   UNL     1       1.872   7.072  20.781  0.00  0.00    +0.000 N 
ATOM      5  H   UNL     1       3.260   5.208  20.070  0.00  0.00    +0.000 HD
ATOM      6  H   UNL     1       2.001   6.328  21.449  0.00  0.00    +0.000 HD
ENDROOT
BRANCH   1  11
ATOM      7  C   UNL     1       6.171   4.655  14.498  0.00  0.00    +0.000 C 
ATOM      8  C   UNL     1       5.394   4.958  15.743  0.00  0.00    +0.000 A 
ATOM      9  C   UNL     1       5.616   6.139  16.433  0.00  0.00    +0.000 A 
ATOM     10  C   UNL     1       4.894   6.422  17.593  0.00  0.00    +0.000 A 
ATOM     11  C   UNL     1       3.927   5.548  18.116  0.00  0.00    +0.000 A 
ATOM     12  C   UNL     1       3.689   4.346  17.415  0.00  0.00    +0.000 A 
ATOM     13  C   UNL     1       2.692   3.290  17.814  0.00  0.00    +0.000 C 
ATOM     14  C   UNL     1       4.432   4.071  16.238  0.00  0.00    +0.000 A 
ENDBRANCH   1  11
BRANCH   4  15
ATOM     15  C   UNL     1       1.091   8.164  21.114  0.00  0.00    +0.000 C 
ATOM     16  C   UNL     1       1.277   8.991  22.148  0.00  0.00    +0.000 C 
BRANCH  16  17
ATOM     17  C   UNL     1       0.354  10.066  22.337  0.00  0.00    +0.000 A 
ATOM     18  C   UNL     1      -0.803  10.122  23.106  0.00  0.00    +0.000 A 
ATOM     19  C   UNL     1      -1.373  11.414  22.955  0.00  0.00    +0.000 A 
ATOM     20  C   UNL     1      -0.542  12.091  22.103  0.00  0.00    +0.000 A 
ATOM     21  O   UNL     1       0.489  11.301  21.730  0.00  0.00    +0.000 OA
ENDBRANCH  16  17
ENDBRANCH   4  15
TORSDOF 3
ENDMDL
MODEL 2
REMARK VINA RESULT:      -7.3      0.989      1.131
REMARK  Name = 
REMARK  5 active torsions:
REMARK  status: ('A' for Active; 'I' for Inactive)
REMARK    1  A    between atoms: C_1  and  C_2
REMARK    2  A    between atoms: C_5  and  N_6
REMARK    3  A    between atoms: N_9  and  C_10
REMARK    4  A    between atoms: C_11  and  C_12
REMARK    5  A    between atoms: C_17  and  C_18
REMARK                            x       y       z     vdW  Elec       q    Type
REMARK                         _______ _______ _______ _____ _____    ______ ____
ROOT
ATOM      1  N   UNL     1       3.042   5.917  19.828  0.00  0.00    +0.000 N 
ATOM      2  C   UNL     1       2.335   7.107  19.835  0.00  0.00    +0.000 C 
ATOM      3  O   UNL     1       2.219   7.876  18.883  0.00  0.00    +0.000 OA
ATOM      4  N   UNL     1       1.730   7.401  21.050  0.00  0.00    +0.000 N 
ATOM      5  H   UNL     1       3.057   5.397  20.686  0.00  0.00    +0.000 HD
ATOM      6  H   UNL     1       1.826   6.777  21.836  0.00  0.00    +0.000 HD
ENDROOT
BRANCH   1  11
ATOM      7  C   UNL     1       6.014   3.756  15.368  0.00  0.00    +0.000 C 
ATOM      8  C   UNL     1       5.230   4.313  16.518  0.00  0.00    +0.000 A 
ATOM      9  C   UNL     1       5.830   5.180  17.417  0.00  0.00    +0.000 A 
ATOM     10  C   UNL     1       5.103   5.698  18.489  0.00  0.00    +0.000 A 
ATOM     11  C   UNL     1       3.753   5.376  18.713  0.00  0.00    +0.000 A 
ATOM     12  C   UNL     1       3.132   4.500  17.798  0.00  0.00    +0.000 A 
ATOM     13  C   UNL     1       1.698   4.044  17.869  0.00  0.00    +0.000 C 
ATOM     14  C   UNL     1       3.886   3.980  16.714  0.00  0.00    +0.000 A 
ENDBRANCH   1  11
BRANCH   4  15
ATOM     15  C   UNL     1       0.986   8.558  21.181  0.00  0.00    +0.000 C 
ATOM     16  C   UNL     1       0.455   9.041  22.309  0.00  0.00    +0.000 C 
BRANCH  16  17
ATOM     17  C   UNL     1      -0.296  10.256  22.246  0.00  0.00    +0.000 A 
ATOM     18  C   UNL     1      -0.610  11.053  21.150  0.00  0.00    +0.000 A 
ATOM     19  C   UNL     1      -1.373  12.158  21.611  0.00  0.00    +0.000 A 
ATOM     20  C   UNL     1      -1.495  11.989  22.965  0.00  0.00    +0.000 A 
ATOM     21  O   UNL     1      -0.860  10.861  23.353  0.00  0.00    +0.000 OA
ENDBRANCH  16  17
ENDBRANCH   4  15
TORSDOF 3
ENDMDL
MODEL 3
REMARK VINA RESULT:      -7.0      7.140     10.161
REMARK  Name = 
REMARK  5 active torsions:
REMARK  status: ('A' for Active; 'I' for Inactive)
REMARK    1  A    between atoms: C_1  and  C_2
REMARK    2  A    between atoms: C_5  and  N_6
REMARK    3  A    between atoms: N_9  and  C_10
REMARK    4  A    between atoms: C_11  and  C_12
REMARK    5  A    between atoms: C_17  and  C_18
REMARK                            x       y       z     vdW  Elec       q    Type
REMARK                         _______ _______ _______ _____ _____    ______ ____
ROOT
ATOM      1  N   UNL     1       9.660  10.475  19.903  0.00  0.00    +0.000 N 
ATOM      2  C   UNL     1       8.950   9.927  18.848  0.00  0.00    +0.000 C 
ATOM      3  O   UNL     1       8.500  10.549  17.889  0.00  0.00    +0.000 OA
ATOM      4  N   UNL     1       8.765   8.554  18.942  0.00  0.00    +0.000 N 
ATOM      5  H   UNL     1       9.956   9.842  20.624  0.00  0.00    +0.000 HD
ATOM      6  H   UNL     1       9.127   8.038  19.730  0.00  0.00    +0.000 HD
ENDROOT
BRANCH   1  11
ATOM      7  C   UNL     1      10.929  16.070  20.592  0.00  0.00    +0.000 C 
ATOM      8  C   UNL     1      10.611  14.618  20.403  0.00  0.00    +0.000 A 
ATOM      9  C   UNL     1       9.386  14.113  20.809  0.00  0.00    +0.000 A 
ATOM     10  C   UNL     1       9.089  12.761  20.636  0.00  0.00    +0.000 A 
ATOM     11  C   UNL     1       9.993  11.855  20.055  0.00  0.00    +0.000 A 
ATOM     12  C   UNL     1      11.241  12.362  19.632  0.00  0.00    +0.000 A 
ATOM     13  C   UNL     1      12.333  11.552  18.986  0.00  0.00    +0.000 C 
ATOM     14  C   UNL     1      11.529  13.740  19.817  0.00  0.00    +0.000 A 
ENDBRANCH   1  11
BRANCH   4  15
ATOM     15  C   UNL     1       8.080   7.887  17.943  0.00  0.00    +0.000 C 
ATOM     16  C   UNL     1       7.633   6.627  17.988  0.00  0.00    +0.000 C 
BRANCH  16  17
ATOM     17  C   UNL     1       6.950   6.104  16.847  0.00  0.00    +0.000 A 
ATOM     18  C   UNL     1       5.649   6.328  16.407  0.00  0.00    +0.000 A 
ATOM     19  C   UNL     1       5.446   5.569  15.224  0.00  0.00    +0.000 A 
ATOM     20  C   UNL     1       6.628   4.918  14.990  0.00  0.00    +0.000 A 
ATOM     21  O   UNL     1       7.530   5.229  15.947  0.00  0.00    +0.000 OA
ENDBRANCH  16  17
ENDBRANCH   4  15
TORSDOF 3
ENDMDL
MODEL 4
REMARK VINA RESULT:      -7.0      6.964     10.003
REMARK  Name = 
REMARK  5 active torsions:
REMARK  status: ('A' for Active; 'I' for Inactive)
REMARK    1  A    between atoms: C_1  and  C_2
REMARK    2  A    between atoms: C_5  and  N_6
REMARK    3  A    between atoms: N_9  and  C_10
REMARK    4  A    between atoms: C_11  and  C_12
REMARK    5  A    between atoms: C_17  and  C_18
REMARK                            x       y       z     vdW  Elec       q    Type
REMARK                         _______ _______ _______ _____ _____    ______ ____
ROOT
ATOM      1  N   UNL     1       9.602  10.173  20.058  0.00  0.00    +0.000 N 
ATOM      2  C   UNL     1       8.905   9.672  18.972  0.00  0.00    +0.000 C 
ATOM      3  O   UNL     1       8.533  10.323  17.999  0.00  0.00    +0.000 OA
ATOM      4  N   UNL     1       8.633   8.312  19.051  0.00  0.00    +0.000 N 
ATOM      5  H   UNL     1       9.830   9.522  20.787  0.00  0.00    +0.000 HD
ATOM      6  H   UNL     1       8.931   7.774  19.850  0.00  0.00    +0.000 HD
ENDROOT
BRANCH   1  11
ATOM      7  C   UNL     1      11.302  15.663  20.660  0.00  0.00    +0.000 C 
ATOM      8  C   UNL     1      10.856  14.239  20.518  0.00  0.00    +0.000 A 
ATOM      9  C   UNL     1      11.383  13.439  19.517  0.00  0.00    +0.000 A 
ATOM     10  C   UNL     1      10.966  12.115  19.382  0.00  0.00    +0.000 A 
ATOM     11  C   UNL     1      10.012  11.530  20.232  0.00  0.00    +0.000 A 
ATOM     12  C   UNL     1       9.475  12.336  21.259  0.00  0.00    +0.000 A 
ATOM     13  C   UNL     1       8.450  11.888  22.267  0.00  0.00    +0.000 C 
ATOM     14  C   UNL     1       9.907  13.682  21.382  0.00  0.00    +0.000 A 
ENDBRANCH   1  11
BRANCH   4  15
ATOM     15  C   UNL     1       7.951   7.691  18.021  0.00  0.00    +0.000 C 
ATOM     16  C   UNL     1       7.687   6.384  17.915  0.00  0.00    +0.000 C 
BRANCH  16  17
ATOM     17  C   UNL     1       6.973   5.923  16.766  0.00  0.00    +0.000 A 
ATOM     18  C   UNL     1       5.702   6.261  16.312  0.00  0.00    +0.000 A 
ATOM     19  C   UNL     1       5.446   5.523  15.126  0.00  0.00    +0.000 A 
ATOM     20  C   UNL     1       6.567   4.769  14.905  0.00  0.00    +0.000 A 
ATOM     21  O   UNL     1       7.482   4.999  15.872  0.00  0.00    +0.000 OA
ENDBRANCH  16  17
ENDBRANCH   4  15
TORSDOF 3
ENDMDL
MODEL 5
REMARK VINA RESULT:      -6.9      5.479      7.529
REMARK  Name = 
REMARK  5 active torsions:
REMARK  status: ('A' for Active; 'I' for Inactive)
REMARK    1  A    between atoms: C_1  and  C_2
REMARK    2  A    between atoms: C_5  and  N_6
REMARK    3  A    between atoms: N_9  and  C_10
REMARK    4  A    between atoms: C_11  and  C_12
REMARK    5  A    between atoms: C_17  and  C_18
REMARK                            x       y       z     vdW  Elec       q    Type
REMARK                         _______ _______ _______ _____ _____    ______ ____
ROOT
ATOM      1  N   UNL     1       6.142   7.135  17.097  0.00  0.00    +0.000 N 
ATOM      2  C   UNL     1       7.256   7.628  17.755  0.00  0.00    +0.000 C 
ATOM      3  O   UNL     1       7.896   7.035  18.620  0.00  0.00    +0.000 OA
ATOM      4  N   UNL     1       7.630   8.905  17.358  0.00  0.00    +0.000 N 
ATOM      5  H   UNL     1       5.715   7.740  16.419  0.00  0.00    +0.000 HD
ATOM      6  H   UNL     1       7.106   9.399  16.652  0.00  0.00    +0.000 HD
ENDROOT
BRANCH   1  11
ATOM      7  C   UNL     1       3.699   1.985  18.045  0.00  0.00    +0.000 C 
ATOM      8  C   UNL     1       4.338   3.315  17.786  0.00  0.00    +0.000 A 
ATOM      9  C   UNL     1       4.514   4.219  18.822  0.00  0.00    +0.000 A 
ATOM     10  C   UNL     1       5.107   5.459  18.582  0.00  0.00    +0.000 A 
ATOM     11  C   UNL     1       5.548   5.853  17.308  0.00  0.00    +0.000 A 
ATOM     12  C   UNL     1       5.380   4.936  16.248  0.00  0.00    +0.000 A 
ATOM     13  C   UNL     1       5.792   5.175  14.820  0.00  0.00    +0.000 C 
ATOM     14  C   UNL     1       4.773   3.680  16.507  0.00  0.00    +0.000 A 
ENDBRANCH   1  11
BRANCH   4  15
ATOM     15  C   UNL     1       8.736   9.503  17.934  0.00  0.00    +0.000 C 
ATOM     16  C   UNL     1       8.903  10.808  18.171  0.00  0.00    +0.000 C 
BRANCH  16  17
ATOM     17  C   UNL     1      10.125  11.243  18.771  0.00  0.00    +0.000 A 
ATOM     18  C   UNL     1      11.368  11.475  18.191  0.00  0.00    +0.000 A 
ATOM     19  C   UNL     1      12.263  11.888  19.214  0.00  0.00    +0.000 A 
ATOM     20  C   UNL     1      11.531  11.892  20.372  0.00  0.00    +0.000 A 
ATOM     21  O   UNL     1      10.258  11.512  20.120  0.00  0.00    +0.000 OA
ENDBRANCH  16  17
ENDBRANCH   4  15
TORSDOF 3
ENDMDL
MODEL 6
REMARK VINA RESULT:      -6.8      4.455      6.925
REMARK  Name = 
REMARK  5 active torsions:
REMARK  status: ('A' for Active; 'I' for Inactive)
REMARK    1  A    between atoms: C_1  and  C_2
REMARK    2  A    between atoms: C_5  and  N_6
REMARK    3  A    between atoms: N_9  and  C_10
REMARK    4  A    between atoms: C_11  and  C_12
REMARK    5  A    between atoms: C_17  and  C_18
REMARK                            x       y       z     vdW  Elec       q    Type
REMARK                         _______ _______ _______ _____ _____    ______ ____
ROOT
ATOM      1  N   UNL     1       5.185   5.719  16.804  0.00  0.00    +0.000 N 
ATOM      2  C   UNL     1       6.013   6.500  17.591  0.00  0.00    +0.000 C 
ATOM      3  O   UNL     1       5.972   6.576  18.816  0.00  0.00    +0.000 OA
ATOM      4  N   UNL     1       6.948   7.236  16.874  0.00  0.00    +0.000 N 
ATOM      5  H   UNL     1       5.329   5.767  15.811  0.00  0.00    +0.000 HD
ATOM      6  H   UNL     1       6.983   7.181  15.867  0.00  0.00    +0.000 HD
ENDROOT
BRANCH   1  11
ATOM      7  C   UNL     1       1.041   2.184  18.734  0.00  0.00    +0.000 C 
ATOM      8  C   UNL     1       2.105   3.113  18.233  0.00  0.00    +0.000 A 
ATOM      9  C   UNL     1       3.273   2.605  17.686  0.00  0.00    +0.000 A 
ATOM     10  C   UNL     1       4.266   3.467  17.222  0.00  0.00    +0.000 A 
ATOM     11  C   UNL     1       4.143   4.866  17.280  0.00  0.00    +0.000 A 
ATOM     12  C   UNL     1       2.953   5.392  17.828  0.00  0.00    +0.000 A 
ATOM     13  C   UNL     1       2.637   6.857  17.970  0.00  0.00    +0.000 C 
ATOM     14  C   UNL     1       1.953   4.502  18.299  0.00  0.00    +0.000 A 
ENDBRANCH   1  11
BRANCH   4  15
ATOM     15  C   UNL     1       7.842   8.047  17.548  0.00  0.00    +0.000 C 
ATOM     16  C   UNL     1       7.792   9.380  17.644  0.00  0.00    +0.000 C 
BRANCH  16  17
ATOM     17  C   UNL     1       8.816  10.051  18.381  0.00  0.00    +0.000 A 
ATOM     18  C   UNL     1       9.811  10.916  17.939  0.00  0.00    +0.000 A 
ATOM     19  C   UNL     1      10.587  11.309  19.062  0.00  0.00    +0.000 A 
ATOM     20  C   UNL     1      10.033  10.671  20.140  0.00  0.00    +0.000 A 
ATOM     21  O   UNL     1       8.979   9.922  19.748  0.00  0.00    +0.000 OA
ENDBRANCH  16  17
ENDBRANCH   4  15
TORSDOF 3
ENDMDL
MODEL 7
REMARK VINA RESULT:      -6.8      6.376      9.564
REMARK  Name = 
REMARK  5 active torsions:
REMARK  status: ('A' for Active; 'I' for Inactive)
REMARK    1  A    between atoms: C_1  and  C_2
REMARK    2  A    between atoms: C_5  and  N_6
REMARK    3  A    between atoms: N_9  and  C_10
REMARK    4  A    between atoms: C_11  and  C_12
REMARK    5  A    between atoms: C_17  and  C_18
REMARK                            x       y       z     vdW  Elec       q    Type
REMARK                         _______ _______ _______ _____ _____    ______ ____
ROOT
ATOM      1  N   UNL     1       9.456   9.760  19.460  0.00  0.00    +0.000 N 
ATOM      2  C   UNL     1       8.599   9.063  18.626  0.00  0.00    +0.000 C 
ATOM      3  O   UNL     1       7.949   9.546  17.703  0.00  0.00    +0.000 OA
ATOM      4  N   UNL     1       8.511   7.706  18.910  0.00  0.00    +0.000 N 
ATOM      5  H   UNL     1       9.913   9.231  20.181  0.00  0.00    +0.000 HD
ATOM      6  H   UNL     1       9.038   7.304  19.670  0.00  0.00    +0.000 HD
ENDROOT
BRANCH   1  11
ATOM      7  C   UNL     1      10.592  15.411  19.063  0.00  0.00    +0.000 C 
ATOM      8  C   UNL     1      10.297  13.947  19.181  0.00  0.00    +0.000 A 
ATOM      9  C   UNL     1      10.608  13.086  18.141  0.00  0.00    +0.000 A 
ATOM     10  C   UNL     1      10.331  11.723  18.249  0.00  0.00    +0.000 A 
ATOM     11  C   UNL     1       9.734  11.159  19.389  0.00  0.00    +0.000 A 
ATOM     12  C   UNL     1       9.420  12.028  20.456  0.00  0.00    +0.000 A 
ATOM     13  C   UNL     1       8.784  11.612  21.756  0.00  0.00    +0.000 C 
ATOM     14  C   UNL     1       9.706  13.412  20.331  0.00  0.00    +0.000 A 
ENDBRANCH   1  11
BRANCH   4  15
ATOM     15  C   UNL     1       7.695   6.898  18.140  0.00  0.00    +0.000 C 
ATOM     16  C   UNL     1       7.612   5.565  18.196  0.00  0.00    +0.000 C 
BRANCH  16  17
ATOM     17  C   UNL     1       6.712   4.899  17.308  0.00  0.00    +0.000 A 
ATOM     18  C   UNL     1       6.919   4.432  16.014  0.00  0.00    +0.000 A 
ATOM     19  C   UNL     1       5.708   3.849  15.555  0.00  0.00    +0.000 A 
ATOM     20  C   UNL     1       4.815   3.981  16.585  0.00  0.00    +0.000 A 
ATOM     21  O   UNL     1       5.401   4.602  17.633  0.00  0.00    +0.000 OA
ENDBRANCH  16  17
ENDBRANCH   4  15
TORSDOF 3
ENDMDL
MODEL 8
REMARK VINA RESULT:      -6.8      5.311      7.241
REMARK  Name = 
REMARK  5 active torsions:
REMARK  status: ('A' for Active; 'I' for Inactive)
REMARK    1  A    between atoms: C_1  and  C_2
REMARK    2  A    between atoms: C_5  and  N_6
REMARK    3  A    between atoms: N_9  and  C_10
REMARK    4  A    between atoms: C_11  and  C_12
REMARK    5  A    between atoms: C_17  and  C_18
REMARK                            x       y       z     vdW  Elec       q    Type
REMARK                         _______ _______ _______ _____ _____    ______ ____
ROOT
ATOM      1  N   UNL     1       7.044   6.029  18.659  0.00  0.00    +0.000 N 
ATOM      2  C   UNL     1       7.337   7.277  18.138  0.00  0.00    +0.000 C 
ATOM      3  O   UNL     1       6.688   7.862  17.274  0.00  0.00    +0.000 OA
ATOM      4  N   UNL     1       8.472   7.866  18.680  0.00  0.00    +0.000 N 
ATOM      5  H   UNL     1       7.673   5.672  19.356  0.00  0.00    +0.000 HD
ATOM      6  H   UNL     1       9.012   7.389  19.386  0.00  0.00    +0.000 HD
ENDROOT
BRANCH   1  11
ATOM      7  C   UNL     1       2.504   2.757  17.221  0.00  0.00    +0.000 C 
ATOM      8  C   UNL     1       3.690   3.598  17.584  0.00  0.00    +0.000 A 
ATOM      9  C   UNL     1       3.712   4.292  18.783  0.00  0.00    +0.000 A 
ATOM     10  C   UNL     1       4.815   5.077  19.121  0.00  0.00    +0.000 A 
ATOM     11  C   UNL     1       5.937   5.208  18.285  0.00  0.00    +0.000 A 
ATOM     12  C   UNL     1       5.925   4.498  17.065  0.00  0.00    +0.000 A 
ATOM     13  C   UNL     1       7.033   4.508  16.045  0.00  0.00    +0.000 C 
ATOM     14  C   UNL     1       4.796   3.705  16.734  0.00  0.00    +0.000 A 
ENDBRANCH   1  11
BRANCH   4  15
ATOM     15  C   UNL     1       8.863   9.120  18.249  0.00  0.00    +0.000 C 
ATOM     16  C   UNL     1       9.250  10.142  19.019  0.00  0.00    +0.000 C 
BRANCH  16  17
ATOM     17  C   UNL     1       9.612  11.373  18.390  0.00  0.00    +0.000 A 
ATOM     18  C   UNL     1       8.951  12.597  18.379  0.00  0.00    +0.000 A 
ATOM     19  C   UNL     1       9.717  13.507  17.604  0.00  0.00    +0.000 A 
ATOM     20  C   UNL     1      10.812  12.804  17.176  0.00  0.00    +0.000 A 
ATOM     21  O   UNL     1      10.762  11.535  17.638  0.00  0.00    +0.000 OA
ENDBRANCH  16  17
ENDBRANCH   4  15
TORSDOF 3
ENDMDL
MODEL 9
REMARK VINA RESULT:      -6.7      1.459      2.351
REMARK  Name = 
REMARK  5 active torsions:
REMARK  status: ('A' for Active; 'I' for Inactive)
REMARK    1  A    between atoms: C_1  and  C_2
REMARK    2  A    between atoms: C_5  and  N_6
REMARK    3  A    between atoms: N_9  and  C_10
REMARK    4  A    between atoms: C_11  and  C_12
REMARK    5  A    between atoms: C_17  and  C_18
REMARK                            x       y       z     vdW  Elec       q    Type
REMARK                         _______ _______ _______ _____ _____    ______ ____
ROOT
ATOM      1  N   UNL     1       1.844   6.810  20.910  0.00  0.00    +0.000 N 
ATOM      2  C   UNL     1       1.303   8.083  20.876  0.00  0.00    +0.000 C 
ATOM      3  O   UNL     1       1.236   8.806  19.885  0.00  0.00    +0.000 OA
ATOM      4  N   UNL     1       0.810   8.522  22.098  0.00  0.00    +0.000 N 
ATOM      5  H   UNL     1       1.839   6.340  21.797  0.00  0.00    +0.000 HD
ATOM      6  H   UNL     1       0.866   7.935  22.916  0.00  0.00    +0.000 HD
ENDROOT
BRANCH   1  11
ATOM      7  C   UNL     1       4.238   4.078  16.416  0.00  0.00    +0.000 C 
ATOM      8  C   UNL     1       3.605   4.776  17.581  0.00  0.00    +0.000 A 
ATOM      9  C   UNL     1       3.994   6.063  17.917  0.00  0.00    +0.000 A 
ATOM     10  C   UNL     1       3.408   6.714  19.003  0.00  0.00    +0.000 A 
ATOM     11  C   UNL     1       2.415   6.117  19.799  0.00  0.00    +0.000 A 
ATOM     12  C   UNL     1       2.008   4.809  19.458  0.00  0.00    +0.000 A 
ATOM     13  C   UNL     1       0.959   4.010  20.185  0.00  0.00    +0.000 C 
ATOM     14  C   UNL     1       2.615   4.159  18.353  0.00  0.00    +0.000 A 
ENDBRANCH   1  11
BRANCH   4  15
ATOM     15  C   UNL     1       0.233   9.775  22.192  0.00  0.00    +0.000 C 
ATOM     16  C   UNL     1      -0.692  10.162  23.077  0.00  0.00    +0.000 C 
BRANCH  16  17
ATOM     17  C   UNL     1      -1.179  11.505  23.013  0.00  0.00    +0.000 A 
ATOM     18  C   UNL     1      -2.482  11.984  23.086  0.00  0.00    +0.000 A 
ATOM     19  C   UNL     1      -2.441  13.398  22.964  0.00  0.00    +0.000 A 
ATOM     20  C   UNL     1      -1.118  13.723  22.823  0.00  0.00    +0.000 A 
ATOM     21  O   UNL     1      -0.358  12.606  22.852  0.00  0.00    +0.000 OA
ENDBRANCH  16  17
ENDBRANCH   4  15
TORSDOF 3
ENDMDL
