MODEL 1
REMARK VINA RESULT:      -8.0      0.000      0.000
REMARK  Name = 
REMARK  2 active torsions:
REMARK  status: ('A' for Active; 'I' for Inactive)
REMARK    1  A    between atoms: C_2  and  O_3
REMARK    2  A    between atoms: C_2  and  C_4
REMARK                            x       y       z     vdW  Elec       q    Type
REMARK                         _______ _______ _______ _____ _____    ______ ____
ROOT
ATOM      1  C   UNL     1       6.206   4.448  15.944  0.00  0.00    +0.000 A 
ATOM      2  C   UNL     1       7.068   4.820  17.078  0.00  0.00    +0.000 A 
ATOM      3  C   UNL     1       6.510   4.763  18.287  0.00  0.00    +0.000 A 
ATOM      4  C   UNL     1       5.106   4.332  18.449  0.00  0.00    +0.000 A 
ATOM      5  N   UNL     1       4.614   4.261  19.647  0.00  0.00    +0.000 NA
ATOM      6  C   UNL     1       3.289   3.830  19.791  0.00  0.00    +0.000 A 
ATOM      7  C   UNL     1       2.757   3.725  21.079  0.00  0.00    +0.000 A 
ATOM      8  C   UNL     1       1.445   3.288  21.274  0.00  0.00    +0.000 A 
ATOM      9  C   UNL     1       0.651   2.949  20.180  0.00  0.00    +0.000 A 
ATOM     10  C   UNL     1       1.168   3.051  18.889  0.00  0.00    +0.000 A 
ATOM     11  C   UNL     1       2.486   3.493  18.700  0.00  0.00    +0.000 A 
ATOM     12  C   UNL     1       3.065   3.605  17.347  0.00  0.00    +0.000 A 
ATOM     13  O   UNL     1       2.377   3.328  16.368  0.00  0.00    +0.000 OA
ATOM     14  N   UNL     1       4.399   4.023  17.295  0.00  0.00    +0.000 N 
ATOM     15  N   UNL     1       4.965   4.082  16.025  0.00  0.00    +0.000 NA
ENDROOT
BRANCH   1  17
ATOM     16  O   UNL     1       7.645   5.344  14.226  0.00  0.00    +0.000 OA
ATOM     17  C   UNL     1       6.844   4.491  14.555  0.00  0.00    +0.000 C 
BRANCH  17  18
ATOM     18  O   UNL     1       6.414   3.482  13.777  0.00  0.00    +0.000 OA
ATOM     19  H   UNL     1       7.083   2.759  13.758  0.00  0.00    +0.000 HD
ENDBRANCH  17  18
ENDBRANCH   1  17
TORSDOF 2
ENDMDL
MODEL 2
REMARK VINA RESULT:      -8.0      1.439      1.505
REMARK  Name = 
REMARK  2 active torsions:
REMARK  status: ('A' for Active; 'I' for Inactive)
REMARK    1  A    between atoms: C_2  and  O_3
REMARK    2  A    between atoms: C_2  and  C_4
REMARK                            x       y       z     vdW  Elec       q    Type
REMARK                         _______ _______ _______ _____ _____    ______ ____
ROOT
ATOM      1  C   UNL     1       5.725   4.937  15.524  0.00  0.00    +0.000 A 
ATOM      2  C   UNL     1       5.475   6.353  15.838  0.00  0.00    +0.000 A 
ATOM      3  C   UNL     1       4.610   6.596  16.822  0.00  0.00    +0.000 A 
ATOM      4  C   UNL     1       3.965   5.483  17.550  0.00  0.00    +0.000 A 
ATOM      5  N   UNL     1       3.154   5.766  18.522  0.00  0.00    +0.000 NA
ATOM      6  C   UNL     1       2.565   4.703  19.219  0.00  0.00    +0.000 A 
ATOM      7  C   UNL     1       1.710   4.996  20.285  0.00  0.00    +0.000 A 
ATOM      8  C   UNL     1       1.108   3.971  21.018  0.00  0.00    +0.000 A 
ATOM      9  C   UNL     1       1.360   2.639  20.692  0.00  0.00    +0.000 A 
ATOM     10  C   UNL     1       2.209   2.332  19.630  0.00  0.00    +0.000 A 
ATOM     11  C   UNL     1       2.807   3.367  18.896  0.00  0.00    +0.000 A 
ATOM     12  C   UNL     1       3.717   3.076  17.771  0.00  0.00    +0.000 A 
ATOM     13  O   UNL     1       3.937   1.908  17.456  0.00  0.00    +0.000 OA
ATOM     14  N   UNL     1       4.276   4.193  17.143  0.00  0.00    +0.000 N 
ATOM     15  N   UNL     1       5.174   3.922  16.113  0.00  0.00    +0.000 NA
ENDROOT
BRANCH   1  17
ATOM     16  O   UNL     1       7.681   5.371  14.179  0.00  0.00    +0.000 OA
ATOM     17  C   UNL     1       6.731   4.648  14.409  0.00  0.00    +0.000 C 
BRANCH  17  18
ATOM     18  O   UNL     1       6.430   3.518  13.745  0.00  0.00    +0.000 OA
ATOM     19  H   UNL     1       5.953   3.732  12.910  0.00  0.00    +0.000 HD
ENDBRANCH  17  18
ENDBRANCH   1  17
TORSDOF 2
ENDMDL
MODEL 3
REMARK VINA RESULT:      -7.4      2.430      6.260
REMARK  Name = 
REMARK  2 active torsions:
REMARK  status: ('A' for Active; 'I' for Inactive)
REMARK    1  A    between atoms: C_2  and  O_3
REMARK    2  A    between atoms: C_2  and  C_4
REMARK                            x       y       z     vdW  Elec       q    Type
REMARK                         _______ _______ _______ _____ _____    ______ ____
ROOT
ATOM      1  C   UNL     1       2.508   3.012  19.980  0.00  0.00    +0.000 A 
ATOM      2  C   UNL     1       1.551   2.762  18.890  0.00  0.00    +0.000 A 
ATOM      3  C   UNL     1       1.978   3.026  17.656  0.00  0.00    +0.000 A 
ATOM      4  C   UNL     1       3.349   3.527  17.425  0.00  0.00    +0.000 A 
ATOM      5  N   UNL     1       3.733   3.741  16.205  0.00  0.00    +0.000 NA
ATOM      6  C   UNL     1       5.042   4.195  15.996  0.00  0.00    +0.000 A 
ATOM      7  C   UNL     1       5.475   4.403  14.683  0.00  0.00    +0.000 A 
ATOM      8  C   UNL     1       6.775   4.843  14.423  0.00  0.00    +0.000 A 
ATOM      9  C   UNL     1       7.656   5.077  15.477  0.00  0.00    +0.000 A 
ATOM     10  C   UNL     1       7.237   4.875  16.792  0.00  0.00    +0.000 A 
ATOM     11  C   UNL     1       5.930   4.437  17.045  0.00  0.00    +0.000 A 
ATOM     12  C   UNL     1       5.458   4.206  18.424  0.00  0.00    +0.000 A 
ATOM     13  O   UNL     1       6.214   4.424  19.368  0.00  0.00    +0.000 OA
ATOM     14  N   UNL     1       4.146   3.735  18.542  0.00  0.00    +0.000 N 
ATOM     15  N   UNL     1       3.713   3.469  19.838  0.00  0.00    +0.000 NA
ENDROOT
BRANCH   1  17
ATOM     16  O   UNL     1       2.795   2.377  22.290  0.00  0.00    +0.000 OA
ATOM     17  C   UNL     1       2.033   2.692  21.397  0.00  0.00    +0.000 C 
BRANCH  17  18
ATOM     18  O   UNL     1       0.698   2.811  21.515  0.00  0.00    +0.000 OA
ATOM     19  H   UNL     1       0.471   3.656  21.968  0.00  0.00    +0.000 HD
ENDBRANCH  17  18
ENDBRANCH   1  17
TORSDOF 2
ENDMDL
MODEL 4
REMARK VINA RESULT:      -7.3      2.343      3.064
REMARK  Name = 
REMARK  2 active torsions:
REMARK  status: ('A' for Active; 'I' for Inactive)
REMARK    1  A    between atoms: C_2  and  O_3
REMARK    2  A    between atoms: C_2  and  C_4
REMARK                            x       y       z     vdW  Elec       q    Type
REMARK                         _______ _______ _______ _____ _____    ______ ____
ROOT
ATOM      1  C   UNL     1       6.747   6.178  17.727  0.00  0.00    +0.000 A 
ATOM      2  C   UNL     1       7.053   5.129  16.742  0.00  0.00    +0.000 A 
ATOM      3  C   UNL     1       6.175   4.132  16.648  0.00  0.00    +0.000 A 
ATOM      4  C   UNL     1       4.960   4.116  17.490  0.00  0.00    +0.000 A 
ATOM      5  N   UNL     1       4.116   3.143  17.343  0.00  0.00    +0.000 NA
ATOM      6  C   UNL     1       2.958   3.150  18.131  0.00  0.00    +0.000 A 
ATOM      7  C   UNL     1       2.029   2.119  17.962  0.00  0.00    +0.000 A 
ATOM      8  C   UNL     1       0.853   2.089  18.715  0.00  0.00    +0.000 A 
ATOM      9  C   UNL     1       0.594   3.095  19.645  0.00  0.00    +0.000 A 
ATOM     10  C   UNL     1       1.513   4.128  19.826  0.00  0.00    +0.000 A 
ATOM     11  C   UNL     1       2.693   4.150  19.068  0.00  0.00    +0.000 A 
ATOM     12  C   UNL     1       3.682   5.233  19.230  0.00  0.00    +0.000 A 
ATOM     13  O   UNL     1       3.480   6.119  20.057  0.00  0.00    +0.000 OA
ATOM     14  N   UNL     1       4.799   5.160  18.391  0.00  0.00    +0.000 N 
ATOM     15  N   UNL     1       5.710   6.207  18.505  0.00  0.00    +0.000 NA
ENDROOT
BRANCH   1  17
ATOM     16  O   UNL     1       7.800   8.223  16.998  0.00  0.00    +0.000 OA
ATOM     17  C   UNL     1       7.740   7.336  17.827  0.00  0.00    +0.000 C 
BRANCH  17  18
ATOM     18  O   UNL     1       8.508   7.242  18.927  0.00  0.00    +0.000 OA
ATOM     19  H   UNL     1       8.245   6.454  19.458  0.00  0.00    +0.000 HD
ENDBRANCH  17  18
ENDBRANCH   1  17
TORSDOF 2
ENDMDL
MODEL 5
REMARK VINA RESULT:      -7.2      3.807      5.207
REMARK  Name = 
REMARK  2 active torsions:
REMARK  status: ('A' for Active; 'I' for Inactive)
REMARK    1  A    between atoms: C_2  and  O_3
REMARK    2  A    between atoms: C_2  and  C_4
REMARK                            x       y       z     vdW  Elec       q    Type
REMARK                         _______ _______ _______ _____ _____    ______ ____
ROOT
ATOM      1  C   UNL     1       3.495   3.124  19.704  0.00  0.00    +0.000 A 
ATOM      2  C   UNL     1       2.755   3.162  20.975  0.00  0.00    +0.000 A 
ATOM      3  C   UNL     1       2.171   4.318  21.285  0.00  0.00    +0.000 A 
ATOM      4  C   UNL     1       2.265   5.478  20.373  0.00  0.00    +0.000 A 
ATOM      5  N   UNL     1       1.654   6.574  20.700  0.00  0.00    +0.000 NA
ATOM      6  C   UNL     1       1.732   7.660  19.818  0.00  0.00    +0.000 A 
ATOM      7  C   UNL     1       1.055   8.837  20.147  0.00  0.00    +0.000 A 
ATOM      8  C   UNL     1       1.092   9.943  19.294  0.00  0.00    +0.000 A 
ATOM      9  C   UNL     1       1.807   9.879  18.099  0.00  0.00    +0.000 A 
ATOM     10  C   UNL     1       2.488   8.711  17.759  0.00  0.00    +0.000 A 
ATOM     11  C   UNL     1       2.449   7.606  18.622  0.00  0.00    +0.000 A 
ATOM     12  C   UNL     1       3.153   6.353  18.287  0.00  0.00    +0.000 A 
ATOM     13  O   UNL     1       3.803   6.282  17.247  0.00  0.00    +0.000 OA
ATOM     14  N   UNL     1       3.007   5.314  19.212  0.00  0.00    +0.000 N 
ATOM     15  N   UNL     1       3.628   4.113  18.876  0.00  0.00    +0.000 NA
ENDROOT
BRANCH   1  17
ATOM     16  O   UNL     1       3.733   1.082  18.440  0.00  0.00    +0.000 OA
ATOM     17  C   UNL     1       4.152   1.795  19.331  0.00  0.00    +0.000 C 
BRANCH  17  18
ATOM     18  O   UNL     1       5.226   1.537  20.098  0.00  0.00    +0.000 OA
ATOM     19  H   UNL     1       5.034   1.763  21.038  0.00  0.00    +0.000 HD
ENDBRANCH  17  18
ENDBRANCH   1  17
TORSDOF 2
ENDMDL
MODEL 6
REMARK VINA RESULT:      -7.0      2.680      5.701
REMARK  Name = 
REMARK  2 active torsions:
REMARK  status: ('A' for Active; 'I' for Inactive)
REMARK    1  A    between atoms: C_2  and  O_3
REMARK    2  A    between atoms: C_2  and  C_4
REMARK                            x       y       z     vdW  Elec       q    Type
REMARK                         _______ _______ _______ _____ _____    ______ ____
ROOT
ATOM      1  C   UNL     1       2.251   3.131  19.122  0.00  0.00    +0.000 A 
ATOM      2  C   UNL     1       3.203   2.264  19.837  0.00  0.00    +0.000 A 
ATOM      3  C   UNL     1       4.471   2.671  19.858  0.00  0.00    +0.000 A 
ATOM      4  C   UNL     1       4.868   3.935  19.204  0.00  0.00    +0.000 A 
ATOM      5  N   UNL     1       6.108   4.309  19.276  0.00  0.00    +0.000 NA
ATOM      6  C   UNL     1       6.468   5.519  18.671  0.00  0.00    +0.000 A 
ATOM      7  C   UNL     1       7.797   5.944  18.766  0.00  0.00    +0.000 A 
ATOM      8  C   UNL     1       8.202   7.150  18.190  0.00  0.00    +0.000 A 
ATOM      9  C   UNL     1       7.279   7.946  17.514  0.00  0.00    +0.000 A 
ATOM     10  C   UNL     1       5.951   7.534  17.410  0.00  0.00    +0.000 A 
ATOM     11  C   UNL     1       5.552   6.320  17.988  0.00  0.00    +0.000 A 
ATOM     12  C   UNL     1       4.152   5.859  17.903  0.00  0.00    +0.000 A 
ATOM     13  O   UNL     1       3.327   6.538  17.296  0.00  0.00    +0.000 OA
ATOM     14  N   UNL     1       3.874   4.651  18.550  0.00  0.00    +0.000 N 
ATOM     15  N   UNL     1       2.545   4.237  18.515  0.00  0.00    +0.000 NA
ENDROOT
BRANCH   1  17
ATOM     16  O   UNL     1       0.329   1.970  18.239  0.00  0.00    +0.000 OA
ATOM     17  C   UNL     1       0.790   2.682  19.111  0.00  0.00    +0.000 C 
BRANCH  17  18
ATOM     18  O   UNL     1       0.111   3.163  20.166  0.00  0.00    +0.000 OA
ATOM     19  H   UNL     1      -0.063   2.442  20.815  0.00  0.00    +0.000 HD
ENDBRANCH  17  18
ENDBRANCH   1  17
TORSDOF 2
ENDMDL
MODEL 7
REMARK VINA RESULT:      -6.9      2.266      2.728
REMARK  Name = 
REMARK  2 active torsions:
REMARK  status: ('A' for Active; 'I' for Inactive)
REMARK    1  A    between atoms: C_2  and  O_3
REMARK    2  A    between atoms: C_2  and  C_4
REMARK                            x       y       z     vdW  Elec       q    Type
REMARK                         _______ _______ _______ _____ _____    ______ ____
ROOT
ATOM      1  C   UNL     1       5.868   6.398  17.224  0.00  0.00    +0.000 A 
ATOM      2  C   UNL     1       4.730   7.267  16.881  0.00  0.00    +0.000 A 
ATOM      3  C   UNL     1       3.554   6.937  17.412  0.00  0.00    +0.000 A 
ATOM      4  C   UNL     1       3.432   5.766  18.306  0.00  0.00    +0.000 A 
ATOM      5  N   UNL     1       2.274   5.501  18.826  0.00  0.00    +0.000 NA
ATOM      6  C   UNL     1       2.175   4.401  19.688  0.00  0.00    +0.000 A 
ATOM      7  C   UNL     1       0.937   4.122  20.275  0.00  0.00    +0.000 A 
ATOM      8  C   UNL     1       0.792   3.045  21.151  0.00  0.00    +0.000 A 
ATOM      9  C   UNL     1       1.886   2.236  21.452  0.00  0.00    +0.000 A 
ATOM     10  C   UNL     1       3.126   2.502  20.873  0.00  0.00    +0.000 A 
ATOM     11  C   UNL     1       3.265   3.584  19.991  0.00  0.00    +0.000 A 
ATOM     12  C   UNL     1       4.565   3.896  19.367  0.00  0.00    +0.000 A 
ATOM     13  O   UNL     1       5.538   3.185  19.605  0.00  0.00    +0.000 OA
ATOM     14  N   UNL     1       4.581   5.021  18.535  0.00  0.00    +0.000 N 
ATOM     15  N   UNL     1       5.816   5.349  17.984  0.00  0.00    +0.000 NA
ENDROOT
BRANCH   1  17
ATOM     16  O   UNL     1       7.858   7.746  17.017  0.00  0.00    +0.000 OA
ATOM     17  C   UNL     1       7.226   6.781  16.635  0.00  0.00    +0.000 C 
BRANCH  17  18
ATOM     18  O   UNL     1       7.611   5.925  15.672  0.00  0.00    +0.000 OA
ATOM     19  H   UNL     1       7.942   5.088  16.075  0.00  0.00    +0.000 HD
ENDBRANCH  17  18
ENDBRANCH   1  17
TORSDOF 2
ENDMDL
MODEL 8
REMARK VINA RESULT:      -6.9      3.942      4.979
REMARK  Name = 
REMARK  2 active torsions:
REMARK  status: ('A' for Active; 'I' for Inactive)
REMARK    1  A    between atoms: C_2  and  O_3
REMARK    2  A    between atoms: C_2  and  C_4
REMARK                            x       y       z     vdW  Elec       q    Type
REMARK                         _______ _______ _______ _____ _____    ______ ____
ROOT
ATOM      1  C   UNL     1       4.112   3.307  18.902  0.00  0.00    +0.000 A 
ATOM      2  C   UNL     1       4.625   3.678  17.573  0.00  0.00    +0.000 A 
ATOM      3  C   UNL     1       4.301   4.892  17.132  0.00  0.00    +0.000 A 
ATOM      4  C   UNL     1       3.482   5.801  17.962  0.00  0.00    +0.000 A 
ATOM      5  N   UNL     1       3.216   6.986  17.507  0.00  0.00    +0.000 NA
ATOM      6  C   UNL     1       2.457   7.846  18.310  0.00  0.00    +0.000 A 
ATOM      7  C   UNL     1       2.188   9.135  17.840  0.00  0.00    +0.000 A 
ATOM      8  C   UNL     1       1.446  10.033  18.611  0.00  0.00    +0.000 A 
ATOM      9  C   UNL     1       0.968   9.650  19.863  0.00  0.00    +0.000 A 
ATOM     10  C   UNL     1       1.228   8.367  20.344  0.00  0.00    +0.000 A 
ATOM     11  C   UNL     1       1.971   7.469  19.563  0.00  0.00    +0.000 A 
ATOM     12  C   UNL     1       2.269   6.107  20.046  0.00  0.00    +0.000 A 
ATOM     13  O   UNL     1       1.842   5.744  21.139  0.00  0.00    +0.000 OA
ATOM     14  N   UNL     1       3.048   5.321  19.191  0.00  0.00    +0.000 N 
ATOM     15  N   UNL     1       3.375   4.053  19.663  0.00  0.00    +0.000 NA
ENDROOT
BRANCH   1  17
ATOM     16  O   UNL     1       5.030   1.752  20.504  0.00  0.00    +0.000 OA
ATOM     17  C   UNL     1       4.497   1.923  19.424  0.00  0.00    +0.000 C 
BRANCH  17  18
ATOM     18  O   UNL     1       4.169   0.952  18.553  0.00  0.00    +0.000 OA
ATOM     19  H   UNL     1       4.952   0.382  18.371  0.00  0.00    +0.000 HD
ENDBRANCH  17  18
ENDBRANCH   1  17
TORSDOF 2
ENDMDL
MODEL 9
REMARK VINA RESULT:      -6.6      2.410      5.963
REMARK  Name = 
REMARK  2 active torsions:
REMARK  status: ('A' for Active; 'I' for Inactive)
REMARK    1  A    between atoms: C_2  and  O_3
REMARK    2  A    between atoms: C_2  and  C_4
REMARK                            x       y       z     vdW  Elec       q    Type
REMARK                         _______ _______ _______ _____ _____    ______ ____
ROOT
ATOM      1  C   UNL     1       2.291   3.981  20.269  0.00  0.00    +0.000 A 
ATOM      2  C   UNL     1       2.264   5.447  20.396  0.00  0.00    +0.000 A 
ATOM      3  C   UNL     1       2.954   6.131  19.484  0.00  0.00    +0.000 A 
ATOM      4  C   UNL     1       3.683   5.429  18.408  0.00  0.00    +0.000 A 
ATOM      5  N   UNL     1       4.315   6.135  17.523  0.00  0.00    +0.000 NA
ATOM      6  C   UNL     1       4.985   5.460  16.495  0.00  0.00    +0.000 A 
ATOM      7  C   UNL     1       5.647   6.213  15.521  0.00  0.00    +0.000 A 
ATOM      8  C   UNL     1       6.318   5.585  14.469  0.00  0.00    +0.000 A 
ATOM      9  C   UNL     1       6.330   4.194  14.380  0.00  0.00    +0.000 A 
ATOM     10  C   UNL     1       5.675   3.430  15.345  0.00  0.00    +0.000 A 
ATOM     11  C   UNL     1       5.006   4.067  16.401  0.00  0.00    +0.000 A 
ATOM     12  C   UNL     1       4.297   3.288  17.434  0.00  0.00    +0.000 A 
ATOM     13  O   UNL     1       4.311   2.060  17.383  0.00  0.00    +0.000 OA
ATOM     14  N   UNL     1       3.639   4.041  18.412  0.00  0.00    +0.000 N 
ATOM     15  N   UNL     1       2.927   3.311  19.360  0.00  0.00    +0.000 NA
ENDROOT
BRANCH   1  17
ATOM     16  O   UNL     1       1.865   3.022  22.443  0.00  0.00    +0.000 OA
ATOM     17  C   UNL     1       1.485   3.189  21.300  0.00  0.00    +0.000 C 
BRANCH  17  18
ATOM     18  O   UNL     1       0.335   2.723  20.783  0.00  0.00    +0.000 OA
ATOM     19  H   UNL     1      -0.311   2.538  21.505  0.00  0.00    +0.000 HD
ENDBRANCH  17  18
ENDBRANCH   1  17
TORSDOF 2
ENDMDL
