MODEL 1
REMARK VINA RESULT:      -8.0      0.000      0.000
REMARK  Name = 
REMARK  14 active torsions:
REMARK  status: ('A' for Active; 'I' for Inactive)
REMARK    1  A    between atoms: C_1  and  O_2
REMARK    2  A    between atoms: O_2  and  C_3
REMARK    3  A    between atoms: C_12  and  C_13
REMARK    4  A    between atoms: C_16  and  C_17
REMARK    5  A    between atoms: C_17  and  N_18
REMARK    6  A    between atoms: C_17  and  C_19
REMARK    7  A    between atoms: C_19  and  C_20
REMARK    8  A    between atoms: C_20  and  C_21
REMARK    9  A    between atoms: C_21  and  C_22
REMARK   10  A    between atoms: C_22  and  C_23
REMARK   11  A    between atoms: C_23  and  C_24
REMARK   12  A    between atoms: C_24  and  C_26
REMARK   13  A    between atoms: C_29  and  C_30
REMARK   14  A    between atoms: C_30  and  O_31
REMARK                            x       y       z     vdW  Elec       q    Type
REMARK                         _______ _______ _______ _____ _____    ______ ____
ROOT
ATOM      1  C   UNL     1       3.132   2.326  20.215  0.00  0.00    +0.000 C 
ENDROOT
BRANCH   1   5
ATOM      2  C   UNL     1       5.380   4.252  18.045  0.00  0.00    +0.000 A 
ATOM      3  C   UNL     1       5.466   4.903  19.262  0.00  0.00    +0.000 A 
ATOM      4  N   UNL     1       4.703   4.293  20.223  0.00  0.00    +0.000 NA
ATOM      5  C   UNL     1       4.112   3.287  19.612  0.00  0.00    +0.000 A 
ATOM      6  N   UNL     1       4.493   3.227  18.298  0.00  0.00    +0.000 N 
ATOM      7  H   UNL     1       4.186   2.542  17.616  0.00  0.00    +0.000 HD
BRANCH   2  17
ATOM      8  C   UNL     1       7.047   5.428  16.540  0.00  0.00    +0.000 A 
ATOM      9  N   UNL     1       7.604   5.691  15.332  0.00  0.00    +0.000 NA
ATOM     10  C   UNL     1       7.191   4.979  14.272  0.00  0.00    +0.000 A 
ATOM     11  C   UNL     1       7.716   5.251  13.016  0.00  0.00    +0.000 A 
ATOM     12  C   UNL     1       7.325   4.529  11.884  0.00  0.00    +0.000 A 
ATOM     13  C   UNL     1       6.391   3.507  12.002  0.00  0.00    +0.000 A 
ATOM     14  C   UNL     1       5.841   3.222  13.248  0.00  0.00    +0.000 A 
ATOM     15  C   UNL     1       6.228   3.957  14.382  0.00  0.00    +0.000 A 
ATOM     16  C   UNL     1       5.666   3.714  15.642  0.00  0.00    +0.000 A 
ATOM     17  C   UNL     1       6.050   4.469  16.757  0.00  0.00    +0.000 A 
BRANCH   8  19
ATOM     18  C   UNL     1       7.489   7.574  17.396  0.00  0.00    +0.000 C 
ATOM     19  O   UNL     1       7.480   6.168  17.630  0.00  0.00    +0.000 OA
ENDBRANCH   8  19
ENDBRANCH   2  17
ENDBRANCH   1   5
BRANCH   1  20
ATOM     20  N   UNL     1       3.234   2.377  21.679  0.00  0.00    +0.000 NA
ATOM     21  H   UNL     1       4.232   2.312  21.906  0.00  0.00    +0.000 HD
ATOM     22  H   UNL     1       2.835   1.518  22.059  0.00  0.00    +0.000 HD
ENDBRANCH   1  20
BRANCH   1  23
ATOM     23  C   UNL     1       1.696   2.688  19.794  0.00  0.00    +0.000 C 
BRANCH  23  24
ATOM     24  C   UNL     1       1.014   3.725  20.704  0.00  0.00    +0.000 C 
BRANCH  24  25
ATOM     25  C   UNL     1       0.930   5.136  20.114  0.00  0.00    +0.000 C 
BRANCH  25  26
ATOM     26  C   UNL     1       1.908   6.113  20.777  0.00  0.00    +0.000 C 
BRANCH  26  27
ATOM     27  C   UNL     1       1.350   7.529  20.892  0.00  0.00    +0.000 C 
BRANCH  27  28
ATOM     28  C   UNL     1       1.670   8.357  19.657  0.00  0.00    +0.000 C 
ATOM     29  O   UNL     1       2.474   7.929  18.823  0.00  0.00    +0.000 OA
BRANCH  28  30
ATOM     30  C   UNL     1       0.940   9.601  19.505  0.00  0.00    +0.000 A 
ATOM     31  N   UNL     1       1.134  10.714  20.191  0.00  0.00    +0.000 NA
ATOM     32  C   UNL     1       0.184  11.574  19.702  0.00  0.00    +0.000 A 
ATOM     33  C   UNL     1      -0.557  10.952  18.725  0.00  0.00    +0.000 A 
ATOM     34  O   UNL     1      -0.076   9.678  18.584  0.00  0.00    +0.000 OA
BRANCH  33  35
ATOM     35  C   UNL     1      -1.678  11.360  17.858  0.00  0.00    +0.000 C 
BRANCH  35  36
ATOM     36  O   UNL     1      -1.362  12.630  17.304  0.00  0.00    +0.000 OA
ATOM     37  H   UNL     1      -2.076  12.841  16.677  0.00  0.00    +0.000 HD
ENDBRANCH  35  36
ENDBRANCH  33  35
ENDBRANCH  28  30
ENDBRANCH  27  28
ENDBRANCH  26  27
ENDBRANCH  25  26
ENDBRANCH  24  25
ENDBRANCH  23  24
ENDBRANCH   1  23
TORSDOF 13
ENDMDL
MODEL 2
REMARK VINA RESULT:      -8.0      2.673      2.981
REMARK  Name = 
REMARK  14 active torsions:
REMARK  status: ('A' for Active; 'I' for Inactive)
REMARK    1  A    between atoms: C_1  and  O_2
REMARK    2  A    between atoms: O_2  and  C_3
REMARK    3  A    between atoms: C_12  and  C_13
REMARK    4  A    between atoms: C_16  and  C_17
REMARK    5  A    between atoms: C_17  and  N_18
REMARK    6  A    between atoms: C_17  and  C_19
REMARK    7  A    between atoms: C_19  and  C_20
REMARK    8  A    between atoms: C_20  and  C_21
REMARK    9  A    between atoms: C_21  and  C_22
REMARK   10  A    between atoms: C_22  and  C_23
REMARK   11  A    between atoms: C_23  and  C_24
REMARK   12  A    between atoms: C_24  and  C_26
REMARK   13  A    between atoms: C_29  and  C_30
REMARK   14  A    between atoms: C_30  and  O_31
REMARK                            x       y       z     vdW  Elec       q    Type
REMARK                         _______ _______ _______ _____ _____    ______ ____
ROOT
ATOM      1  C   UNL     1       1.158   3.942  19.253  0.00  0.00    +0.000 C 
ENDROOT
BRANCH   1   5
ATOM      2  C   UNL     1       4.511   4.015  17.764  0.00  0.00    +0.000 A 
ATOM      3  C   UNL     1       4.703   3.358  18.967  0.00  0.00    +0.000 A 
ATOM      4  N   UNL     1       3.530   3.207  19.659  0.00  0.00    +0.000 NA
ATOM      5  C   UNL     1       2.612   3.792  18.920  0.00  0.00    +0.000 A 
ATOM      6  N   UNL     1       3.161   4.292  17.770  0.00  0.00    +0.000 N 
ATOM      7  H   UNL     1       2.666   4.782  17.032  0.00  0.00    +0.000 HD
BRANCH   2  17
ATOM      8  C   UNL     1       6.420   5.324  16.730  0.00  0.00    +0.000 A 
ATOM      9  N   UNL     1       7.201   5.693  15.685  0.00  0.00    +0.000 NA
ATOM     10  C   UNL     1       7.026   5.071  14.509  0.00  0.00    +0.000 A 
ATOM     11  C   UNL     1       7.787   5.452  13.411  0.00  0.00    +0.000 A 
ATOM     12  C   UNL     1       7.648   4.826  12.168  0.00  0.00    +0.000 A 
ATOM     13  C   UNL     1       6.733   3.792  12.011  0.00  0.00    +0.000 A 
ATOM     14  C   UNL     1       5.950   3.399  13.092  0.00  0.00    +0.000 A 
ATOM     15  C   UNL     1       6.085   4.038  14.337  0.00  0.00    +0.000 A 
ATOM     16  C   UNL     1       5.287   3.685  15.433  0.00  0.00    +0.000 A 
ATOM     17  C   UNL     1       5.421   4.344  16.660  0.00  0.00    +0.000 A 
BRANCH   8  19
ATOM     18  C   UNL     1       7.733   5.495  18.674  0.00  0.00    +0.000 C 
ATOM     19  O   UNL     1       6.607   5.972  17.941  0.00  0.00    +0.000 OA
ENDBRANCH   8  19
ENDBRANCH   2  17
ENDBRANCH   1   5
BRANCH   1  20
ATOM     20  N   UNL     1       0.583   2.623  19.544  0.00  0.00    +0.000 NA
ATOM     21  H   UNL     1       0.339   2.623  20.540  0.00  0.00    +0.000 HD
ATOM     22  H   UNL     1       1.323   1.926  19.468  0.00  0.00    +0.000 HD
ENDBRANCH   1  20
BRANCH   1  23
ATOM     23  C   UNL     1       0.979   4.854  20.482  0.00  0.00    +0.000 C 
BRANCH  23  24
ATOM     24  C   UNL     1       1.987   6.014  20.559  0.00  0.00    +0.000 C 
BRANCH  24  25
ATOM     25  C   UNL     1       1.396   7.396  20.265  0.00  0.00    +0.000 C 
BRANCH  25  26
ATOM     26  C   UNL     1       1.487   8.345  21.465  0.00  0.00    +0.000 C 
BRANCH  26  27
ATOM     27  C   UNL     1       0.675   9.624  21.275  0.00  0.00    +0.000 C 
BRANCH  27  28
ATOM     28  C   UNL     1       0.060  10.094  22.585  0.00  0.00    +0.000 C 
ATOM     29  O   UNL     1       0.496   9.664  23.657  0.00  0.00    +0.000 OA
BRANCH  28  30
ATOM     30  C   UNL     1      -0.984  11.096  22.486  0.00  0.00    +0.000 A 
ATOM     31  N   UNL     1      -1.091  12.030  21.556  0.00  0.00    +0.000 NA
ATOM     32  C   UNL     1      -2.212  12.732  21.920  0.00  0.00    +0.000 A 
ATOM     33  C   UNL     1      -2.755  12.194  23.062  0.00  0.00    +0.000 A 
ATOM     34  O   UNL     1      -1.975  11.133  23.436  0.00  0.00    +0.000 OA
BRANCH  33  35
ATOM     35  C   UNL     1      -3.931  12.507  23.896  0.00  0.00    +0.000 C 
BRANCH  35  36
ATOM     36  O   UNL     1      -5.082  12.455  23.065  0.00  0.00    +0.000 OA
ATOM     37  H   UNL     1      -5.464  13.350  23.069  0.00  0.00    +0.000 HD
ENDBRANCH  35  36
ENDBRANCH  33  35
ENDBRANCH  28  30
ENDBRANCH  27  28
ENDBRANCH  26  27
ENDBRANCH  25  26
ENDBRANCH  24  25
ENDBRANCH  23  24
ENDBRANCH   1  23
TORSDOF 13
ENDMDL
MODEL 3
REMARK VINA RESULT:      -7.9      2.744      9.363
REMARK  Name = 
REMARK  14 active torsions:
REMARK  status: ('A' for Active; 'I' for Inactive)
REMARK    1  A    between atoms: C_1  and  O_2
REMARK    2  A    between atoms: O_2  and  C_3
REMARK    3  A    between atoms: C_12  and  C_13
REMARK    4  A    between atoms: C_16  and  C_17
REMARK    5  A    between atoms: C_17  and  N_18
REMARK    6  A    between atoms: C_17  and  C_19
REMARK    7  A    between atoms: C_19  and  C_20
REMARK    8  A    between atoms: C_20  and  C_21
REMARK    9  A    between atoms: C_21  and  C_22
REMARK   10  A    between atoms: C_22  and  C_23
REMARK   11  A    between atoms: C_23  and  C_24
REMARK   12  A    between atoms: C_24  and  C_26
REMARK   13  A    between atoms: C_29  and  C_30
REMARK   14  A    between atoms: C_30  and  O_31
REMARK                            x       y       z     vdW  Elec       q    Type
REMARK                         _______ _______ _______ _____ _____    ______ ____
ROOT
ATOM      1  C   UNL     1       2.858   6.497  18.513  0.00  0.00    +0.000 C 
ENDROOT
BRANCH   1   5
ATOM      2  C   UNL     1       1.119   9.652  19.217  0.00  0.00    +0.000 A 
ATOM      3  C   UNL     1       1.667   9.855  17.963  0.00  0.00    +0.000 A 
ATOM      4  N   UNL     1       2.339   8.749  17.514  0.00  0.00    +0.000 NA
ATOM      5  C   UNL     1       2.249   7.867  18.488  0.00  0.00    +0.000 A 
ATOM      6  N   UNL     1       1.522   8.371  19.532  0.00  0.00    +0.000 N 
ATOM      7  H   UNL     1       1.302   7.890  20.398  0.00  0.00    +0.000 HD
BRANCH   2  17
ATOM      8  C   UNL     1       0.468  10.669  21.446  0.00  0.00    +0.000 A 
ATOM      9  N   UNL     1      -0.368  11.366  22.254  0.00  0.00    +0.000 NA
ATOM     10  C   UNL     1      -1.451  11.939  21.707  0.00  0.00    +0.000 A 
ATOM     11  C   UNL     1      -2.345  12.630  22.515  0.00  0.00    +0.000 A 
ATOM     12  C   UNL     1      -3.481  13.252  21.989  0.00  0.00    +0.000 A 
ATOM     13  C   UNL     1      -3.736  13.192  20.625  0.00  0.00    +0.000 A 
ATOM     14  C   UNL     1      -2.862  12.497  19.794  0.00  0.00    +0.000 A 
ATOM     15  C   UNL     1      -1.726  11.862  20.328  0.00  0.00    +0.000 A 
ATOM     16  C   UNL     1      -0.849  11.128  19.521  0.00  0.00    +0.000 A 
ATOM     17  C   UNL     1       0.267  10.487  20.072  0.00  0.00    +0.000 A 
BRANCH   8  19
ATOM     18  C   UNL     1       1.271   9.151  23.054  0.00  0.00    +0.000 C 
ATOM     19  O   UNL     1       1.585  10.080  22.020  0.00  0.00    +0.000 OA
ENDBRANCH   8  19
ENDBRANCH   2  17
ENDBRANCH   1   5
BRANCH   1  20
ATOM     20  N   UNL     1       3.654   6.337  19.736  0.00  0.00    +0.000 NA
ATOM     21  H   UNL     1       3.055   6.631  20.516  0.00  0.00    +0.000 HD
ATOM     22  H   UNL     1       4.405   7.027  19.724  0.00  0.00    +0.000 HD
ENDBRANCH   1  20
BRANCH   1  23
ATOM     23  C   UNL     1       1.758   5.419  18.480  0.00  0.00    +0.000 C 
BRANCH  23  24
ATOM     24  C   UNL     1       1.429   4.811  19.854  0.00  0.00    +0.000 C 
BRANCH  24  25
ATOM     25  C   UNL     1       0.992   3.344  19.816  0.00  0.00    +0.000 C 
BRANCH  25  26
ATOM     26  C   UNL     1       1.957   2.420  20.567  0.00  0.00    +0.000 C 
BRANCH  26  27
ATOM     27  C   UNL     1       3.423   2.776  20.338  0.00  0.00    +0.000 C 
BRANCH  27  28
ATOM     28  C   UNL     1       3.912   2.287  18.983  0.00  0.00    +0.000 C 
ATOM     29  O   UNL     1       3.661   1.134  18.619  0.00  0.00    +0.000 OA
BRANCH  28  30
ATOM     30  C   UNL     1       4.603   3.258  18.156  0.00  0.00    +0.000 A 
ATOM     31  N   UNL     1       4.349   3.533  16.888  0.00  0.00    +0.000 NA
ATOM     32  C   UNL     1       5.284   4.482  16.562  0.00  0.00    +0.000 A 
ATOM     33  C   UNL     1       6.076   4.757  17.651  0.00  0.00    +0.000 A 
ATOM     34  O   UNL     1       5.645   3.977  18.689  0.00  0.00    +0.000 OA
BRANCH  33  35
ATOM     35  C   UNL     1       7.210   5.667  17.902  0.00  0.00    +0.000 C 
BRANCH  35  36
ATOM     36  O   UNL     1       7.507   6.341  16.687  0.00  0.00    +0.000 OA
ATOM     37  H   UNL     1       7.492   5.665  15.987  0.00  0.00    +0.000 HD
ENDBRANCH  35  36
ENDBRANCH  33  35
ENDBRANCH  28  30
ENDBRANCH  27  28
ENDBRANCH  26  27
ENDBRANCH  25  26
ENDBRANCH  24  25
ENDBRANCH  23  24
ENDBRANCH   1  23
TORSDOF 13
ENDMDL
MODEL 4
REMARK VINA RESULT:      -7.9      2.404      4.959
REMARK  Name = 
REMARK  14 active torsions:
REMARK  status: ('A' for Active; 'I' for Inactive)
REMARK    1  A    between atoms: C_1  and  O_2
REMARK    2  A    between atoms: O_2  and  C_3
REMARK    3  A    between atoms: C_12  and  C_13
REMARK    4  A    between atoms: C_16  and  C_17
REMARK    5  A    between atoms: C_17  and  N_18
REMARK    6  A    between atoms: C_17  and  C_19
REMARK    7  A    between atoms: C_19  and  C_20
REMARK    8  A    between atoms: C_20  and  C_21
REMARK    9  A    between atoms: C_21  and  C_22
REMARK   10  A    between atoms: C_22  and  C_23
REMARK   11  A    between atoms: C_23  and  C_24
REMARK   12  A    between atoms: C_24  and  C_26
REMARK   13  A    between atoms: C_29  and  C_30
REMARK   14  A    between atoms: C_30  and  O_31
REMARK                            x       y       z     vdW  Elec       q    Type
REMARK                         _______ _______ _______ _____ _____    ______ ____
ROOT
ATOM      1  C   UNL     1       1.041   8.567  22.064  0.00  0.00    +0.000 C 
ENDROOT
BRANCH   1   5
ATOM      2  C   UNL     1       2.437   7.258  18.932  0.00  0.00    +0.000 A 
ATOM      3  C   UNL     1       1.870   8.463  18.557  0.00  0.00    +0.000 A 
ATOM      4  N   UNL     1       1.319   9.122  19.624  0.00  0.00    +0.000 NA
ATOM      5  C   UNL     1       1.502   8.326  20.657  0.00  0.00    +0.000 A 
ATOM      6  N   UNL     1       2.172   7.193  20.284  0.00  0.00    +0.000 N 
ATOM      7  H   UNL     1       2.442   6.427  20.892  0.00  0.00    +0.000 HD
BRANCH   2  17
ATOM      8  C   UNL     1       3.221   4.884  18.510  0.00  0.00    +0.000 A 
ATOM      9  N   UNL     1       3.991   3.963  17.879  0.00  0.00    +0.000 NA
ATOM     10  C   UNL     1       4.769   4.372  16.865  0.00  0.00    +0.000 A 
ATOM     11  C   UNL     1       5.596   3.459  16.223  0.00  0.00    +0.000 A 
ATOM     12  C   UNL     1       6.416   3.835  15.155  0.00  0.00    +0.000 A 
ATOM     13  C   UNL     1       6.413   5.151  14.709  0.00  0.00    +0.000 A 
ATOM     14  C   UNL     1       5.602   6.089  15.342  0.00  0.00    +0.000 A 
ATOM     15  C   UNL     1       4.787   5.709  16.423  0.00  0.00    +0.000 A 
ATOM     16  C   UNL     1       3.987   6.637  17.100  0.00  0.00    +0.000 A 
ATOM     17  C   UNL     1       3.196   6.246  18.186  0.00  0.00    +0.000 A 
BRANCH   8  19
ATOM     18  C   UNL     1       1.306   3.670  19.136  0.00  0.00    +0.000 C 
ATOM     19  O   UNL     1       2.420   4.453  19.556  0.00  0.00    +0.000 OA
ENDBRANCH   8  19
ENDBRANCH   2  17
ENDBRANCH   1   5
BRANCH   1  20
ATOM     20  N   UNL     1       1.938   9.528  22.716  0.00  0.00    +0.000 NA
ATOM     21  H   UNL     1       2.891   9.288  22.420  0.00  0.00    +0.000 HD
ATOM     22  H   UNL     1       1.934   9.343  23.719  0.00  0.00    +0.000 HD
ENDBRANCH   1  20
BRANCH   1  23
ATOM     23  C   UNL     1      -0.394   9.128  22.071  0.00  0.00    +0.000 C 
BRANCH  23  24
ATOM     24  C   UNL     1      -0.718  10.017  23.284  0.00  0.00    +0.000 C 
BRANCH  24  25
ATOM     25  C   UNL     1      -1.659  11.188  22.985  0.00  0.00    +0.000 C 
BRANCH  25  26
ATOM     26  C   UNL     1      -0.963  12.549  23.099  0.00  0.00    +0.000 C 
BRANCH  26  27
ATOM     27  C   UNL     1      -0.876  13.287  21.766  0.00  0.00    +0.000 C 
BRANCH  27  28
ATOM     28  C   UNL     1      -0.016  12.531  20.765  0.00  0.00    +0.000 C 
ATOM     29  O   UNL     1       1.139  12.212  21.065  0.00  0.00    +0.000 OA
BRANCH  28  30
ATOM     30  C   UNL     1      -0.650  12.166  19.513  0.00  0.00    +0.000 A 
ATOM     31  N   UNL     1      -0.578  12.833  18.373  0.00  0.00    +0.000 NA
ATOM     32  C   UNL     1      -1.363  12.105  17.515  0.00  0.00    +0.000 A 
ATOM     33  C   UNL     1      -1.885  11.012  18.165  0.00  0.00    +0.000 A 
ATOM     34  O   UNL     1      -1.429  11.037  19.455  0.00  0.00    +0.000 OA
BRANCH  33  35
ATOM     35  C   UNL     1      -2.767   9.898  17.771  0.00  0.00    +0.000 C 
BRANCH  35  36
ATOM     36  O   UNL     1      -3.952  10.453  17.217  0.00  0.00    +0.000 OA
ATOM     37  H   UNL     1      -4.520  10.694  17.969  0.00  0.00    +0.000 HD
ENDBRANCH  35  36
ENDBRANCH  33  35
ENDBRANCH  28  30
ENDBRANCH  27  28
ENDBRANCH  26  27
ENDBRANCH  25  26
ENDBRANCH  24  25
ENDBRANCH  23  24
ENDBRANCH   1  23
TORSDOF 13
ENDMDL
MODEL 5
REMARK VINA RESULT:      -7.8      3.302     10.910
REMARK  Name = 
REMARK  14 active torsions:
REMARK  status: ('A' for Active; 'I' for Inactive)
REMARK    1  A    between atoms: C_1  and  O_2
REMARK    2  A    between atoms: O_2  and  C_3
REMARK    3  A    between atoms: C_12  and  C_13
REMARK    4  A    between atoms: C_16  and  C_17
REMARK    5  A    between atoms: C_17  and  N_18
REMARK    6  A    between atoms: C_17  and  C_19
REMARK    7  A    between atoms: C_19  and  C_20
REMARK    8  A    between atoms: C_20  and  C_21
REMARK    9  A    between atoms: C_21  and  C_22
REMARK   10  A    between atoms: C_22  and  C_23
REMARK   11  A    between atoms: C_23  and  C_24
REMARK   12  A    between atoms: C_24  and  C_26
REMARK   13  A    between atoms: C_29  and  C_30
REMARK   14  A    between atoms: C_30  and  O_31
REMARK                            x       y       z     vdW  Elec       q    Type
REMARK                         _______ _______ _______ _____ _____    ______ ____
ROOT
ATOM      1  C   UNL     1       1.407   9.190  17.930  0.00  0.00    +0.000 C 
ENDROOT
BRANCH   1   5
ATOM      2  C   UNL     1      -1.702  11.031  18.574  0.00  0.00    +0.000 A 
ATOM      3  C   UNL     1      -0.864  11.439  19.597  0.00  0.00    +0.000 A 
ATOM      4  N   UNL     1       0.378  10.868  19.498  0.00  0.00    +0.000 NA
ATOM      5  C   UNL     1       0.316  10.080  18.446  0.00  0.00    +0.000 A 
ATOM      6  N   UNL     1      -0.919  10.149  17.860  0.00  0.00    +0.000 N 
ATOM      7  H   UNL     1      -1.221   9.645  17.033  0.00  0.00    +0.000 HD
BRANCH   2  17
ATOM      8  C   UNL     1      -3.566  11.404  16.897  0.00  0.00    +0.000 A 
ATOM      9  N   UNL     1      -4.802  11.838  16.545  0.00  0.00    +0.000 NA
ATOM     10  C   UNL     1      -5.618  12.284  17.513  0.00  0.00    +0.000 A 
ATOM     11  C   UNL     1      -6.877  12.768  17.179  0.00  0.00    +0.000 A 
ATOM     12  C   UNL     1      -7.767  13.234  18.152  0.00  0.00    +0.000 A 
ATOM     13  C   UNL     1      -7.400  13.216  19.492  0.00  0.00    +0.000 A 
ATOM     14  C   UNL     1      -6.141  12.746  19.852  0.00  0.00    +0.000 A 
ATOM     15  C   UNL     1      -5.244  12.289  18.870  0.00  0.00    +0.000 A 
ATOM     16  C   UNL     1      -3.959  11.843  19.200  0.00  0.00    +0.000 A 
ATOM     17  C   UNL     1      -3.072  11.409  18.208  0.00  0.00    +0.000 A 
BRANCH   8  19
ATOM     18  C   UNL     1      -3.425  10.365  14.791  0.00  0.00    +0.000 C 
ATOM     19  O   UNL     1      -2.729  10.944  15.892  0.00  0.00    +0.000 OA
ENDBRANCH   8  19
ENDBRANCH   2  17
ENDBRANCH   1   5
BRANCH   1  20
ATOM     20  N   UNL     1       2.494  10.013  17.385  0.00  0.00    +0.000 NA
ATOM     21  H   UNL     1       3.356   9.704  17.848  0.00  0.00    +0.000 HD
ATOM     22  H   UNL     1       2.366  10.971  17.709  0.00  0.00    +0.000 HD
ENDBRANCH   1  20
BRANCH   1  23
ATOM     23  C   UNL     1       1.961   8.306  19.063  0.00  0.00    +0.000 C 
BRANCH  23  24
ATOM     24  C   UNL     1       2.555   6.969  18.587  0.00  0.00    +0.000 C 
BRANCH  24  25
ATOM     25  C   UNL     1       1.581   6.075  17.815  0.00  0.00    +0.000 C 
BRANCH  25  26
ATOM     26  C   UNL     1       1.974   4.594  17.861  0.00  0.00    +0.000 C 
BRANCH  26  27
ATOM     27  C   UNL     1       2.825   4.240  19.077  0.00  0.00    +0.000 C 
BRANCH  27  28
ATOM     28  C   UNL     1       3.984   3.330  18.702  0.00  0.00    +0.000 C 
ATOM     29  O   UNL     1       3.828   2.105  18.701  0.00  0.00    +0.000 OA
BRANCH  28  30
ATOM     30  C   UNL     1       5.214   3.983  18.294  0.00  0.00    +0.000 A 
ATOM     31  N   UNL     1       5.756   3.953  17.089  0.00  0.00    +0.000 NA
ATOM     32  C   UNL     1       6.907   4.686  17.227  0.00  0.00    +0.000 A 
ATOM     33  C   UNL     1       7.024   5.144  18.518  0.00  0.00    +0.000 A 
ATOM     34  O   UNL     1       5.934   4.700  19.217  0.00  0.00    +0.000 OA
BRANCH  33  35
ATOM     35  C   UNL     1       8.014   5.963  19.240  0.00  0.00    +0.000 C 
BRANCH  35  36
ATOM     36  O   UNL     1       8.117   5.459  20.564  0.00  0.00    +0.000 OA
ATOM     37  H   UNL     1       7.408   5.886  21.077  0.00  0.00    +0.000 HD
ENDBRANCH  35  36
ENDBRANCH  33  35
ENDBRANCH  28  30
ENDBRANCH  27  28
ENDBRANCH  26  27
ENDBRANCH  25  26
ENDBRANCH  24  25
ENDBRANCH  23  24
ENDBRANCH   1  23
TORSDOF 13
ENDMDL
MODEL 6
REMARK VINA RESULT:      -7.8      1.794      2.553
REMARK  Name = 
REMARK  14 active torsions:
REMARK  status: ('A' for Active; 'I' for Inactive)
REMARK    1  A    between atoms: C_1  and  O_2
REMARK    2  A    between atoms: O_2  and  C_3
REMARK    3  A    between atoms: C_12  and  C_13
REMARK    4  A    between atoms: C_16  and  C_17
REMARK    5  A    between atoms: C_17  and  N_18
REMARK    6  A    between atoms: C_17  and  C_19
REMARK    7  A    between atoms: C_19  and  C_20
REMARK    8  A    between atoms: C_20  and  C_21
REMARK    9  A    between atoms: C_21  and  C_22
REMARK   10  A    between atoms: C_22  and  C_23
REMARK   11  A    between atoms: C_23  and  C_24
REMARK   12  A    between atoms: C_24  and  C_26
REMARK   13  A    between atoms: C_29  and  C_30
REMARK   14  A    between atoms: C_30  and  O_31
REMARK                            x       y       z     vdW  Elec       q    Type
REMARK                         _______ _______ _______ _____ _____    ______ ____
ROOT
ATOM      1  C   UNL     1       1.810   3.797  20.532  0.00  0.00    +0.000 C 
ENDROOT
BRANCH   1   5
ATOM      2  C   UNL     1       4.176   3.205  17.790  0.00  0.00    +0.000 A 
ATOM      3  C   UNL     1       3.562   1.977  17.961  0.00  0.00    +0.000 A 
ATOM      4  N   UNL     1       2.606   2.016  18.942  0.00  0.00    +0.000 NA
ATOM      5  C   UNL     1       2.638   3.246  19.411  0.00  0.00    +0.000 A 
ATOM      6  N   UNL     1       3.570   3.995  18.744  0.00  0.00    +0.000 N 
ATOM      7  H   UNL     1       3.785   4.972  18.910  0.00  0.00    +0.000 HD
BRANCH   2  17
ATOM      8  C   UNL     1       6.311   4.437  17.197  0.00  0.00    +0.000 A 
ATOM      9  N   UNL     1       7.198   4.954  16.312  0.00  0.00    +0.000 NA
ATOM     10  C   UNL     1       7.003   4.717  15.005  0.00  0.00    +0.000 A 
ATOM     11  C   UNL     1       7.874   5.264  14.071  0.00  0.00    +0.000 A 
ATOM     12  C   UNL     1       7.719   5.037  12.700  0.00  0.00    +0.000 A 
ATOM     13  C   UNL     1       6.675   4.242  12.243  0.00  0.00    +0.000 A 
ATOM     14  C   UNL     1       5.781   3.691  13.157  0.00  0.00    +0.000 A 
ATOM     15  C   UNL     1       5.934   3.931  14.534  0.00  0.00    +0.000 A 
ATOM     16  C   UNL     1       5.031   3.417  15.473  0.00  0.00    +0.000 A 
ATOM     17  C   UNL     1       5.187   3.682  16.839  0.00  0.00    +0.000 A 
BRANCH   8  19
ATOM     18  C   UNL     1       7.077   5.971  18.807  0.00  0.00    +0.000 C 
ATOM     19  O   UNL     1       6.520   4.686  18.545  0.00  0.00    +0.000 OA
ENDBRANCH   8  19
ENDBRANCH   2  17
ENDBRANCH   1   5
BRANCH   1  20
ATOM     20  N   UNL     1       1.965   2.947  21.720  0.00  0.00    +0.000 NA
ATOM     21  H   UNL     1       2.385   3.536  22.448  0.00  0.00    +0.000 HD
ATOM     22  H   UNL     1       2.680   2.247  21.523  0.00  0.00    +0.000 HD
ENDBRANCH   1  20
BRANCH   1  23
ATOM     23  C   UNL     1       2.254   5.231  20.875  0.00  0.00    +0.000 C 
BRANCH  23  24
ATOM     24  C   UNL     1       1.660   6.313  19.955  0.00  0.00    +0.000 C 
BRANCH  24  25
ATOM     25  C   UNL     1       2.654   7.387  19.506  0.00  0.00    +0.000 C 
BRANCH  25  26
ATOM     26  C   UNL     1       2.417   7.848  18.064  0.00  0.00    +0.000 C 
BRANCH  26  27
ATOM     27  C   UNL     1       1.256   8.829  17.935  0.00  0.00    +0.000 C 
BRANCH  27  28
ATOM     28  C   UNL     1       1.633  10.211  18.446  0.00  0.00    +0.000 C 
ATOM     29  O   UNL     1       2.407  10.917  17.792  0.00  0.00    +0.000 OA
BRANCH  28  30
ATOM     30  C   UNL     1       0.988  10.646  19.670  0.00  0.00    +0.000 A 
ATOM     31  N   UNL     1       0.798  11.897  20.056  0.00  0.00    +0.000 NA
ATOM     32  C   UNL     1       0.184  11.776  21.276  0.00  0.00    +0.000 A 
ATOM     33  C   UNL     1       0.016  10.448  21.591  0.00  0.00    +0.000 A 
ATOM     34  O   UNL     1       0.526   9.707  20.560  0.00  0.00    +0.000 OA
BRANCH  33  35
ATOM     35  C   UNL     1      -0.571   9.721  22.732  0.00  0.00    +0.000 C 
BRANCH  35  36
ATOM     36  O   UNL     1       0.399   9.681  23.769  0.00  0.00    +0.000 OA
ATOM     37  H   UNL     1       1.267   9.763  23.337  0.00  0.00    +0.000 HD
ENDBRANCH  35  36
ENDBRANCH  33  35
ENDBRANCH  28  30
ENDBRANCH  27  28
ENDBRANCH  26  27
ENDBRANCH  25  26
ENDBRANCH  24  25
ENDBRANCH  23  24
ENDBRANCH   1  23
TORSDOF 13
ENDMDL
MODEL 7
REMARK VINA RESULT:      -7.8      3.532     11.086
REMARK  Name = 
REMARK  14 active torsions:
REMARK  status: ('A' for Active; 'I' for Inactive)
REMARK    1  A    between atoms: C_1  and  O_2
REMARK    2  A    between atoms: O_2  and  C_3
REMARK    3  A    between atoms: C_12  and  C_13
REMARK    4  A    between atoms: C_16  and  C_17
REMARK    5  A    between atoms: C_17  and  N_18
REMARK    6  A    between atoms: C_17  and  C_19
REMARK    7  A    between atoms: C_19  and  C_20
REMARK    8  A    between atoms: C_20  and  C_21
REMARK    9  A    between atoms: C_21  and  C_22
REMARK   10  A    between atoms: C_22  and  C_23
REMARK   11  A    between atoms: C_23  and  C_24
REMARK   12  A    between atoms: C_24  and  C_26
REMARK   13  A    between atoms: C_29  and  C_30
REMARK   14  A    between atoms: C_30  and  O_31
REMARK                            x       y       z     vdW  Elec       q    Type
REMARK                         _______ _______ _______ _____ _____    ______ ____
ROOT
ATOM      1  C   UNL     1       1.248   9.277  18.289  0.00  0.00    +0.000 C 
ENDROOT
BRANCH   1   5
ATOM      2  C   UNL     1      -0.681  11.698  20.260  0.00  0.00    +0.000 A 
ATOM      3  C   UNL     1       0.010  12.489  19.359  0.00  0.00    +0.000 A 
ATOM      4  N   UNL     1       0.773  11.739  18.503  0.00  0.00    +0.000 NA
ATOM      5  C   UNL     1       0.596  10.490  18.880  0.00  0.00    +0.000 A 
ATOM      6  N   UNL     1      -0.273  10.421  19.936  0.00  0.00    +0.000 N 
ATOM      7  H   UNL     1      -0.580   9.577  20.406  0.00  0.00    +0.000 HD
BRANCH   2  17
ATOM      8  C   UNL     1      -1.511  11.676  22.656  0.00  0.00    +0.000 A 
ATOM      9  N   UNL     1      -2.455  11.887  23.606  0.00  0.00    +0.000 NA
ATOM     10  C   UNL     1      -3.605  12.475  23.241  0.00  0.00    +0.000 A 
ATOM     11  C   UNL     1      -4.605  12.671  24.184  0.00  0.00    +0.000 A 
ATOM     12  C   UNL     1      -5.816  13.288  23.854  0.00  0.00    +0.000 A 
ATOM     13  C   UNL     1      -6.039  13.726  22.555  0.00  0.00    +0.000 A 
ATOM     14  C   UNL     1      -5.057  13.531  21.587  0.00  0.00    +0.000 A 
ATOM     15  C   UNL     1      -3.846  12.900  21.921  0.00  0.00    +0.000 A 
ATOM     16  C   UNL     1      -2.855  12.661  20.960  0.00  0.00    +0.000 A 
ATOM     17  C   UNL     1      -1.662  12.015  21.305  0.00  0.00    +0.000 A 
BRANCH   8  19
ATOM     18  C   UNL     1      -0.454   9.670  23.281  0.00  0.00    +0.000 C 
ATOM     19  O   UNL     1      -0.326  11.069  23.041  0.00  0.00    +0.000 OA
ENDBRANCH   8  19
ENDBRANCH   2  17
ENDBRANCH   1   5
BRANCH   1  20
ATOM     20  N   UNL     1       2.293   9.692  17.345  0.00  0.00    +0.000 NA
ATOM     21  H   UNL     1       2.114   9.188  16.469  0.00  0.00    +0.000 HD
ATOM     22  H   UNL     1       3.185   9.321  17.669  0.00  0.00    +0.000 HD
ENDBRANCH   1  20
BRANCH   1  23
ATOM     23  C   UNL     1       1.880   8.413  19.396  0.00  0.00    +0.000 C 
BRANCH  23  24
ATOM     24  C   UNL     1       2.259   6.990  18.947  0.00  0.00    +0.000 C 
BRANCH  24  25
ATOM     25  C   UNL     1       2.272   5.948  20.069  0.00  0.00    +0.000 C 
BRANCH  25  26
ATOM     26  C   UNL     1       1.963   4.534  19.566  0.00  0.00    +0.000 C 
BRANCH  26  27
ATOM     27  C   UNL     1       2.894   3.476  20.152  0.00  0.00    +0.000 C 
BRANCH  27  28
ATOM     28  C   UNL     1       3.876   2.958  19.112  0.00  0.00    +0.000 C 
ATOM     29  O   UNL     1       3.794   1.791  18.718  0.00  0.00    +0.000 OA
BRANCH  28  30
ATOM     30  C   UNL     1       4.830   3.918  18.589  0.00  0.00    +0.000 A 
ATOM     31  N   UNL     1       4.810   4.470  17.388  0.00  0.00    +0.000 NA
ATOM     32  C   UNL     1       5.925   5.268  17.373  0.00  0.00    +0.000 A 
ATOM     33  C   UNL     1       6.587   5.177  18.574  0.00  0.00    +0.000 A 
ATOM     34  O   UNL     1       5.888   4.312  19.371  0.00  0.00    +0.000 OA
BRANCH  33  35
ATOM     35  C   UNL     1       7.806   5.790  19.134  0.00  0.00    +0.000 C 
BRANCH  35  36
ATOM     36  O   UNL     1       7.886   5.430  20.506  0.00  0.00    +0.000 OA
ATOM     37  H   UNL     1       8.827   5.263  20.692  0.00  0.00    +0.000 HD
ENDBRANCH  35  36
ENDBRANCH  33  35
ENDBRANCH  28  30
ENDBRANCH  27  28
ENDBRANCH  26  27
ENDBRANCH  25  26
ENDBRANCH  24  25
ENDBRANCH  23  24
ENDBRANCH   1  23
TORSDOF 13
ENDMDL
MODEL 8
REMARK VINA RESULT:      -7.8      2.092      2.508
REMARK  Name = 
REMARK  14 active torsions:
REMARK  status: ('A' for Active; 'I' for Inactive)
REMARK    1  A    between atoms: C_1  and  O_2
REMARK    2  A    between atoms: O_2  and  C_3
REMARK    3  A    between atoms: C_12  and  C_13
REMARK    4  A    between atoms: C_16  and  C_17
REMARK    5  A    between atoms: C_17  and  N_18
REMARK    6  A    between atoms: C_17  and  C_19
REMARK    7  A    between atoms: C_19  and  C_20
REMARK    8  A    between atoms: C_20  and  C_21
REMARK    9  A    between atoms: C_21  and  C_22
REMARK   10  A    between atoms: C_22  and  C_23
REMARK   11  A    between atoms: C_23  and  C_24
REMARK   12  A    between atoms: C_24  and  C_26
REMARK   13  A    between atoms: C_29  and  C_30
REMARK   14  A    between atoms: C_30  and  O_31
REMARK                            x       y       z     vdW  Elec       q    Type
REMARK                         _______ _______ _______ _____ _____    ______ ____
ROOT
ATOM      1  C   UNL     1       1.508   4.359  19.902  0.00  0.00    +0.000 C 
ENDROOT
BRANCH   1   5
ATOM      2  C   UNL     1       4.654   3.999  18.047  0.00  0.00    +0.000 A 
ATOM      3  C   UNL     1       4.816   3.153  19.130  0.00  0.00    +0.000 A 
ATOM      4  N   UNL     1       3.706   3.132  19.932  0.00  0.00    +0.000 NA
ATOM      5  C   UNL     1       2.864   3.982  19.383  0.00  0.00    +0.000 A 
ATOM      6  N   UNL     1       3.396   4.527  18.246  0.00  0.00    +0.000 N 
ATOM      7  H   UNL     1       2.947   5.202  17.636  0.00  0.00    +0.000 HD
BRANCH   2  17
ATOM      8  C   UNL     1       6.541   5.248  16.903  0.00  0.00    +0.000 A 
ATOM      9  N   UNL     1       7.271   5.595  15.814  0.00  0.00    +0.000 NA
ATOM     10  C   UNL     1       7.006   4.982  14.650  0.00  0.00    +0.000 A 
ATOM     11  C   UNL     1       7.712   5.342  13.509  0.00  0.00    +0.000 A 
ATOM     12  C   UNL     1       7.479   4.725  12.276  0.00  0.00    +0.000 A 
ATOM     13  C   UNL     1       6.523   3.722  12.172  0.00  0.00    +0.000 A 
ATOM     14  C   UNL     1       5.793   3.351  13.297  0.00  0.00    +0.000 A 
ATOM     15  C   UNL     1       6.022   3.981  14.533  0.00  0.00    +0.000 A 
ATOM     16  C   UNL     1       5.280   3.652  15.674  0.00  0.00    +0.000 A 
ATOM     17  C   UNL     1       5.508   4.302  16.892  0.00  0.00    +0.000 A 
BRANCH   8  19
ATOM     18  C   UNL     1       7.934   5.329  18.796  0.00  0.00    +0.000 C 
ATOM     19  O   UNL     1       6.821   5.886  18.102  0.00  0.00    +0.000 OA
ENDBRANCH   8  19
ENDBRANCH   2  17
ENDBRANCH   1   5
BRANCH   1  20
ATOM     20  N   UNL     1       1.065   3.362  20.884  0.00  0.00    +0.000 NA
ATOM     21  H   UNL     1       1.217   3.776  21.811  0.00  0.00    +0.000 HD
ATOM     22  H   UNL     1       1.710   2.572  20.855  0.00  0.00    +0.000 HD
ENDBRANCH   1  20
BRANCH   1  23
ATOM     23  C   UNL     1       1.555   5.744  20.572  0.00  0.00    +0.000 C 
BRANCH  23  24
ATOM     24  C   UNL     1       1.855   6.903  19.606  0.00  0.00    +0.000 C 
BRANCH  24  25
ATOM     25  C   UNL     1       1.725   8.300  20.222  0.00  0.00    +0.000 C 
BRANCH  25  26
ATOM     26  C   UNL     1       1.256   8.262  21.680  0.00  0.00    +0.000 C 
BRANCH  26  27
ATOM     27  C   UNL     1      -0.171   8.771  21.861  0.00  0.00    +0.000 C 
BRANCH  27  28
ATOM     28  C   UNL     1      -0.246   9.856  22.925  0.00  0.00    +0.000 C 
ATOM     29  O   UNL     1       0.204   9.640  24.055  0.00  0.00    +0.000 OA
BRANCH  28  30
ATOM     30  C   UNL     1      -0.799  11.131  22.511  0.00  0.00    +0.000 A 
ATOM     31  N   UNL     1      -0.902  12.220  23.253  0.00  0.00    +0.000 NA
ATOM     32  C   UNL     1      -1.511  13.128  22.424  0.00  0.00    +0.000 A 
ATOM     33  C   UNL     1      -1.754  12.558  21.197  0.00  0.00    +0.000 A 
ATOM     34  O   UNL     1      -1.295  11.269  21.237  0.00  0.00    +0.000 OA
BRANCH  33  35
ATOM     35  C   UNL     1      -2.359  13.030  19.938  0.00  0.00    +0.000 C 
BRANCH  35  36
ATOM     36  O   UNL     1      -1.460  13.955  19.341  0.00  0.00    +0.000 OA
ATOM     37  H   UNL     1      -1.987  14.740  19.111  0.00  0.00    +0.000 HD
ENDBRANCH  35  36
ENDBRANCH  33  35
ENDBRANCH  28  30
ENDBRANCH  27  28
ENDBRANCH  26  27
ENDBRANCH  25  26
ENDBRANCH  24  25
ENDBRANCH  23  24
ENDBRANCH   1  23
TORSDOF 13
ENDMDL
MODEL 9
REMARK VINA RESULT:      -7.8      1.768      2.864
REMARK  Name = 
REMARK  14 active torsions:
REMARK  status: ('A' for Active; 'I' for Inactive)
REMARK    1  A    between atoms: C_1  and  O_2
REMARK    2  A    between atoms: O_2  and  C_3
REMARK    3  A    between atoms: C_12  and  C_13
REMARK    4  A    between atoms: C_16  and  C_17
REMARK    5  A    between atoms: C_17  and  N_18
REMARK    6  A    between atoms: C_17  and  C_19
REMARK    7  A    between atoms: C_19  and  C_20
REMARK    8  A    between atoms: C_20  and  C_21
REMARK    9  A    between atoms: C_21  and  C_22
REMARK   10  A    between atoms: C_22  and  C_23
REMARK   11  A    between atoms: C_23  and  C_24
REMARK   12  A    between atoms: C_24  and  C_26
REMARK   13  A    between atoms: C_29  and  C_30
REMARK   14  A    between atoms: C_30  and  O_31
REMARK                            x       y       z     vdW  Elec       q    Type
REMARK                         _______ _______ _______ _____ _____    ______ ____
ROOT
ATOM      1  C   UNL     1       1.731   5.454  19.704  0.00  0.00    +0.000 C 
ENDROOT
BRANCH   1   5
ATOM      2  C   UNL     1       4.562   4.385  17.628  0.00  0.00    +0.000 A 
ATOM      3  C   UNL     1       4.403   3.343  18.524  0.00  0.00    +0.000 A 
ATOM      4  N   UNL     1       3.350   3.556  19.374  0.00  0.00    +0.000 NA
ATOM      5  C   UNL     1       2.869   4.736  19.044  0.00  0.00    +0.000 A 
ATOM      6  N   UNL     1       3.570   5.270  17.996  0.00  0.00    +0.000 N 
ATOM      7  H   UNL     1       3.396   6.164  17.551  0.00  0.00    +0.000 HD
BRANCH   2  17
ATOM      8  C   UNL     1       6.538   5.505  16.501  0.00  0.00    +0.000 A 
ATOM      9  N   UNL     1       7.329   5.760  15.430  0.00  0.00    +0.000 NA
ATOM     10  C   UNL     1       7.100   5.082  14.294  0.00  0.00    +0.000 A 
ATOM     11  C   UNL     1       7.870   5.347  13.169  0.00  0.00    +0.000 A 
ATOM     12  C   UNL     1       7.676   4.659  11.968  0.00  0.00    +0.000 A 
ATOM     13  C   UNL     1       6.695   3.679  11.880  0.00  0.00    +0.000 A 
ATOM     14  C   UNL     1       5.902   3.402  12.990  0.00  0.00    +0.000 A 
ATOM     15  C   UNL     1       6.092   4.103  14.193  0.00  0.00    +0.000 A 
ATOM     16  C   UNL     1       5.287   3.869  15.314  0.00  0.00    +0.000 A 
ATOM     17  C   UNL     1       5.478   4.589  16.499  0.00  0.00    +0.000 A 
BRANCH   8  19
ATOM     18  C   UNL     1       7.718   5.573  18.535  0.00  0.00    +0.000 C 
ATOM     19  O   UNL     1       6.781   6.210  17.670  0.00  0.00    +0.000 OA
ENDBRANCH   8  19
ENDBRANCH   2  17
ENDBRANCH   1   5
BRANCH   1  20
ATOM     20  N   UNL     1       1.348   4.743  20.931  0.00  0.00    +0.000 NA
ATOM     21  H   UNL     1       0.763   3.952  20.640  0.00  0.00    +0.000 HD
ATOM     22  H   UNL     1       0.716   5.339  21.464  0.00  0.00    +0.000 HD
ENDBRANCH   1  20
BRANCH   1  23
ATOM     23  C   UNL     1       2.138   6.896  20.060  0.00  0.00    +0.000 C 
BRANCH  23  24
ATOM     24  C   UNL     1       1.262   7.551  21.142  0.00  0.00    +0.000 C 
BRANCH  24  25
ATOM     25  C   UNL     1       1.224   9.081  21.095  0.00  0.00    +0.000 C 
BRANCH  25  26
ATOM     26  C   UNL     1       0.076   9.618  20.233  0.00  0.00    +0.000 C 
BRANCH  26  27
ATOM     27  C   UNL     1       0.561  10.404  19.018  0.00  0.00    +0.000 C 
BRANCH  27  28
ATOM     28  C   UNL     1      -0.448  11.462  18.599  0.00  0.00    +0.000 C 
ATOM     29  O   UNL     1      -0.198  12.657  18.784  0.00  0.00    +0.000 OA
BRANCH  28  30
ATOM     30  C   UNL     1      -1.643  10.986  17.930  0.00  0.00    +0.000 A 
ATOM     31  N   UNL     1      -1.729   9.941  17.124  0.00  0.00    +0.000 NA
ATOM     32  C   UNL     1      -3.044   9.932  16.733  0.00  0.00    +0.000 A 
ATOM     33  C   UNL     1      -3.718  10.976  17.321  0.00  0.00    +0.000 A 
ATOM     34  O   UNL     1      -2.826  11.662  18.101  0.00  0.00    +0.000 OA
BRANCH  33  35
ATOM     35  C   UNL     1      -5.111  11.459  17.287  0.00  0.00    +0.000 C 
BRANCH  35  36
ATOM     36  O   UNL     1      -5.155  12.714  17.951  0.00  0.00    +0.000 OA
ATOM     37  H   UNL     1      -4.852  13.377  17.305  0.00  0.00    +0.000 HD
ENDBRANCH  35  36
ENDBRANCH  33  35
ENDBRANCH  28  30
ENDBRANCH  27  28
ENDBRANCH  26  27
ENDBRANCH  25  26
ENDBRANCH  24  25
ENDBRANCH  23  24
ENDBRANCH   1  23
TORSDOF 13
ENDMDL
