MODEL 1
REMARK VINA RESULT:      -8.5      0.000      0.000
REMARK  Name = 
REMARK  8 active torsions:
REMARK  status: ('A' for Active; 'I' for Inactive)
REMARK    1  A    between atoms: C_1  and  C_2
REMARK    2  A    between atoms: C_2  and  C_3
REMARK    3  A    between atoms: C_3  and  C_4
REMARK    4  A    between atoms: C_4  and  N_5
REMARK    5  A    between atoms: C_6  and  C_8
REMARK    6  A    between atoms: C_8  and  C_9
REMARK    7  A    between atoms: C_8  and  C_10
REMARK    8  A    between atoms: C_14  and  C_15
REMARK                            x       y       z     vdW  Elec       q    Type
REMARK                         _______ _______ _______ _____ _____    ______ ____
ROOT
ATOM      1  N   UNL     1       6.045   4.714  16.406  0.00  0.00    +0.000 N 
ATOM      2  C   UNL     1       6.978   5.745  16.500  0.00  0.00    +0.000 C 
ATOM      3  O   UNL     1       7.810   5.966  15.607  0.00  0.00    +0.000 OA
ATOM      4  C   UNL     1       5.294   4.425  17.518  0.00  0.00    +0.000 A 
ATOM      5  N   UNL     1       5.649   3.769  18.596  0.00  0.00    +0.000 NA
ATOM      6  C   UNL     1       4.536   3.834  19.393  0.00  0.00    +0.000 A 
ATOM      7  C   UNL     1       3.529   4.523  18.748  0.00  0.00    +0.000 A 
ATOM      8  O   UNL     1       4.026   4.922  17.540  0.00  0.00    +0.000 OA
ENDROOT
BRANCH   7   9
ATOM      9  C   UNL     1       2.112   4.863  19.091  0.00  0.00    +0.000 C 
ATOM     10  C   UNL     1       1.089   3.784  18.707  0.00  0.00    +0.000 C 
ATOM     11  C   UNL     1       1.224   2.502  19.528  0.00  0.00    +0.000 C 
ATOM     12  C   UNL     1       1.341   2.730  21.034  0.00  0.00    +0.000 C 
ATOM     13  C   UNL     1       2.202   3.922  21.446  0.00  0.00    +0.000 C 
ATOM     14  C   UNL     1       1.963   5.162  20.587  0.00  0.00    +0.000 C 
ENDBRANCH   7   9
BRANCH   2  15
ATOM     15  C   UNL     1       6.961   6.631  17.771  0.00  0.00    +0.000 C 
ATOM     16  C   UNL     1       7.921   6.085  18.828  0.00  0.00    +0.000 C 
ATOM     17  C   UNL     1       7.295   8.092  17.471  0.00  0.00    +0.000 C 
ENDBRANCH   2  15
BRANCH   1  18
ATOM     18  C   UNL     1       6.096   3.740  15.312  0.00  0.00    +0.000 C 
BRANCH  18  19
ATOM     19  C   UNL     1       5.447   4.224  14.005  0.00  0.00    +0.000 C 
BRANCH  19  21
ATOM     20  C   UNL     1       7.153   4.189  12.155  0.00  0.00    +0.000 C 
ATOM     21  C   UNL     1       5.947   3.483  12.764  0.00  0.00    +0.000 C 
ENDBRANCH  19  21
ENDBRANCH  18  19
ENDBRANCH   1  18
TORSDOF 5
ENDMDL
MODEL 2
REMARK VINA RESULT:      -7.9      1.410      3.742
REMARK  Name = 
REMARK  8 active torsions:
REMARK  status: ('A' for Active; 'I' for Inactive)
REMARK    1  A    between atoms: C_1  and  C_2
REMARK    2  A    between atoms: C_2  and  C_3
REMARK    3  A    between atoms: C_3  and  C_4
REMARK    4  A    between atoms: C_4  and  N_5
REMARK    5  A    between atoms: C_6  and  C_8
REMARK    6  A    between atoms: C_8  and  C_9
REMARK    7  A    between atoms: C_8  and  C_10
REMARK    8  A    between atoms: C_14  and  C_15
REMARK                            x       y       z     vdW  Elec       q    Type
REMARK                         _______ _______ _______ _____ _____    ______ ____
ROOT
ATOM      1  N   UNL     1       6.836   4.894  17.812  0.00  0.00    +0.000 N 
ATOM      2  C   UNL     1       6.776   4.936  16.421  0.00  0.00    +0.000 C 
ATOM      3  O   UNL     1       7.780   5.136  15.721  0.00  0.00    +0.000 OA
ATOM      4  C   UNL     1       5.652   4.858  18.505  0.00  0.00    +0.000 A 
ATOM      5  N   UNL     1       4.814   5.837  18.746  0.00  0.00    +0.000 NA
ATOM      6  C   UNL     1       3.788   5.225  19.416  0.00  0.00    +0.000 A 
ATOM      7  C   UNL     1       4.057   3.881  19.573  0.00  0.00    +0.000 A 
ATOM      8  O   UNL     1       5.256   3.639  18.967  0.00  0.00    +0.000 OA
ENDROOT
BRANCH   7   9
ATOM      9  C   UNL     1       3.349   2.747  20.246  0.00  0.00    +0.000 C 
ATOM     10  C   UNL     1       2.181   3.171  21.149  0.00  0.00    +0.000 C 
ATOM     11  C   UNL     1       0.999   3.755  20.376  0.00  0.00    +0.000 C 
ATOM     12  C   UNL     1       0.571   2.928  19.164  0.00  0.00    +0.000 C 
ATOM     13  C   UNL     1       1.714   2.326  18.351  0.00  0.00    +0.000 C 
ATOM     14  C   UNL     1       2.825   1.737  19.218  0.00  0.00    +0.000 C 
ENDBRANCH   7   9
BRANCH   2  15
ATOM     15  C   UNL     1       5.398   4.723  15.743  0.00  0.00    +0.000 C 
ATOM     16  C   UNL     1       4.819   6.052  15.260  0.00  0.00    +0.000 C 
ATOM     17  C   UNL     1       5.463   3.732  14.582  0.00  0.00    +0.000 C 
ENDBRANCH   2  15
BRANCH   1  18
ATOM     18  C   UNL     1       8.067   5.237  18.530  0.00  0.00    +0.000 C 
BRANCH  18  19
ATOM     19  C   UNL     1       8.159   6.711  18.957  0.00  0.00    +0.000 C 
BRANCH  19  21
ATOM     20  C   UNL     1       8.363   9.095  18.173  0.00  0.00    +0.000 C 
ATOM     21  C   UNL     1       7.873   7.695  17.820  0.00  0.00    +0.000 C 
ENDBRANCH  19  21
ENDBRANCH  18  19
ENDBRANCH   1  18
TORSDOF 5
ENDMDL
MODEL 3
REMARK VINA RESULT:      -7.9      1.114      1.338
REMARK  Name = 
REMARK  8 active torsions:
REMARK  status: ('A' for Active; 'I' for Inactive)
REMARK    1  A    between atoms: C_1  and  C_2
REMARK    2  A    between atoms: C_2  and  C_3
REMARK    3  A    between atoms: C_3  and  C_4
REMARK    4  A    between atoms: C_4  and  N_5
REMARK    5  A    between atoms: C_6  and  C_8
REMARK    6  A    between atoms: C_8  and  C_9
REMARK    7  A    between atoms: C_8  and  C_10
REMARK    8  A    between atoms: C_14  and  C_15
REMARK                            x       y       z     vdW  Elec       q    Type
REMARK                         _______ _______ _______ _____ _____    ______ ____
ROOT
ATOM      1  N   UNL     1       5.490   4.750  15.540  0.00  0.00    +0.000 N 
ATOM      2  C   UNL     1       6.658   5.358  15.997  0.00  0.00    +0.000 C 
ATOM      3  O   UNL     1       7.514   5.810  15.223  0.00  0.00    +0.000 OA
ATOM      4  C   UNL     1       4.695   4.113  16.461  0.00  0.00    +0.000 A 
ATOM      5  N   UNL     1       4.874   2.945  17.027  0.00  0.00    +0.000 NA
ATOM      6  C   UNL     1       3.819   2.843  17.895  0.00  0.00    +0.000 A 
ATOM      7  C   UNL     1       3.020   3.965  17.807  0.00  0.00    +0.000 A 
ATOM      8  O   UNL     1       3.598   4.797  16.890  0.00  0.00    +0.000 OA
ENDROOT
BRANCH   7   9
ATOM      9  C   UNL     1       1.740   4.389  18.456  0.00  0.00    +0.000 C 
ATOM     10  C   UNL     1       0.906   3.235  19.032  0.00  0.00    +0.000 C 
ATOM     11  C   UNL     1       1.562   2.556  20.235  0.00  0.00    +0.000 C 
ATOM     12  C   UNL     1       2.086   3.525  21.294  0.00  0.00    +0.000 C 
ATOM     13  C   UNL     1       2.753   4.786  20.749  0.00  0.00    +0.000 C 
ATOM     14  C   UNL     1       1.999   5.406  19.574  0.00  0.00    +0.000 C 
ENDBRANCH   7   9
BRANCH   2  15
ATOM     15  C   UNL     1       6.874   5.463  17.529  0.00  0.00    +0.000 C 
ATOM     16  C   UNL     1       7.947   4.479  17.994  0.00  0.00    +0.000 C 
ATOM     17  C   UNL     1       7.240   6.879  17.973  0.00  0.00    +0.000 C 
ENDBRANCH   2  15
BRANCH   1  18
ATOM     18  C   UNL     1       5.284   4.475  14.115  0.00  0.00    +0.000 C 
BRANCH  18  19
ATOM     19  C   UNL     1       6.332   3.536  13.495  0.00  0.00    +0.000 C 
BRANCH  19  21
ATOM     20  C   UNL     1       4.520   3.400  11.754  0.00  0.00    +0.000 C 
ATOM     21  C   UNL     1       5.966   3.058  12.089  0.00  0.00    +0.000 C 
ENDBRANCH  19  21
ENDBRANCH  18  19
ENDBRANCH   1  18
TORSDOF 5
ENDMDL
MODEL 4
REMARK VINA RESULT:      -7.8      1.502      3.945
REMARK  Name = 
REMARK  8 active torsions:
REMARK  status: ('A' for Active; 'I' for Inactive)
REMARK    1  A    between atoms: C_1  and  C_2
REMARK    2  A    between atoms: C_2  and  C_3
REMARK    3  A    between atoms: C_3  and  C_4
REMARK    4  A    between atoms: C_4  and  N_5
REMARK    5  A    between atoms: C_6  and  C_8
REMARK    6  A    between atoms: C_8  and  C_9
REMARK    7  A    between atoms: C_8  and  C_10
REMARK    8  A    between atoms: C_14  and  C_15
REMARK                            x       y       z     vdW  Elec       q    Type
REMARK                         _______ _______ _______ _____ _____    ______ ____
ROOT
ATOM      1  N   UNL     1       6.505   5.860  17.447  0.00  0.00    +0.000 N 
ATOM      2  C   UNL     1       6.627   5.336  16.161  0.00  0.00    +0.000 C 
ATOM      3  O   UNL     1       7.687   5.397  15.520  0.00  0.00    +0.000 OA
ATOM      4  C   UNL     1       5.251   5.917  18.001  0.00  0.00    +0.000 A 
ATOM      5  N   UNL     1       4.284   6.767  17.753  0.00  0.00    +0.000 NA
ATOM      6  C   UNL     1       3.253   6.318  18.536  0.00  0.00    +0.000 A 
ATOM      7  C   UNL     1       3.648   5.207  19.252  0.00  0.00    +0.000 A 
ATOM      8  O   UNL     1       4.937   4.935  18.892  0.00  0.00    +0.000 OA
ENDROOT
BRANCH   7   9
ATOM      9  C   UNL     1       2.988   4.337  20.276  0.00  0.00    +0.000 C 
ATOM     10  C   UNL     1       1.459   4.263  20.159  0.00  0.00    +0.000 C 
ATOM     11  C   UNL     1       0.983   3.538  18.899  0.00  0.00    +0.000 C 
ATOM     12  C   UNL     1       1.686   2.207  18.637  0.00  0.00    +0.000 C 
ATOM     13  C   UNL     1       3.184   2.193  18.932  0.00  0.00    +0.000 C 
ATOM     14  C   UNL     1       3.549   2.910  20.230  0.00  0.00    +0.000 C 
ENDBRANCH   7   9
BRANCH   2  15
ATOM     15  C   UNL     1       5.384   4.659  15.529  0.00  0.00    +0.000 C 
ATOM     16  C   UNL     1       5.526   4.573  14.010  0.00  0.00    +0.000 C 
ATOM     17  C   UNL     1       5.118   3.268  16.105  0.00  0.00    +0.000 C 
ENDBRANCH   2  15
BRANCH   1  18
ATOM     18  C   UNL     1       7.584   6.648  18.051  0.00  0.00    +0.000 C 
BRANCH  18  19
ATOM     19  C   UNL     1       7.606   8.123  17.619  0.00  0.00    +0.000 C 
BRANCH  19  21
ATOM     20  C   UNL     1       8.646  10.399  17.890  0.00  0.00    +0.000 C 
ATOM     21  C   UNL     1       8.533   8.994  18.469  0.00  0.00    +0.000 C 
ENDBRANCH  19  21
ENDBRANCH  18  19
ENDBRANCH   1  18
TORSDOF 5
ENDMDL
MODEL 5
REMARK VINA RESULT:      -7.8      0.949      1.528
REMARK  Name = 
REMARK  8 active torsions:
REMARK  status: ('A' for Active; 'I' for Inactive)
REMARK    1  A    between atoms: C_1  and  C_2
REMARK    2  A    between atoms: C_2  and  C_3
REMARK    3  A    between atoms: C_3  and  C_4
REMARK    4  A    between atoms: C_4  and  N_5
REMARK    5  A    between atoms: C_6  and  C_8
REMARK    6  A    between atoms: C_8  and  C_9
REMARK    7  A    between atoms: C_8  and  C_10
REMARK    8  A    between atoms: C_14  and  C_15
REMARK                            x       y       z     vdW  Elec       q    Type
REMARK                         _______ _______ _______ _____ _____    ______ ____
ROOT
ATOM      1  N   UNL     1       5.998   4.473  15.895  0.00  0.00    +0.000 N 
ATOM      2  C   UNL     1       6.944   5.451  16.196  0.00  0.00    +0.000 C 
ATOM      3  O   UNL     1       7.874   5.731  15.424  0.00  0.00    +0.000 OA
ATOM      4  C   UNL     1       5.123   4.101  16.884  0.00  0.00    +0.000 A 
ATOM      5  N   UNL     1       5.339   3.324  17.918  0.00  0.00    +0.000 NA
ATOM      6  C   UNL     1       4.148   3.351  18.595  0.00  0.00    +0.000 A 
ATOM      7  C   UNL     1       3.237   4.141  17.925  0.00  0.00    +0.000 A 
ATOM      8  O   UNL     1       3.874   4.642  16.825  0.00  0.00    +0.000 OA
ENDROOT
BRANCH   7   9
ATOM      9  C   UNL     1       1.801   4.499  18.149  0.00  0.00    +0.000 C 
ATOM     10  C   UNL     1       1.163   3.831  19.375  0.00  0.00    +0.000 C 
ATOM     11  C   UNL     1       1.735   4.329  20.702  0.00  0.00    +0.000 C 
ATOM     12  C   UNL     1       1.835   5.850  20.813  0.00  0.00    +0.000 C 
ATOM     13  C   UNL     1       2.284   6.566  19.541  0.00  0.00    +0.000 C 
ATOM     14  C   UNL     1       1.625   6.017  18.277  0.00  0.00    +0.000 C 
ENDBRANCH   7   9
BRANCH   2  15
ATOM     15  C   UNL     1       6.812   6.203  17.545  0.00  0.00    +0.000 C 
ATOM     16  C   UNL     1       7.746   5.602  18.595  0.00  0.00    +0.000 C 
ATOM     17  C   UNL     1       7.080   7.702  17.410  0.00  0.00    +0.000 C 
ENDBRANCH   2  15
BRANCH   1  18
ATOM     18  C   UNL     1       6.141   3.616  14.715  0.00  0.00    +0.000 C 
BRANCH  18  19
ATOM     19  C   UNL     1       5.494   4.182  13.441  0.00  0.00    +0.000 C 
BRANCH  19  21
ATOM     20  C   UNL     1       4.369   3.179  11.425  0.00  0.00    +0.000 C 
ATOM     21  C   UNL     1       5.667   3.281  12.216  0.00  0.00    +0.000 C 
ENDBRANCH  19  21
ENDBRANCH  18  19
ENDBRANCH   1  18
TORSDOF 5
ENDMDL
MODEL 6
REMARK VINA RESULT:      -7.7      1.257      3.517
REMARK  Name = 
REMARK  8 active torsions:
REMARK  status: ('A' for Active; 'I' for Inactive)
REMARK    1  A    between atoms: C_1  and  C_2
REMARK    2  A    between atoms: C_2  and  C_3
REMARK    3  A    between atoms: C_3  and  C_4
REMARK    4  A    between atoms: C_4  and  N_5
REMARK    5  A    between atoms: C_6  and  C_8
REMARK    6  A    between atoms: C_8  and  C_9
REMARK    7  A    between atoms: C_8  and  C_10
REMARK    8  A    between atoms: C_14  and  C_15
REMARK                            x       y       z     vdW  Elec       q    Type
REMARK                         _______ _______ _______ _____ _____    ______ ____
ROOT
ATOM      1  N   UNL     1       6.460   4.484  17.243  0.00  0.00    +0.000 N 
ATOM      2  C   UNL     1       6.767   4.593  15.888  0.00  0.00    +0.000 C 
ATOM      3  O   UNL     1       7.935   4.669  15.479  0.00  0.00    +0.000 OA
ATOM      4  C   UNL     1       5.143   4.597  17.614  0.00  0.00    +0.000 A 
ATOM      5  N   UNL     1       4.411   5.680  17.715  0.00  0.00    +0.000 NA
ATOM      6  C   UNL     1       3.174   5.201  18.058  0.00  0.00    +0.000 A 
ATOM      7  C   UNL     1       3.210   3.826  18.170  0.00  0.00    +0.000 A 
ATOM      8  O   UNL     1       4.482   3.432  17.865  0.00  0.00    +0.000 OA
ENDROOT
BRANCH   7   9
ATOM      9  C   UNL     1       2.207   2.783  18.554  0.00  0.00    +0.000 C 
ATOM     10  C   UNL     1       2.684   1.811  19.642  0.00  0.00    +0.000 C 
ATOM     11  C   UNL     1       2.864   2.472  21.008  0.00  0.00    +0.000 C 
ATOM     12  C   UNL     1       1.691   3.351  21.441  0.00  0.00    +0.000 C 
ATOM     13  C   UNL     1       1.064   4.191  20.330  0.00  0.00    +0.000 C 
ATOM     14  C   UNL     1       0.895   3.426  19.019  0.00  0.00    +0.000 C 
ENDBRANCH   7   9
BRANCH   2  15
ATOM     15  C   UNL     1       5.594   4.618  14.874  0.00  0.00    +0.000 C 
ATOM     16  C   UNL     1       5.212   6.055  14.522  0.00  0.00    +0.000 C 
ATOM     17  C   UNL     1       5.906   3.836  13.599  0.00  0.00    +0.000 C 
ENDBRANCH   2  15
BRANCH   1  18
ATOM     18  C   UNL     1       7.499   4.608  18.270  0.00  0.00    +0.000 C 
BRANCH  18  19
ATOM     19  C   UNL     1       7.363   5.855  19.158  0.00  0.00    +0.000 C 
BRANCH  19  21
ATOM     20  C   UNL     1       7.548   7.739  17.499  0.00  0.00    +0.000 C 
ATOM     21  C   UNL     1       8.207   7.039  18.682  0.00  0.00    +0.000 C 
ENDBRANCH  19  21
ENDBRANCH  18  19
ENDBRANCH   1  18
TORSDOF 5
ENDMDL
MODEL 7
REMARK VINA RESULT:      -7.4      1.324      3.504
REMARK  Name = 
REMARK  8 active torsions:
REMARK  status: ('A' for Active; 'I' for Inactive)
REMARK    1  A    between atoms: C_1  and  C_2
REMARK    2  A    between atoms: C_2  and  C_3
REMARK    3  A    between atoms: C_3  and  C_4
REMARK    4  A    between atoms: C_4  and  N_5
REMARK    5  A    between atoms: C_6  and  C_8
REMARK    6  A    between atoms: C_8  and  C_9
REMARK    7  A    between atoms: C_8  and  C_10
REMARK    8  A    between atoms: C_14  and  C_15
REMARK                            x       y       z     vdW  Elec       q    Type
REMARK                         _______ _______ _______ _____ _____    ______ ____
ROOT
ATOM      1  N   UNL     1       6.159   4.991  17.841  0.00  0.00    +0.000 N 
ATOM      2  C   UNL     1       6.656   4.751  16.561  0.00  0.00    +0.000 C 
ATOM      3  O   UNL     1       7.871   4.647  16.334  0.00  0.00    +0.000 OA
ATOM      4  C   UNL     1       4.823   5.279  17.966  0.00  0.00    +0.000 A 
ATOM      5  N   UNL     1       4.200   6.403  17.704  0.00  0.00    +0.000 NA
ATOM      6  C   UNL     1       2.884   6.106  17.949  0.00  0.00    +0.000 A 
ATOM      7  C   UNL     1       2.763   4.799  18.374  0.00  0.00    +0.000 A 
ATOM      8  O   UNL     1       4.017   4.257  18.368  0.00  0.00    +0.000 OA
ENDROOT
BRANCH   7   9
ATOM      9  C   UNL     1       1.614   3.950  18.822  0.00  0.00    +0.000 C 
ATOM     10  C   UNL     1       1.936   2.452  18.932  0.00  0.00    +0.000 C 
ATOM     11  C   UNL     1       2.918   2.126  20.058  0.00  0.00    +0.000 C 
ATOM     12  C   UNL     1       2.582   2.783  21.396  0.00  0.00    +0.000 C 
ATOM     13  C   UNL     1       2.070   4.219  21.304  0.00  0.00    +0.000 C 
ATOM     14  C   UNL     1       1.068   4.430  20.172  0.00  0.00    +0.000 C 
ENDBRANCH   7   9
BRANCH   2  15
ATOM     15  C   UNL     1       5.641   4.614  15.398  0.00  0.00    +0.000 C 
ATOM     16  C   UNL     1       5.402   5.964  14.724  0.00  0.00    +0.000 C 
ATOM     17  C   UNL     1       6.080   3.584  14.357  0.00  0.00    +0.000 C 
ENDBRANCH   2  15
BRANCH   1  18
ATOM     18  C   UNL     1       7.056   5.285  18.962  0.00  0.00    +0.000 C 
BRANCH  18  19
ATOM     19  C   UNL     1       8.030   6.446  18.704  0.00  0.00    +0.000 C 
BRANCH  19  21
ATOM     20  C   UNL     1       8.258   8.855  18.011  0.00  0.00    +0.000 C 
ATOM     21  C   UNL     1       7.414   7.591  17.897  0.00  0.00    +0.000 C 
ENDBRANCH  19  21
ENDBRANCH  18  19
ENDBRANCH   1  18
TORSDOF 5
ENDMDL
MODEL 8
REMARK VINA RESULT:      -7.1      2.120      4.012
REMARK  Name = 
REMARK  8 active torsions:
REMARK  status: ('A' for Active; 'I' for Inactive)
REMARK    1  A    between atoms: C_1  and  C_2
REMARK    2  A    between atoms: C_2  and  C_3
REMARK    3  A    between atoms: C_3  and  C_4
REMARK    4  A    between atoms: C_4  and  N_5
REMARK    5  A    between atoms: C_6  and  C_8
REMARK    6  A    between atoms: C_8  and  C_9
REMARK    7  A    between atoms: C_8  and  C_10
REMARK    8  A    between atoms: C_14  and  C_15
REMARK                            x       y       z     vdW  Elec       q    Type
REMARK                         _______ _______ _______ _____ _____    ______ ____
ROOT
ATOM      1  N   UNL     1       4.718   6.163  17.384  0.00  0.00    +0.000 N 
ATOM      2  C   UNL     1       6.047   6.221  16.968  0.00  0.00    +0.000 C 
ATOM      3  O   UNL     1       6.637   7.297  16.789  0.00  0.00    +0.000 OA
ATOM      4  C   UNL     1       4.094   4.940  17.372  0.00  0.00    +0.000 A 
ATOM      5  N   UNL     1       3.619   4.274  16.348  0.00  0.00    +0.000 NA
ATOM      6  C   UNL     1       3.170   3.105  16.904  0.00  0.00    +0.000 A 
ATOM      7  C   UNL     1       3.378   3.118  18.268  0.00  0.00    +0.000 A 
ATOM      8  O   UNL     1       3.994   4.299  18.570  0.00  0.00    +0.000 OA
ENDROOT
BRANCH   7   9
ATOM      9  C   UNL     1       3.059   2.169  19.381  0.00  0.00    +0.000 C 
ATOM     10  C   UNL     1       3.352   2.714  20.786  0.00  0.00    +0.000 C 
ATOM     11  C   UNL     1       2.431   3.865  21.193  0.00  0.00    +0.000 C 
ATOM     12  C   UNL     1       0.948   3.606  20.931  0.00  0.00    +0.000 C 
ATOM     13  C   UNL     1       0.636   2.885  19.622  0.00  0.00    +0.000 C 
ATOM     14  C   UNL     1       1.591   1.730  19.328  0.00  0.00    +0.000 C 
ENDBRANCH   7   9
BRANCH   2  15
ATOM     15  C   UNL     1       6.794   4.885  16.726  0.00  0.00    +0.000 C 
ATOM     16  C   UNL     1       7.413   4.854  15.329  0.00  0.00    +0.000 C 
ATOM     17  C   UNL     1       7.872   4.618  17.777  0.00  0.00    +0.000 C 
ENDBRANCH   2  15
BRANCH   1  18
ATOM     18  C   UNL     1       3.900   7.375  17.485  0.00  0.00    +0.000 C 
BRANCH  18  19
ATOM     19  C   UNL     1       2.517   7.153  18.118  0.00  0.00    +0.000 C 
BRANCH  19  21
ATOM     20  C   UNL     1       1.443   9.421  17.922  0.00  0.00    +0.000 C 
ATOM     21  C   UNL     1       1.992   8.370  18.881  0.00  0.00    +0.000 C 
ENDBRANCH  19  21
ENDBRANCH  18  19
ENDBRANCH   1  18
TORSDOF 5
ENDMDL
MODEL 9
REMARK VINA RESULT:      -7.1      1.398      3.804
REMARK  Name = 
REMARK  8 active torsions:
REMARK  status: ('A' for Active; 'I' for Inactive)
REMARK    1  A    between atoms: C_1  and  C_2
REMARK    2  A    between atoms: C_2  and  C_3
REMARK    3  A    between atoms: C_3  and  C_4
REMARK    4  A    between atoms: C_4  and  N_5
REMARK    5  A    between atoms: C_6  and  C_8
REMARK    6  A    between atoms: C_8  and  C_9
REMARK    7  A    between atoms: C_8  and  C_10
REMARK    8  A    between atoms: C_14  and  C_15
REMARK                            x       y       z     vdW  Elec       q    Type
REMARK                         _______ _______ _______ _____ _____    ______ ____
ROOT
ATOM      1  N   UNL     1       6.005   6.311  17.109  0.00  0.00    +0.000 N 
ATOM      2  C   UNL     1       6.302   5.611  15.941  0.00  0.00    +0.000 C 
ATOM      3  O   UNL     1       7.328   5.832  15.281  0.00  0.00    +0.000 OA
ATOM      4  C   UNL     1       4.763   6.133  17.666  0.00  0.00    +0.000 A 
ATOM      5  N   UNL     1       3.615   6.635  17.282  0.00  0.00    +0.000 NA
ATOM      6  C   UNL     1       2.714   6.081  18.153  0.00  0.00    +0.000 A 
ATOM      7  C   UNL     1       3.365   5.266  19.056  0.00  0.00    +0.000 A 
ATOM      8  O   UNL     1       4.691   5.285  18.730  0.00  0.00    +0.000 OA
ENDROOT
BRANCH   7   9
ATOM      9  C   UNL     1       2.927   4.456  20.236  0.00  0.00    +0.000 C 
ATOM     10  C   UNL     1       1.407   4.275  20.355  0.00  0.00    +0.000 C 
ATOM     11  C   UNL     1       0.811   3.409  19.245  0.00  0.00    +0.000 C 
ATOM     12  C   UNL     1       1.567   2.105  18.992  0.00  0.00    +0.000 C 
ATOM     13  C   UNL     1       3.089   2.212  19.060  0.00  0.00    +0.000 C 
ATOM     14  C   UNL     1       3.581   3.068  20.225  0.00  0.00    +0.000 C 
ENDBRANCH   7   9
BRANCH   2  15
ATOM     15  C   UNL     1       5.303   4.524  15.469  0.00  0.00    +0.000 C 
ATOM     16  C   UNL     1       5.464   4.252  13.973  0.00  0.00    +0.000 C 
ATOM     17  C   UNL     1       5.444   3.219  16.252  0.00  0.00    +0.000 C 
ENDBRANCH   2  15
BRANCH   1  18
ATOM     18  C   UNL     1       6.816   7.454  17.536  0.00  0.00    +0.000 C 
BRANCH  18  19
ATOM     19  C   UNL     1       8.031   7.078  18.400  0.00  0.00    +0.000 C 
BRANCH  19  21
ATOM     20  C   UNL     1       8.105   5.462  20.328  0.00  0.00    +0.000 C 
ATOM     21  C   UNL     1       8.055   5.605  18.812  0.00  0.00    +0.000 C 
ENDBRANCH  19  21
ENDBRANCH  18  19
ENDBRANCH   1  18
TORSDOF 5
ENDMDL
