MODEL 1
REMARK VINA RESULT:      -7.3      0.000      0.000
REMARK  Name = 
REMARK  8 active torsions:
REMARK  status: ('A' for Active; 'I' for Inactive)
REMARK    1  A    between atoms: C_1  and  O_2
REMARK    2  A    between atoms: O_2  and  C_3
REMARK    3  A    between atoms: C_5  and  O_6
REMARK    4  A    between atoms: O_6  and  C_7
REMARK    5  A    between atoms: C_9  and  C_10
REMARK    6  A    between atoms: C_20  and  C_21
REMARK    7  A    between atoms: N_23  and  N_24
REMARK    8  A    between atoms: C_25  and  C_26
REMARK                            x       y       z     vdW  Elec       q    Type
REMARK                         _______ _______ _______ _____ _____    ______ ____
ROOT
ATOM      1  C   UNL     1       1.834   7.223  20.127  0.00  0.00    +0.000 A 
ATOM      2  C   UNL     1       1.012   7.576  21.205  0.00  0.00    +0.000 A 
ATOM      3  C   UNL     1       0.349   8.812  21.265  0.00  0.00    +0.000 A 
ATOM      4  C   UNL     1       0.560   9.753  20.224  0.00  0.00    +0.000 A 
ATOM      5  C   UNL     1       0.102  11.104  19.961  0.00  0.00    +0.000 A 
ATOM      6  C   UNL     1       0.626  11.469  18.736  0.00  0.00    +0.000 A 
ATOM      7  N   UNL     1       1.392  10.439  18.270  0.00  0.00    +0.000 N 
ATOM      8  C   UNL     1       1.387   9.382  19.158  0.00  0.00    +0.000 A 
ATOM      9  C   UNL     1       2.051   8.134  19.070  0.00  0.00    +0.000 A 
ATOM     10  H   UNL     1       1.911  10.417  17.396  0.00  0.00    +0.000 HD
ENDROOT
BRANCH   5  11
ATOM     11  C   UNL     1      -0.734  12.002  20.761  0.00  0.00    +0.000 A 
ATOM     12  C   UNL     1      -0.186  12.715  21.836  0.00  0.00    +0.000 A 
ATOM     13  C   UNL     1      -0.984  13.504  22.668  0.00  0.00    +0.000 A 
ATOM     14  C   UNL     1      -2.338  13.643  22.388  0.00  0.00    +0.000 A 
ATOM     15 BR   UNL     1      -3.418  14.717  23.507  0.00  0.00    +0.000 Br
ATOM     16  C   UNL     1      -2.897  12.998  21.288  0.00  0.00    +0.000 A 
ATOM     17  C   UNL     1      -2.099  12.174  20.483  0.00  0.00    +0.000 A 
ENDBRANCH   5  11
BRANCH   9  18
ATOM     18  C   UNL     1       2.906   7.870  17.861  0.00  0.00    +0.000 C 
ATOM     19  O   UNL     1       2.644   8.450  16.806  0.00  0.00    +0.000 OA
ATOM     20  N   UNL     1       3.949   6.969  18.010  0.00  0.00    +0.000 N 
ATOM     21  H   UNL     1       4.109   6.531  18.912  0.00  0.00    +0.000 HD
BRANCH  20  22
ATOM     22  N   UNL     1       4.743   6.666  16.943  0.00  0.00    +0.000 NA
ATOM     23  C   UNL     1       4.748   5.431  16.559  0.00  0.00    +0.000 C 
BRANCH  23  24
ATOM     24  C   UNL     1       5.552   5.024  15.439  0.00  0.00    +0.000 A 
ATOM     25  C   UNL     1       5.338   4.094  14.442  0.00  0.00    +0.000 A 
ATOM     26  C   UNL     1       6.486   4.115  13.617  0.00  0.00    +0.000 A 
ATOM     27  C   UNL     1       7.333   5.055  14.159  0.00  0.00    +0.000 A 
ATOM     28  O   UNL     1       6.772   5.615  15.264  0.00  0.00    +0.000 OA
ENDBRANCH  23  24
ENDBRANCH  20  22
ENDBRANCH   9  18
BRANCH   1  30
ATOM     29  C   UNL     1       1.778   4.898  20.653  0.00  0.00    +0.000 C 
ATOM     30  O   UNL     1       2.475   6.004  20.076  0.00  0.00    +0.000 OA
ENDBRANCH   1  30
BRANCH   3  31
ATOM     31  O   UNL     1      -0.523   9.146  22.268  0.00  0.00    +0.000 OA
ATOM     32  C   UNL     1      -0.005   9.526  23.532  0.00  0.00    +0.000 C 
ENDBRANCH   3  31
TORSDOF 6
ENDMDL
MODEL 2
REMARK VINA RESULT:      -6.8      1.627      2.160
REMARK  Name = 
REMARK  8 active torsions:
REMARK  status: ('A' for Active; 'I' for Inactive)
REMARK    1  A    between atoms: C_1  and  O_2
REMARK    2  A    between atoms: O_2  and  C_3
REMARK    3  A    between atoms: C_5  and  O_6
REMARK    4  A    between atoms: O_6  and  C_7
REMARK    5  A    between atoms: C_9  and  C_10
REMARK    6  A    between atoms: C_20  and  C_21
REMARK    7  A    between atoms: N_23  and  N_24
REMARK    8  A    between atoms: C_25  and  C_26
REMARK                            x       y       z     vdW  Elec       q    Type
REMARK                         _______ _______ _______ _____ _____    ______ ____
ROOT
ATOM      1  C   UNL     1       2.205   5.745  20.263  0.00  0.00    +0.000 A 
ATOM      2  C   UNL     1       1.472   6.526  21.165  0.00  0.00    +0.000 A 
ATOM      3  C   UNL     1       1.068   7.836  20.862  0.00  0.00    +0.000 A 
ATOM      4  C   UNL     1       1.457   8.403  19.621  0.00  0.00    +0.000 A 
ATOM      5  C   UNL     1       1.276   9.694  18.987  0.00  0.00    +0.000 A 
ATOM      6  C   UNL     1       1.858   9.608  17.737  0.00  0.00    +0.000 A 
ATOM      7  N   UNL     1       2.404   8.364  17.600  0.00  0.00    +0.000 N 
ATOM      8  C   UNL     1       2.192   7.607  18.735  0.00  0.00    +0.000 A 
ATOM      9  C   UNL     1       2.595   6.278  19.015  0.00  0.00    +0.000 A 
ATOM     10  H   UNL     1       2.906   8.008  16.791  0.00  0.00    +0.000 HD
ENDROOT
BRANCH   5  11
ATOM     11  C   UNL     1       0.637  10.918  19.477  0.00  0.00    +0.000 A 
ATOM     12  C   UNL     1      -0.759  11.047  19.459  0.00  0.00    +0.000 A 
ATOM     13  C   UNL     1      -1.384  12.239  19.834  0.00  0.00    +0.000 A 
ATOM     14  C   UNL     1      -0.616  13.299  20.299  0.00  0.00    +0.000 A 
ATOM     15 BR   UNL     1      -1.460  14.909  20.815  0.00  0.00    +0.000 Br
ATOM     16  C   UNL     1       0.768  13.176  20.390  0.00  0.00    +0.000 A 
ATOM     17  C   UNL     1       1.392  11.992  19.972  0.00  0.00    +0.000 A 
ENDBRANCH   5  11
BRANCH   9  18
ATOM     18  C   UNL     1       3.377   5.539  17.963  0.00  0.00    +0.000 C 
ATOM     19  O   UNL     1       2.873   4.552  17.426  0.00  0.00    +0.000 OA
ATOM     20  N   UNL     1       4.643   6.020  17.665  0.00  0.00    +0.000 N 
ATOM     21  H   UNL     1       4.994   6.843  18.145  0.00  0.00    +0.000 HD
BRANCH  20  22
ATOM     22  N   UNL     1       5.413   5.377  16.740  0.00  0.00    +0.000 NA
ATOM     23  C   UNL     1       5.218   5.698  15.502  0.00  0.00    +0.000 C 
BRANCH  23  24
ATOM     24  C   UNL     1       5.991   5.075  14.463  0.00  0.00    +0.000 A 
ATOM     25  C   UNL     1       5.739   3.983  13.656  0.00  0.00    +0.000 A 
ATOM     26  C   UNL     1       6.870   3.826  12.823  0.00  0.00    +0.000 A 
ATOM     27  C   UNL     1       7.746   4.830  13.170  0.00  0.00    +0.000 A 
ATOM     28  O   UNL     1       7.219   5.596  14.162  0.00  0.00    +0.000 OA
ENDBRANCH  23  24
ENDBRANCH  20  22
ENDBRANCH   9  18
BRANCH   1  30
ATOM     29  C   UNL     1       1.545   3.492  20.676  0.00  0.00    +0.000 C 
ATOM     30  O   UNL     1       2.592   4.458  20.569  0.00  0.00    +0.000 OA
ENDBRANCH   1  30
BRANCH   3  31
ATOM     31  O   UNL     1       0.281   8.588  21.695  0.00  0.00    +0.000 OA
ATOM     32  C   UNL     1       0.900   9.374  22.701  0.00  0.00    +0.000 C 
ENDBRANCH   3  31
TORSDOF 6
ENDMDL
MODEL 3
REMARK VINA RESULT:      -6.6      1.630      2.350
REMARK  Name = 
REMARK  8 active torsions:
REMARK  status: ('A' for Active; 'I' for Inactive)
REMARK    1  A    between atoms: C_1  and  O_2
REMARK    2  A    between atoms: O_2  and  C_3
REMARK    3  A    between atoms: C_5  and  O_6
REMARK    4  A    between atoms: O_6  and  C_7
REMARK    5  A    between atoms: C_9  and  C_10
REMARK    6  A    between atoms: C_20  and  C_21
REMARK    7  A    between atoms: N_23  and  N_24
REMARK    8  A    between atoms: C_25  and  C_26
REMARK                            x       y       z     vdW  Elec       q    Type
REMARK                         _______ _______ _______ _____ _____    ______ ____
ROOT
ATOM      1  C   UNL     1       2.776   5.747  19.916  0.00  0.00    +0.000 A 
ATOM      2  C   UNL     1       1.832   6.290  20.797  0.00  0.00    +0.000 A 
ATOM      3  C   UNL     1       1.235   7.540  20.575  0.00  0.00    +0.000 A 
ATOM      4  C   UNL     1       1.637   8.301  19.447  0.00  0.00    +0.000 A 
ATOM      5  C   UNL     1       1.294   9.608  18.922  0.00  0.00    +0.000 A 
ATOM      6  C   UNL     1       2.001   9.761  17.745  0.00  0.00    +0.000 A 
ATOM      7  N   UNL     1       2.768   8.648  17.554  0.00  0.00    +0.000 N 
ATOM      8  C   UNL     1       2.583   7.742  18.580  0.00  0.00    +0.000 A 
ATOM      9  C   UNL     1       3.186   6.476  18.777  0.00  0.00    +0.000 A 
ATOM     10  H   UNL     1       3.402   8.473  16.779  0.00  0.00    +0.000 HD
ENDROOT
BRANCH   5  11
ATOM     11  C   UNL     1       0.404  10.645  19.448  0.00  0.00    +0.000 A 
ATOM     12  C   UNL     1      -0.968  10.618  19.160  0.00  0.00    +0.000 A 
ATOM     13  C   UNL     1      -1.818  11.647  19.573  0.00  0.00    +0.000 A 
ATOM     14  C   UNL     1      -1.312  12.687  20.344  0.00  0.00    +0.000 A 
ATOM     15 BR   UNL     1      -2.462  14.075  20.911  0.00  0.00    +0.000 Br
ATOM     16  C   UNL     1       0.034  12.705  20.700  0.00  0.00    +0.000 A 
ATOM     17  C   UNL     1       0.890  11.692  20.246  0.00  0.00    +0.000 A 
ENDBRANCH   5  11
BRANCH   9  18
ATOM     18  C   UNL     1       4.185   6.000  17.759  0.00  0.00    +0.000 C 
ATOM     19  O   UNL     1       5.122   6.738  17.451  0.00  0.00    +0.000 OA
ATOM     20  N   UNL     1       3.981   4.742  17.215  0.00  0.00    +0.000 N 
ATOM     21  H   UNL     1       3.188   4.185  17.519  0.00  0.00    +0.000 HD
BRANCH  20  22
ATOM     22  N   UNL     1       4.837   4.264  16.265  0.00  0.00    +0.000 NA
ATOM     23  C   UNL     1       4.838   4.879  15.127  0.00  0.00    +0.000 C 
BRANCH  23  24
ATOM     24  C   UNL     1       5.713   4.447  14.072  0.00  0.00    +0.000 A 
ATOM     25  C   UNL     1       7.044   4.708  13.814  0.00  0.00    +0.000 A 
ATOM     26  C   UNL     1       7.367   4.019  12.623  0.00  0.00    +0.000 A 
ATOM     27  C   UNL     1       6.216   3.380  12.223  0.00  0.00    +0.000 A 
ATOM     28  O   UNL     1       5.207   3.630  13.099  0.00  0.00    +0.000 OA
ENDBRANCH  23  24
ENDBRANCH  20  22
ENDBRANCH   9  18
BRANCH   1  30
ATOM     29  C   UNL     1       2.469   3.472  20.556  0.00  0.00    +0.000 C 
ATOM     30  O   UNL     1       3.352   4.516  20.142  0.00  0.00    +0.000 OA
ENDBRANCH   1  30
BRANCH   3  31
ATOM     31  O   UNL     1       0.250   8.053  21.379  0.00  0.00    +0.000 OA
ATOM     32  C   UNL     1       0.616   8.881  22.471  0.00  0.00    +0.000 C 
ENDBRANCH   3  31
TORSDOF 6
ENDMDL
MODEL 4
REMARK VINA RESULT:      -6.6      2.469      4.425
REMARK  Name = 
REMARK  8 active torsions:
REMARK  status: ('A' for Active; 'I' for Inactive)
REMARK    1  A    between atoms: C_1  and  O_2
REMARK    2  A    between atoms: O_2  and  C_3
REMARK    3  A    between atoms: C_5  and  O_6
REMARK    4  A    between atoms: O_6  and  C_7
REMARK    5  A    between atoms: C_9  and  C_10
REMARK    6  A    between atoms: C_20  and  C_21
REMARK    7  A    between atoms: N_23  and  N_24
REMARK    8  A    between atoms: C_25  and  C_26
REMARK                            x       y       z     vdW  Elec       q    Type
REMARK                         _______ _______ _______ _____ _____    ______ ____
ROOT
ATOM      1  C   UNL     1      -1.729  10.596  18.283  0.00  0.00    +0.000 A 
ATOM      2  C   UNL     1      -2.857  11.395  18.509  0.00  0.00    +0.000 A 
ATOM      3  C   UNL     1      -2.929  12.300  19.579  0.00  0.00    +0.000 A 
ATOM      4  C   UNL     1      -1.844  12.370  20.491  0.00  0.00    +0.000 A 
ATOM      5  C   UNL     1      -1.574  13.123  21.700  0.00  0.00    +0.000 A 
ATOM      6  C   UNL     1      -0.299  12.778  22.105  0.00  0.00    +0.000 A 
ATOM      7  N   UNL     1       0.193  11.846  21.238  0.00  0.00    +0.000 N 
ATOM      8  C   UNL     1      -0.728  11.562  20.249  0.00  0.00    +0.000 A 
ATOM      9  C   UNL     1      -0.628  10.655  19.165  0.00  0.00    +0.000 A 
ATOM     10  H   UNL     1       1.104  11.398  21.281  0.00  0.00    +0.000 HD
ENDROOT
BRANCH   5  11
ATOM     11  C   UNL     1      -2.408  14.072  22.441  0.00  0.00    +0.000 A 
ATOM     12  C   UNL     1      -3.278  13.622  23.444  0.00  0.00    +0.000 A 
ATOM     13  C   UNL     1      -4.148  14.497  24.098  0.00  0.00    +0.000 A 
ATOM     14  C   UNL     1      -4.108  15.854  23.800  0.00  0.00    +0.000 A 
ATOM     15 BR   UNL     1      -5.279  17.041  24.690  0.00  0.00    +0.000 Br
ATOM     16  C   UNL     1      -3.208  16.338  22.855  0.00  0.00    +0.000 A 
ATOM     17  C   UNL     1      -2.367  15.449  22.172  0.00  0.00    +0.000 A 
ENDBRANCH   5  11
BRANCH   9  18
ATOM     18  C   UNL     1       0.636   9.852  19.027  0.00  0.00    +0.000 C 
ATOM     19  O   UNL     1       1.194   9.435  20.043  0.00  0.00    +0.000 OA
ATOM     20  N   UNL     1       1.107   9.633  17.742  0.00  0.00    +0.000 N 
ATOM     21  H   UNL     1       0.592  10.004  16.948  0.00  0.00    +0.000 HD
BRANCH  20  22
ATOM     22  N   UNL     1       2.265   8.936  17.551  0.00  0.00    +0.000 NA
ATOM     23  C   UNL     1       2.295   7.729  18.013  0.00  0.00    +0.000 C 
BRANCH  23  24
ATOM     24  C   UNL     1       3.472   6.921  17.851  0.00  0.00    +0.000 A 
ATOM     25  C   UNL     1       4.531   7.003  16.969  0.00  0.00    +0.000 A 
ATOM     26  C   UNL     1       5.393   5.924  17.271  0.00  0.00    +0.000 A 
ATOM     27  C   UNL     1       4.811   5.247  18.318  0.00  0.00    +0.000 A 
ATOM     28  O   UNL     1       3.646   5.847  18.680  0.00  0.00    +0.000 OA
ENDBRANCH  23  24
ENDBRANCH  20  22
ENDBRANCH   9  18
BRANCH   1  30
ATOM     29  C   UNL     1      -2.610   9.925  16.171  0.00  0.00    +0.000 C 
ATOM     30  O   UNL     1      -1.668   9.715  17.225  0.00  0.00    +0.000 OA
ENDBRANCH   1  30
BRANCH   3  31
ATOM     31  O   UNL     1      -3.987  13.150  19.772  0.00  0.00    +0.000 OA
ATOM     32  C   UNL     1      -5.185  12.640  20.336  0.00  0.00    +0.000 C 
ENDBRANCH   3  31
TORSDOF 6
ENDMDL
MODEL 5
REMARK VINA RESULT:      -6.6      1.386      1.739
REMARK  Name = 
REMARK  8 active torsions:
REMARK  status: ('A' for Active; 'I' for Inactive)
REMARK    1  A    between atoms: C_1  and  O_2
REMARK    2  A    between atoms: O_2  and  C_3
REMARK    3  A    between atoms: C_5  and  O_6
REMARK    4  A    between atoms: O_6  and  C_7
REMARK    5  A    between atoms: C_9  and  C_10
REMARK    6  A    between atoms: C_20  and  C_21
REMARK    7  A    between atoms: N_23  and  N_24
REMARK    8  A    between atoms: C_25  and  C_26
REMARK                            x       y       z     vdW  Elec       q    Type
REMARK                         _______ _______ _______ _____ _____    ______ ____
ROOT
ATOM      1  C   UNL     1       2.641   5.956  19.893  0.00  0.00    +0.000 A 
ATOM      2  C   UNL     1       1.782   6.509  20.852  0.00  0.00    +0.000 A 
ATOM      3  C   UNL     1       1.205   7.778  20.693  0.00  0.00    +0.000 A 
ATOM      4  C   UNL     1       1.541   8.546  19.548  0.00  0.00    +0.000 A 
ATOM      5  C   UNL     1       1.195   9.869  19.069  0.00  0.00    +0.000 A 
ATOM      6  C   UNL     1       1.814  10.023  17.844  0.00  0.00    +0.000 A 
ATOM      7  N   UNL     1       2.534   8.893  17.579  0.00  0.00    +0.000 N 
ATOM      8  C   UNL     1       2.403   7.976  18.604  0.00  0.00    +0.000 A 
ATOM      9  C   UNL     1       2.983   6.691  18.737  0.00  0.00    +0.000 A 
ATOM     10  H   UNL     1       3.101   8.714  16.755  0.00  0.00    +0.000 HD
ENDROOT
BRANCH   5  11
ATOM     11  C   UNL     1       0.377  10.922  19.676  0.00  0.00    +0.000 A 
ATOM     12  C   UNL     1       0.970  11.922  20.459  0.00  0.00    +0.000 A 
ATOM     13  C   UNL     1       0.199  12.879  21.123  0.00  0.00    +0.000 A 
ATOM     14  C   UNL     1      -1.180  12.887  20.952  0.00  0.00    +0.000 A 
ATOM     15 BR   UNL     1      -2.224  14.187  21.842  0.00  0.00    +0.000 Br
ATOM     16  C   UNL     1      -1.790  11.946  20.128  0.00  0.00    +0.000 A 
ATOM     17  C   UNL     1      -1.015  10.961  19.500  0.00  0.00    +0.000 A 
ENDBRANCH   5  11
BRANCH   9  18
ATOM     18  C   UNL     1       3.888   6.205  17.638  0.00  0.00    +0.000 C 
ATOM     19  O   UNL     1       4.646   7.007  17.090  0.00  0.00    +0.000 OA
ATOM     20  N   UNL     1       3.806   4.864  17.300  0.00  0.00    +0.000 N 
ATOM     21  H   UNL     1       3.159   4.259  17.798  0.00  0.00    +0.000 HD
BRANCH  20  22
ATOM     22  N   UNL     1       4.580   4.367  16.292  0.00  0.00    +0.000 NA
ATOM     23  C   UNL     1       5.098   5.233  15.482  0.00  0.00    +0.000 C 
BRANCH  23  24
ATOM     24  C   UNL     1       5.933   4.798  14.396  0.00  0.00    +0.000 A 
ATOM     25  C   UNL     1       5.803   3.763  13.491  0.00  0.00    +0.000 A 
ATOM     26  C   UNL     1       6.942   3.811  12.655  0.00  0.00    +0.000 A 
ATOM     27  C   UNL     1       7.700   4.870  13.099  0.00  0.00    +0.000 A 
ATOM     28  O   UNL     1       7.094   5.478  14.152  0.00  0.00    +0.000 OA
ENDBRANCH  23  24
ENDBRANCH  20  22
ENDBRANCH   9  18
BRANCH   1  30
ATOM     29  C   UNL     1       2.318   3.676  20.510  0.00  0.00    +0.000 C 
ATOM     30  O   UNL     1       3.198   4.706  20.057  0.00  0.00    +0.000 OA
ENDBRANCH   1  30
BRANCH   3  31
ATOM     31  O   UNL     1       0.299   8.304  21.577  0.00  0.00    +0.000 OA
ATOM     32  C   UNL     1       0.771   9.091  22.659  0.00  0.00    +0.000 C 
ENDBRANCH   3  31
TORSDOF 6
ENDMDL
MODEL 6
REMARK VINA RESULT:      -6.5      2.601      4.231
REMARK  Name = 
REMARK  8 active torsions:
REMARK  status: ('A' for Active; 'I' for Inactive)
REMARK    1  A    between atoms: C_1  and  O_2
REMARK    2  A    between atoms: O_2  and  C_3
REMARK    3  A    between atoms: C_5  and  O_6
REMARK    4  A    between atoms: O_6  and  C_7
REMARK    5  A    between atoms: C_9  and  C_10
REMARK    6  A    between atoms: C_20  and  C_21
REMARK    7  A    between atoms: N_23  and  N_24
REMARK    8  A    between atoms: C_25  and  C_26
REMARK                            x       y       z     vdW  Elec       q    Type
REMARK                         _______ _______ _______ _____ _____    ______ ____
ROOT
ATOM      1  C   UNL     1       1.059  10.916  19.300  0.00  0.00    +0.000 A 
ATOM      2  C   UNL     1       0.487  12.195  19.295  0.00  0.00    +0.000 A 
ATOM      3  C   UNL     1      -0.327  12.653  20.342  0.00  0.00    +0.000 A 
ATOM      4  C   UNL     1      -0.620  11.774  21.417  0.00  0.00    +0.000 A 
ATOM      5  C   UNL     1      -1.427  11.863  22.618  0.00  0.00    +0.000 A 
ATOM      6  C   UNL     1      -1.263  10.671  23.296  0.00  0.00    +0.000 A 
ATOM      7  N   UNL     1      -0.442   9.865  22.561  0.00  0.00    +0.000 N 
ATOM      8  C   UNL     1      -0.042  10.499  21.401  0.00  0.00    +0.000 A 
ATOM      9  C   UNL     1       0.796  10.024  20.362  0.00  0.00    +0.000 A 
ATOM     10  H   UNL     1      -0.143   8.923  22.799  0.00  0.00    +0.000 HD
ENDROOT
BRANCH   5  11
ATOM     11  C   UNL     1      -2.290  12.938  23.111  0.00  0.00    +0.000 A 
ATOM     12  C   UNL     1      -3.680  12.874  22.932  0.00  0.00    +0.000 A 
ATOM     13  C   UNL     1      -4.511  13.931  23.311  0.00  0.00    +0.000 A 
ATOM     14  C   UNL     1      -3.964  15.042  23.941  0.00  0.00    +0.000 A 
ATOM     15 BR   UNL     1      -5.089  16.469  24.462  0.00  0.00    +0.000 Br
ATOM     16  C   UNL     1      -2.596  15.104  24.190  0.00  0.00    +0.000 A 
ATOM     17  C   UNL     1      -1.761  14.060  23.769  0.00  0.00    +0.000 A 
ENDBRANCH   5  11
BRANCH   9  18
ATOM     18  C   UNL     1       1.352   8.632  20.482  0.00  0.00    +0.000 C 
ATOM     19  O   UNL     1       1.311   8.063  21.574  0.00  0.00    +0.000 OA
ATOM     20  N   UNL     1       1.892   8.067  19.337  0.00  0.00    +0.000 N 
ATOM     21  H   UNL     1       1.888   8.594  18.468  0.00  0.00    +0.000 HD
BRANCH  20  22
ATOM     22  N   UNL     1       2.438   6.818  19.386  0.00  0.00    +0.000 NA
ATOM     23  C   UNL     1       2.502   6.171  18.268  0.00  0.00    +0.000 C 
BRANCH  23  24
ATOM     24  C   UNL     1       3.068   4.851  18.228  0.00  0.00    +0.000 A 
ATOM     25  C   UNL     1       2.814   3.764  17.414  0.00  0.00    +0.000 A 
ATOM     26  C   UNL     1       3.669   2.726  17.848  0.00  0.00    +0.000 A 
ATOM     27  C   UNL     1       4.393   3.238  18.900  0.00  0.00    +0.000 A 
ATOM     28  O   UNL     1       4.038   4.528  19.135  0.00  0.00    +0.000 OA
ENDBRANCH  23  24
ENDBRANCH  20  22
ENDBRANCH   9  18
BRANCH   1  30
ATOM     29  C   UNL     1       2.712  11.459  17.670  0.00  0.00    +0.000 C 
ATOM     30  O   UNL     1       1.861  10.479  18.268  0.00  0.00    +0.000 OA
ENDBRANCH   1  30
BRANCH   3  31
ATOM     31  O   UNL     1      -0.829  13.927  20.399  0.00  0.00    +0.000 OA
ATOM     32  C   UNL     1      -0.419  14.871  19.423  0.00  0.00    +0.000 C 
ENDBRANCH   3  31
TORSDOF 6
ENDMDL
MODEL 7
REMARK VINA RESULT:      -6.5      1.641      2.110
REMARK  Name = 
REMARK  8 active torsions:
REMARK  status: ('A' for Active; 'I' for Inactive)
REMARK    1  A    between atoms: C_1  and  O_2
REMARK    2  A    between atoms: O_2  and  C_3
REMARK    3  A    between atoms: C_5  and  O_6
REMARK    4  A    between atoms: O_6  and  C_7
REMARK    5  A    between atoms: C_9  and  C_10
REMARK    6  A    between atoms: C_20  and  C_21
REMARK    7  A    between atoms: N_23  and  N_24
REMARK    8  A    between atoms: C_25  and  C_26
REMARK                            x       y       z     vdW  Elec       q    Type
REMARK                         _______ _______ _______ _____ _____    ______ ____
ROOT
ATOM      1  C   UNL     1       2.258   5.721  20.261  0.00  0.00    +0.000 A 
ATOM      2  C   UNL     1       1.543   6.507  21.173  0.00  0.00    +0.000 A 
ATOM      3  C   UNL     1       1.136   7.816  20.873  0.00  0.00    +0.000 A 
ATOM      4  C   UNL     1       1.507   8.379  19.624  0.00  0.00    +0.000 A 
ATOM      5  C   UNL     1       1.318   9.669  18.989  0.00  0.00    +0.000 A 
ATOM      6  C   UNL     1       1.879   9.578  17.730  0.00  0.00    +0.000 A 
ATOM      7  N   UNL     1       2.420   8.332  17.587  0.00  0.00    +0.000 N 
ATOM      8  C   UNL     1       2.224   7.579  18.728  0.00  0.00    +0.000 A 
ATOM      9  C   UNL     1       2.630   6.250  19.005  0.00  0.00    +0.000 A 
ATOM     10  H   UNL     1       2.907   7.972  16.771  0.00  0.00    +0.000 HD
ENDROOT
BRANCH   5  11
ATOM     11  C   UNL     1       0.690  10.895  19.486  0.00  0.00    +0.000 A 
ATOM     12  C   UNL     1       1.475  11.961  19.947  0.00  0.00    +0.000 A 
ATOM     13  C   UNL     1       0.896  13.101  20.510  0.00  0.00    +0.000 A 
ATOM     14  C   UNL     1      -0.487  13.216  20.555  0.00  0.00    +0.000 A 
ATOM     15 BR   UNL     1      -1.273  14.761  21.309  0.00  0.00    +0.000 Br
ATOM     16  C   UNL     1      -1.293  12.201  20.045  0.00  0.00    +0.000 A 
ATOM     17  C   UNL     1      -0.706  11.041  19.520  0.00  0.00    +0.000 A 
ENDBRANCH   5  11
BRANCH   9  18
ATOM     18  C   UNL     1       3.393   5.506  17.943  0.00  0.00    +0.000 C 
ATOM     19  O   UNL     1       2.858   4.549  17.382  0.00  0.00    +0.000 OA
ATOM     20  N   UNL     1       4.676   5.948  17.662  0.00  0.00    +0.000 N 
ATOM     21  H   UNL     1       5.052   6.748  18.162  0.00  0.00    +0.000 HD
BRANCH  20  22
ATOM     22  N   UNL     1       5.430   5.298  16.729  0.00  0.00    +0.000 NA
ATOM     23  C   UNL     1       5.174   5.568  15.490  0.00  0.00    +0.000 C 
BRANCH  23  24
ATOM     24  C   UNL     1       5.925   4.934  14.442  0.00  0.00    +0.000 A 
ATOM     25  C   UNL     1       7.247   5.046  14.058  0.00  0.00    +0.000 A 
ATOM     26  C   UNL     1       7.420   4.188  12.948  0.00  0.00    +0.000 A 
ATOM     27  C   UNL     1       6.195   3.604  12.718  0.00  0.00    +0.000 A 
ATOM     28  O   UNL     1       5.282   4.048  13.623  0.00  0.00    +0.000 OA
ENDBRANCH  23  24
ENDBRANCH  20  22
ENDBRANCH   9  18
BRANCH   1  30
ATOM     29  C   UNL     1       1.635   3.576  21.094  0.00  0.00    +0.000 C 
ATOM     30  O   UNL     1       2.647   4.434  20.564  0.00  0.00    +0.000 OA
ENDBRANCH   1  30
BRANCH   3  31
ATOM     31  O   UNL     1       0.366   8.573  21.716  0.00  0.00    +0.000 OA
ATOM     32  C   UNL     1       1.003   9.357  22.712  0.00  0.00    +0.000 C 
ENDBRANCH   3  31
TORSDOF 6
ENDMDL
MODEL 8
REMARK VINA RESULT:      -6.5      2.444      4.400
REMARK  Name = 
REMARK  8 active torsions:
REMARK  status: ('A' for Active; 'I' for Inactive)
REMARK    1  A    between atoms: C_1  and  O_2
REMARK    2  A    between atoms: O_2  and  C_3
REMARK    3  A    between atoms: C_5  and  O_6
REMARK    4  A    between atoms: O_6  and  C_7
REMARK    5  A    between atoms: C_9  and  C_10
REMARK    6  A    between atoms: C_20  and  C_21
REMARK    7  A    between atoms: N_23  and  N_24
REMARK    8  A    between atoms: C_25  and  C_26
REMARK                            x       y       z     vdW  Elec       q    Type
REMARK                         _______ _______ _______ _____ _____    ______ ____
ROOT
ATOM      1  C   UNL     1      -1.710  10.634  18.280  0.00  0.00    +0.000 A 
ATOM      2  C   UNL     1      -2.853  11.420  18.470  0.00  0.00    +0.000 A 
ATOM      3  C   UNL     1      -2.971  12.319  19.542  0.00  0.00    +0.000 A 
ATOM      4  C   UNL     1      -1.919  12.396  20.490  0.00  0.00    +0.000 A 
ATOM      5  C   UNL     1      -1.698  13.145  21.712  0.00  0.00    +0.000 A 
ATOM      6  C   UNL     1      -0.434  12.812  22.159  0.00  0.00    +0.000 A 
ATOM      7  N   UNL     1       0.097  11.889  21.305  0.00  0.00    +0.000 N 
ATOM      8  C   UNL     1      -0.786  11.600  20.283  0.00  0.00    +0.000 A 
ATOM      9  C   UNL     1      -0.640  10.699  19.200  0.00  0.00    +0.000 A 
ATOM     10  H   UNL     1       1.011  11.450  21.378  0.00  0.00    +0.000 HD
ENDROOT
BRANCH   5  11
ATOM     11  C   UNL     1      -2.567  14.082  22.428  0.00  0.00    +0.000 A 
ATOM     12  C   UNL     1      -2.566  15.445  22.100  0.00  0.00    +0.000 A 
ATOM     13  C   UNL     1      -3.317  16.369  22.832  0.00  0.00    +0.000 A 
ATOM     14  C   UNL     1      -4.135  15.925  23.863  0.00  0.00    +0.000 A 
ATOM     15 BR   UNL     1      -5.158  17.172  24.848  0.00  0.00    +0.000 Br
ATOM     16  C   UNL     1      -4.206  14.568  24.168  0.00  0.00    +0.000 A 
ATOM     17  C   UNL     1      -3.418  13.652  23.458  0.00  0.00    +0.000 A 
ENDBRANCH   5  11
BRANCH   9  18
ATOM     18  C   UNL     1       0.637   9.910  19.102  0.00  0.00    +0.000 C 
ATOM     19  O   UNL     1       1.140   9.457  20.131  0.00  0.00    +0.000 OA
ATOM     20  N   UNL     1       1.180   9.746  17.837  0.00  0.00    +0.000 N 
ATOM     21  H   UNL     1       0.708  10.144  17.031  0.00  0.00    +0.000 HD
BRANCH  20  22
ATOM     22  N   UNL     1       2.352   9.064  17.685  0.00  0.00    +0.000 NA
ATOM     23  C   UNL     1       2.294   7.778  17.815  0.00  0.00    +0.000 C 
BRANCH  23  24
ATOM     24  C   UNL     1       3.480   6.981  17.664  0.00  0.00    +0.000 A 
ATOM     25  C   UNL     1       4.057   6.025  18.476  0.00  0.00    +0.000 A 
ATOM     26  C   UNL     1       5.227   5.586  17.815  0.00  0.00    +0.000 A 
ATOM     27  C   UNL     1       5.296   6.299  16.640  0.00  0.00    +0.000 A 
ATOM     28  O   UNL     1       4.238   7.146  16.538  0.00  0.00    +0.000 OA
ENDBRANCH  23  24
ENDBRANCH  20  22
ENDBRANCH   9  18
BRANCH   1  30
ATOM     29  C   UNL     1      -2.598   9.874  16.202  0.00  0.00    +0.000 C 
ATOM     30  O   UNL     1      -1.603   9.758  17.221  0.00  0.00    +0.000 OA
ENDBRANCH   1  30
BRANCH   3  31
ATOM     31  O   UNL     1      -4.044  13.156  19.702  0.00  0.00    +0.000 OA
ATOM     32  C   UNL     1      -5.249  12.636  20.240  0.00  0.00    +0.000 C 
ENDBRANCH   3  31
TORSDOF 6
ENDMDL
MODEL 9
REMARK VINA RESULT:      -6.5      2.833      4.001
REMARK  Name = 
REMARK  8 active torsions:
REMARK  status: ('A' for Active; 'I' for Inactive)
REMARK    1  A    between atoms: C_1  and  O_2
REMARK    2  A    between atoms: O_2  and  C_3
REMARK    3  A    between atoms: C_5  and  O_6
REMARK    4  A    between atoms: O_6  and  C_7
REMARK    5  A    between atoms: C_9  and  C_10
REMARK    6  A    between atoms: C_20  and  C_21
REMARK    7  A    between atoms: N_23  and  N_24
REMARK    8  A    between atoms: C_25  and  C_26
REMARK                            x       y       z     vdW  Elec       q    Type
REMARK                         _______ _______ _______ _____ _____    ______ ____
ROOT
ATOM      1  C   UNL     1       0.795   9.806  18.994  0.00  0.00    +0.000 A 
ATOM      2  C   UNL     1       0.224  11.083  18.919  0.00  0.00    +0.000 A 
ATOM      3  C   UNL     1      -0.359  11.706  20.033  0.00  0.00    +0.000 A 
ATOM      4  C   UNL     1      -0.418  10.999  21.262  0.00  0.00    +0.000 A 
ATOM      5  C   UNL     1      -0.960  11.280  22.576  0.00  0.00    +0.000 A 
ATOM      6  C   UNL     1      -0.650  10.195  23.374  0.00  0.00    +0.000 A 
ATOM      7  N   UNL     1       0.009   9.273  22.612  0.00  0.00    +0.000 N 
ATOM      8  C   UNL     1       0.155   9.723  21.314  0.00  0.00    +0.000 A 
ATOM      9  C   UNL     1       0.764   9.083  20.207  0.00  0.00    +0.000 A 
ATOM     10  H   UNL     1       0.357   8.369  22.919  0.00  0.00    +0.000 HD
ENDROOT
BRANCH   5  11
ATOM     11  C   UNL     1      -1.711  12.434  23.073  0.00  0.00    +0.000 A 
ATOM     12  C   UNL     1      -1.084  13.678  23.230  0.00  0.00    +0.000 A 
ATOM     13  C   UNL     1      -1.756  14.767  23.790  0.00  0.00    +0.000 A 
ATOM     14  C   UNL     1      -3.096  14.641  24.136  0.00  0.00    +0.000 A 
ATOM     15 BR   UNL     1      -4.010  16.115  24.885  0.00  0.00    +0.000 Br
ATOM     16  C   UNL     1      -3.763  13.436  23.931  0.00  0.00    +0.000 A 
ATOM     17  C   UNL     1      -3.071  12.335  23.409  0.00  0.00    +0.000 A 
ENDBRANCH   5  11
BRANCH   9  18
ATOM     18  C   UNL     1       1.344   7.711  20.412  0.00  0.00    +0.000 C 
ATOM     19  O   UNL     1       1.017   7.067  21.410  0.00  0.00    +0.000 OA
ATOM     20  N   UNL     1       2.232   7.251  19.453  0.00  0.00    +0.000 N 
ATOM     21  H   UNL     1       2.453   7.835  18.652  0.00  0.00    +0.000 HD
BRANCH  20  22
ATOM     22  N   UNL     1       2.814   6.025  19.596  0.00  0.00    +0.000 NA
ATOM     23  C   UNL     1       2.426   5.102  18.778  0.00  0.00    +0.000 C 
BRANCH  23  24
ATOM     24  C   UNL     1       2.991   3.783  18.854  0.00  0.00    +0.000 A 
ATOM     25  C   UNL     1       2.827   2.664  18.063  0.00  0.00    +0.000 A 
ATOM     26  C   UNL     1       3.628   1.647  18.630  0.00  0.00    +0.000 A 
ATOM     27  C   UNL     1       4.234   2.204  19.733  0.00  0.00    +0.000 A 
ATOM     28  O   UNL     1       3.856   3.502  19.874  0.00  0.00    +0.000 OA
ENDBRANCH  23  24
ENDBRANCH  20  22
ENDBRANCH   9  18
BRANCH   1  30
ATOM     29  C   UNL     1       2.616   9.752  17.456  0.00  0.00    +0.000 C 
ATOM     30  O   UNL     1       1.370   9.206  17.894  0.00  0.00    +0.000 OA
ENDBRANCH   1  30
BRANCH   3  31
ATOM     31  O   UNL     1      -0.849  12.986  20.004  0.00  0.00    +0.000 OA
ATOM     32  C   UNL     1      -0.200  13.953  19.194  0.00  0.00    +0.000 C 
ENDBRANCH   3  31
TORSDOF 6
ENDMDL
