MODEL 1
REMARK VINA RESULT:      -8.5      0.000      0.000
REMARK  Name = 
REMARK  6 active torsions:
REMARK  status: ('A' for Active; 'I' for Inactive)
REMARK    1  A    between atoms: C_1  and  N_2
REMARK    2  A    between atoms: C_3  and  C_4
REMARK    3  A    between atoms: C_7  and  C_8
REMARK    4  A    between atoms: C_15  and  C_16
REMARK    5  A    between atoms: C_21  and  C_22
REMARK    6  A    between atoms: C_22  and  C_23
REMARK                            x       y       z     vdW  Elec       q    Type
REMARK                         _______ _______ _______ _____ _____    ______ ____
ROOT
ATOM      1  C   UNL     1       1.478  10.305  18.423  0.00  0.00    +0.000 C 
ATOM      2  N   UNL     1       1.241   9.409  19.525  0.00  0.00    +0.000 N 
ATOM      3  C   UNL     1       1.687   8.114  19.697  0.00  0.00    +0.000 A 
ATOM      4  N   UNL     1       1.293   7.702  20.889  0.00  0.00    +0.000 NA
ATOM      5  N   UNL     1       0.575   8.702  21.489  0.00  0.00    +0.000 NA
ATOM      6  C   UNL     1       0.531   9.721  20.659  0.00  0.00    +0.000 A 
ENDROOT
BRANCH   3   7
ATOM      7  C   UNL     1       2.548   7.351  18.791  0.00  0.00    +0.000 A 
ATOM      8  C   UNL     1       3.230   8.055  17.787  0.00  0.00    +0.000 A 
ATOM      9  C   UNL     1       4.109   7.417  16.915  0.00  0.00    +0.000 A 
ATOM     10  C   UNL     1       4.401   6.055  17.049  0.00  0.00    +0.000 A 
ATOM     11  C   UNL     1       3.727   5.345  18.060  0.00  0.00    +0.000 A 
ATOM     12  C   UNL     1       2.808   5.973  18.929  0.00  0.00    +0.000 A 
BRANCH  10  13
ATOM     13  C   UNL     1       5.368   5.394  16.156  0.00  0.00    +0.000 A 
ATOM     14  C   UNL     1       6.723   5.729  16.118  0.00  0.00    +0.000 A 
ATOM     15  N   UNL     1       7.623   5.155  15.282  0.00  0.00    +0.000 NA
ATOM     16  C   UNL     1       7.108   4.212  14.471  0.00  0.00    +0.000 A 
ATOM     17  C   UNL     1       5.773   3.855  14.502  0.00  0.00    +0.000 A 
ATOM     18  N   UNL     1       4.877   4.423  15.346  0.00  0.00    +0.000 NA
ENDBRANCH  10  13
BRANCH  12  19
ATOM     19  C   UNL     1       2.084   5.116  19.915  0.00  0.00    +0.000 C 
ATOM     20  N   UNL     1       2.591   5.060  21.184  0.00  0.00    +0.000 N 
ATOM     21  O   UNL     1       1.113   4.445  19.595  0.00  0.00    +0.000 OA
ATOM     22  H   UNL     1       3.352   5.632  21.521  0.00  0.00    +0.000 HD
ATOM     23  H   UNL     1       2.066   4.519  21.856  0.00  0.00    +0.000 HD
ENDBRANCH  12  19
ENDBRANCH   3   7
BRANCH   6  24
ATOM     24  C   UNL     1      -0.384  10.942  20.888  0.00  0.00    +0.000 C 
ATOM     25  C   UNL     1      -1.090  10.939  22.279  0.00  0.00    +0.000 C 
ATOM     26  C   UNL     1      -0.814  12.456  22.345  0.00  0.00    +0.000 C 
ATOM     27  C   UNL     1       0.366  12.222  21.380  0.00  0.00    +0.000 C 
BRANCH  24  28
ATOM     28  C   UNL     1      -1.313  11.034  19.556  0.00  0.00    +0.000 A 
ATOM     29  C   UNL     1      -1.972   9.877  19.075  0.00  0.00    +0.000 A 
ATOM     30  C   UNL     1      -2.491   9.798  17.781  0.00  0.00    +0.000 A 
ATOM     31  C   UNL     1      -2.394  10.897  16.939  0.00  0.00    +0.000 A 
ATOM     32 CL   UNL     1      -2.879  10.768  15.294  0.00  0.00    +0.000 Cl
ATOM     33  C   UNL     1      -1.866  12.093  17.412  0.00  0.00    +0.000 A 
ATOM     34  C   UNL     1      -1.354  12.164  18.712  0.00  0.00    +0.000 A 
ENDBRANCH  24  28
ENDBRANCH   6  24
TORSDOF 5
ENDMDL
MODEL 2
REMARK VINA RESULT:      -8.3      3.270      5.006
REMARK  Name = 
REMARK  6 active torsions:
REMARK  status: ('A' for Active; 'I' for Inactive)
REMARK    1  A    between atoms: C_1  and  N_2
REMARK    2  A    between atoms: C_3  and  C_4
REMARK    3  A    between atoms: C_7  and  C_8
REMARK    4  A    between atoms: C_15  and  C_16
REMARK    5  A    between atoms: C_21  and  C_22
REMARK    6  A    between atoms: C_22  and  C_23
REMARK                            x       y       z     vdW  Elec       q    Type
REMARK                         _______ _______ _______ _____ _____    ______ ____
ROOT
ATOM      1  C   UNL     1       2.183  12.619  20.235  0.00  0.00    +0.000 C 
ATOM      2  N   UNL     1       0.834  12.380  19.790  0.00  0.00    +0.000 N 
ATOM      3  C   UNL     1       0.271  11.205  19.333  0.00  0.00    +0.000 A 
ATOM      4  N   UNL     1      -1.011  11.428  19.107  0.00  0.00    +0.000 NA
ATOM      5  N   UNL     1      -1.289  12.739  19.387  0.00  0.00    +0.000 NA
ATOM      6  C   UNL     1      -0.174  13.313  19.782  0.00  0.00    +0.000 A 
ENDROOT
BRANCH   3   7
ATOM      7  C   UNL     1       0.925   9.898  19.225  0.00  0.00    +0.000 A 
ATOM      8  C   UNL     1       1.432   9.521  17.973  0.00  0.00    +0.000 A 
ATOM      9  C   UNL     1       2.113   8.320  17.791  0.00  0.00    +0.000 A 
ATOM     10  C   UNL     1       2.380   7.468  18.869  0.00  0.00    +0.000 A 
ATOM     11  C   UNL     1       1.881   7.845  20.130  0.00  0.00    +0.000 A 
ATOM     12  C   UNL     1       1.159   9.044  20.320  0.00  0.00    +0.000 A 
BRANCH  10  13
ATOM     13  C   UNL     1       3.142   6.223  18.682  0.00  0.00    +0.000 A 
ATOM     14  C   UNL     1       4.007   6.012  17.605  0.00  0.00    +0.000 A 
ATOM     15  N   UNL     1       4.693   4.862  17.399  0.00  0.00    +0.000 NA
ATOM     16  C   UNL     1       4.482   3.911  18.328  0.00  0.00    +0.000 A 
ATOM     17  C   UNL     1       3.643   4.104  19.408  0.00  0.00    +0.000 A 
ATOM     18  N   UNL     1       2.965   5.259  19.620  0.00  0.00    +0.000 NA
ENDBRANCH  10  13
BRANCH  12  19
ATOM     19  C   UNL     1       0.602   9.313  21.679  0.00  0.00    +0.000 C 
ATOM     20  N   UNL     1      -0.611   8.757  21.978  0.00  0.00    +0.000 N 
ATOM     21  O   UNL     1       1.172  10.043  22.478  0.00  0.00    +0.000 OA
ATOM     22  H   UNL     1      -1.100   8.101  21.386  0.00  0.00    +0.000 HD
ATOM     23  H   UNL     1      -0.955   8.901  22.917  0.00  0.00    +0.000 HD
ENDBRANCH  12  19
ENDBRANCH   3   7
BRANCH   6  24
ATOM     24  C   UNL     1      -0.041  14.840  19.960  0.00  0.00    +0.000 C 
ATOM     25  C   UNL     1       1.408  15.370  19.723  0.00  0.00    +0.000 C 
ATOM     26  C   UNL     1       0.774  16.569  18.987  0.00  0.00    +0.000 C 
ATOM     27  C   UNL     1      -0.446  15.670  18.700  0.00  0.00    +0.000 C 
BRANCH  24  28
ATOM     28  C   UNL     1      -0.754  15.167  21.385  0.00  0.00    +0.000 A 
ATOM     29  C   UNL     1      -0.355  14.468  22.549  0.00  0.00    +0.000 A 
ATOM     30  C   UNL     1      -1.135  14.443  23.708  0.00  0.00    +0.000 A 
ATOM     31  C   UNL     1      -2.327  15.152  23.743  0.00  0.00    +0.000 A 
ATOM     32 CL   UNL     1      -3.378  15.003  25.096  0.00  0.00    +0.000 Cl
ATOM     33  C   UNL     1      -2.695  15.949  22.666  0.00  0.00    +0.000 A 
ATOM     34  C   UNL     1      -1.905  15.973  21.512  0.00  0.00    +0.000 A 
ENDBRANCH  24  28
ENDBRANCH   6  24
TORSDOF 5
ENDMDL
MODEL 3
REMARK VINA RESULT:      -8.3      3.183      4.682
REMARK  Name = 
REMARK  6 active torsions:
REMARK  status: ('A' for Active; 'I' for Inactive)
REMARK    1  A    between atoms: C_1  and  N_2
REMARK    2  A    between atoms: C_3  and  C_4
REMARK    3  A    between atoms: C_7  and  C_8
REMARK    4  A    between atoms: C_15  and  C_16
REMARK    5  A    between atoms: C_21  and  C_22
REMARK    6  A    between atoms: C_22  and  C_23
REMARK                            x       y       z     vdW  Elec       q    Type
REMARK                         _______ _______ _______ _____ _____    ______ ____
ROOT
ATOM      1  C   UNL     1      -1.405  11.824  19.254  0.00  0.00    +0.000 C 
ATOM      2  N   UNL     1      -0.307  12.215  20.099  0.00  0.00    +0.000 N 
ATOM      3  C   UNL     1       0.852  11.521  20.387  0.00  0.00    +0.000 A 
ATOM      4  N   UNL     1       1.612  12.292  21.144  0.00  0.00    +0.000 NA
ATOM      5  N   UNL     1       0.956  13.472  21.375  0.00  0.00    +0.000 NA
ATOM      6  C   UNL     1      -0.204  13.416  20.759  0.00  0.00    +0.000 A 
ENDROOT
BRANCH   3   7
ATOM      7  C   UNL     1       1.248  10.212  19.861  0.00  0.00    +0.000 A 
ATOM      8  C   UNL     1       1.680  10.145  18.528  0.00  0.00    +0.000 A 
ATOM      9  C   UNL     1       2.124   8.952  17.963  0.00  0.00    +0.000 A 
ATOM     10  C   UNL     1       2.223   7.782  18.724  0.00  0.00    +0.000 A 
ATOM     11  C   UNL     1       1.799   7.845  20.064  0.00  0.00    +0.000 A 
ATOM     12  C   UNL     1       1.315   9.041  20.640  0.00  0.00    +0.000 A 
BRANCH  10  13
ATOM     13  C   UNL     1       2.738   6.534  18.136  0.00  0.00    +0.000 A 
ATOM     14  C   UNL     1       2.013   5.340  18.128  0.00  0.00    +0.000 A 
ATOM     15  N   UNL     1       2.482   4.173  17.620  0.00  0.00    +0.000 NA
ATOM     16  C   UNL     1       3.724   4.246  17.109  0.00  0.00    +0.000 A 
ATOM     17  C   UNL     1       4.452   5.420  17.094  0.00  0.00    +0.000 A 
ATOM     18  N   UNL     1       3.979   6.589  17.592  0.00  0.00    +0.000 NA
ENDBRANCH  10  13
BRANCH  12  19
ATOM     19  C   UNL     1       0.813   8.983  22.045  0.00  0.00    +0.000 C 
ATOM     20  N   UNL     1      -0.504   8.660  22.226  0.00  0.00    +0.000 N 
ATOM     21  O   UNL     1       1.527   9.267  22.998  0.00  0.00    +0.000 OA
ATOM     22  H   UNL     1      -1.124   8.361  21.488  0.00  0.00    +0.000 HD
ATOM     23  H   UNL     1      -0.820   8.573  23.182  0.00  0.00    +0.000 HD
ENDBRANCH  12  19
ENDBRANCH   3   7
BRANCH   6  24
ATOM     24  C   UNL     1      -1.316  14.462  20.981  0.00  0.00    +0.000 C 
ATOM     25  C   UNL     1      -0.802  15.790  21.620  0.00  0.00    +0.000 C 
ATOM     26  C   UNL     1      -1.742  16.539  20.652  0.00  0.00    +0.000 C 
ATOM     27  C   UNL     1      -1.653  15.317  19.715  0.00  0.00    +0.000 C 
BRANCH  24  28
ATOM     28  C   UNL     1      -2.513  13.661  21.735  0.00  0.00    +0.000 A 
ATOM     29  C   UNL     1      -3.816  13.659  21.184  0.00  0.00    +0.000 A 
ATOM     30  C   UNL     1      -4.941  13.298  21.929  0.00  0.00    +0.000 A 
ATOM     31  C   UNL     1      -4.784  12.891  23.246  0.00  0.00    +0.000 A 
ATOM     32 CL   UNL     1      -6.165  12.599  24.228  0.00  0.00    +0.000 Cl
ATOM     33  C   UNL     1      -3.511  12.761  23.788  0.00  0.00    +0.000 A 
ATOM     34  C   UNL     1      -2.390  13.120  23.032  0.00  0.00    +0.000 A 
ENDBRANCH  24  28
ENDBRANCH   6  24
TORSDOF 5
ENDMDL
MODEL 4
REMARK VINA RESULT:      -8.3      3.314      4.572
REMARK  Name = 
REMARK  6 active torsions:
REMARK  status: ('A' for Active; 'I' for Inactive)
REMARK    1  A    between atoms: C_1  and  N_2
REMARK    2  A    between atoms: C_3  and  C_4
REMARK    3  A    between atoms: C_7  and  C_8
REMARK    4  A    between atoms: C_15  and  C_16
REMARK    5  A    between atoms: C_21  and  C_22
REMARK    6  A    between atoms: C_22  and  C_23
REMARK                            x       y       z     vdW  Elec       q    Type
REMARK                         _______ _______ _______ _____ _____    ______ ____
ROOT
ATOM      1  C   UNL     1       1.661  12.458  21.114  0.00  0.00    +0.000 C 
ATOM      2  N   UNL     1       0.371  12.205  20.527  0.00  0.00    +0.000 N 
ATOM      3  C   UNL     1      -0.051  11.101  19.813  0.00  0.00    +0.000 A 
ATOM      4  N   UNL     1      -1.333  11.263  19.533  0.00  0.00    +0.000 NA
ATOM      5  N   UNL     1      -1.747  12.468  20.033  0.00  0.00    +0.000 NA
ATOM      6  C   UNL     1      -0.716  13.039  20.615  0.00  0.00    +0.000 A 
ENDROOT
BRANCH   3   7
ATOM      7  C   UNL     1       0.725   9.896  19.512  0.00  0.00    +0.000 A 
ATOM      8  C   UNL     1       1.191   9.728  18.199  0.00  0.00    +0.000 A 
ATOM      9  C   UNL     1       1.979   8.639  17.837  0.00  0.00    +0.000 A 
ATOM     10  C   UNL     1       2.399   7.700  18.786  0.00  0.00    +0.000 A 
ATOM     11  C   UNL     1       1.942   7.868  20.107  0.00  0.00    +0.000 A 
ATOM     12  C   UNL     1       1.114   8.949  20.479  0.00  0.00    +0.000 A 
BRANCH  10  13
ATOM     13  C   UNL     1       3.272   6.576  18.410  0.00  0.00    +0.000 A 
ATOM     14  C   UNL     1       3.481   5.465  19.231  0.00  0.00    +0.000 A 
ATOM     15  N   UNL     1       4.305   4.436  18.916  0.00  0.00    +0.000 NA
ATOM     16  C   UNL     1       4.922   4.558  17.727  0.00  0.00    +0.000 A 
ATOM     17  C   UNL     1       4.718   5.641  16.893  0.00  0.00    +0.000 A 
ATOM     18  N   UNL     1       3.886   6.665  17.203  0.00  0.00    +0.000 NA
ENDBRANCH  10  13
BRANCH  12  19
ATOM     19  C   UNL     1       0.617   8.993  21.887  0.00  0.00    +0.000 C 
ATOM     20  N   UNL     1      -0.652   8.536  22.116  0.00  0.00    +0.000 N 
ATOM     21  O   UNL     1       1.287   9.467  22.794  0.00  0.00    +0.000 OA
ATOM     22  H   UNL     1      -1.229   8.082  21.423  0.00  0.00    +0.000 HD
ATOM     23  H   UNL     1      -0.960   8.521  23.079  0.00  0.00    +0.000 HD
ENDBRANCH  12  19
ENDBRANCH   3   7
BRANCH   6  24
ATOM     24  C   UNL     1      -0.736  14.508  21.090  0.00  0.00    +0.000 C 
ATOM     25  C   UNL     1      -2.037  14.896  21.860  0.00  0.00    +0.000 C 
ATOM     26  C   UNL     1      -1.141  15.693  22.831  0.00  0.00    +0.000 C 
ATOM     27  C   UNL     1       0.018  14.756  22.436  0.00  0.00    +0.000 C 
BRANCH  24  28
ATOM     28  C   UNL     1      -0.328  15.384  19.782  0.00  0.00    +0.000 A 
ATOM     29  C   UNL     1       1.009  15.380  19.320  0.00  0.00    +0.000 A 
ATOM     30  C   UNL     1       1.498  16.350  18.441  0.00  0.00    +0.000 A 
ATOM     31  C   UNL     1       0.643  17.336  17.970  0.00  0.00    +0.000 A 
ATOM     32 CL   UNL     1       1.261  18.630  17.020  0.00  0.00    +0.000 Cl
ATOM     33  C   UNL     1      -0.706  17.305  18.302  0.00  0.00    +0.000 A 
ATOM     34  C   UNL     1      -1.188  16.326  19.178  0.00  0.00    +0.000 A 
ENDBRANCH  24  28
ENDBRANCH   6  24
TORSDOF 5
ENDMDL
MODEL 5
REMARK VINA RESULT:      -8.2      2.963      4.391
REMARK  Name = 
REMARK  6 active torsions:
REMARK  status: ('A' for Active; 'I' for Inactive)
REMARK    1  A    between atoms: C_1  and  N_2
REMARK    2  A    between atoms: C_3  and  C_4
REMARK    3  A    between atoms: C_7  and  C_8
REMARK    4  A    between atoms: C_15  and  C_16
REMARK    5  A    between atoms: C_21  and  C_22
REMARK    6  A    between atoms: C_22  and  C_23
REMARK                            x       y       z     vdW  Elec       q    Type
REMARK                         _______ _______ _______ _____ _____    ______ ____
ROOT
ATOM      1  C   UNL     1       1.352  12.175  21.012  0.00  0.00    +0.000 C 
ATOM      2  N   UNL     1       0.154  11.864  20.276  0.00  0.00    +0.000 N 
ATOM      3  C   UNL     1      -0.118  10.758  19.495  0.00  0.00    +0.000 A 
ATOM      4  N   UNL     1      -1.366  10.853  19.073  0.00  0.00    +0.000 NA
ATOM      5  N   UNL     1      -1.907  12.018  19.548  0.00  0.00    +0.000 NA
ATOM      6  C   UNL     1      -0.985  12.631  20.256  0.00  0.00    +0.000 A 
ENDROOT
BRANCH   3   7
ATOM      7  C   UNL     1       0.760   9.609  19.260  0.00  0.00    +0.000 A 
ATOM      8  C   UNL     1       1.397   9.515  18.013  0.00  0.00    +0.000 A 
ATOM      9  C   UNL     1       2.287   8.485  17.722  0.00  0.00    +0.000 A 
ATOM     10  C   UNL     1       2.636   7.534  18.689  0.00  0.00    +0.000 A 
ATOM     11  C   UNL     1       2.007   7.628  19.944  0.00  0.00    +0.000 A 
ATOM     12  C   UNL     1       1.077   8.648  20.240  0.00  0.00    +0.000 A 
BRANCH  10  13
ATOM     13  C   UNL     1       3.614   6.474  18.394  0.00  0.00    +0.000 A 
ATOM     14  C   UNL     1       4.272   6.365  17.166  0.00  0.00    +0.000 A 
ATOM     15  N   UNL     1       5.152   5.379  16.864  0.00  0.00    +0.000 NA
ATOM     16  C   UNL     1       5.356   4.490  17.853  0.00  0.00    +0.000 A 
ATOM     17  C   UNL     1       4.727   4.588  19.079  0.00  0.00    +0.000 A 
ATOM     18  N   UNL     1       3.855   5.581  19.385  0.00  0.00    +0.000 NA
ENDBRANCH  10  13
BRANCH  12  19
ATOM     19  C   UNL     1       0.404   8.612  21.573  0.00  0.00    +0.000 C 
ATOM     20  N   UNL     1       1.102   9.108  22.639  0.00  0.00    +0.000 N 
ATOM     21  O   UNL     1      -0.701   8.110  21.724  0.00  0.00    +0.000 OA
ATOM     22  H   UNL     1       1.989   9.585  22.568  0.00  0.00    +0.000 HD
ATOM     23  H   UNL     1       0.619   9.126  23.526  0.00  0.00    +0.000 HD
ENDBRANCH  12  19
ENDBRANCH   3   7
BRANCH   6  24
ATOM     24  C   UNL     1      -1.147  14.083  20.756  0.00  0.00    +0.000 C 
ATOM     25  C   UNL     1       0.191  14.730  21.232  0.00  0.00    +0.000 C 
ATOM     26  C   UNL     1      -0.272  16.029  20.539  0.00  0.00    +0.000 C 
ATOM     27  C   UNL     1      -1.148  15.155  19.619  0.00  0.00    +0.000 C 
BRANCH  24  28
ATOM     28  C   UNL     1      -2.392  14.038  21.801  0.00  0.00    +0.000 A 
ATOM     29  C   UNL     1      -2.328  13.197  22.938  0.00  0.00    +0.000 A 
ATOM     30  C   UNL     1      -3.463  12.850  23.674  0.00  0.00    +0.000 A 
ATOM     31  C   UNL     1      -4.697  13.369  23.309  0.00  0.00    +0.000 A 
ATOM     32 CL   UNL     1      -6.126  12.828  24.098  0.00  0.00    +0.000 Cl
ATOM     33  C   UNL     1      -4.786  14.294  22.276  0.00  0.00    +0.000 A 
ATOM     34  C   UNL     1      -3.642  14.640  21.548  0.00  0.00    +0.000 A 
ENDBRANCH  24  28
ENDBRANCH   6  24
TORSDOF 5
ENDMDL
MODEL 6
REMARK VINA RESULT:      -8.2      3.268      4.980
REMARK  Name = 
REMARK  6 active torsions:
REMARK  status: ('A' for Active; 'I' for Inactive)
REMARK    1  A    between atoms: C_1  and  N_2
REMARK    2  A    between atoms: C_3  and  C_4
REMARK    3  A    between atoms: C_7  and  C_8
REMARK    4  A    between atoms: C_15  and  C_16
REMARK    5  A    between atoms: C_21  and  C_22
REMARK    6  A    between atoms: C_22  and  C_23
REMARK                            x       y       z     vdW  Elec       q    Type
REMARK                         _______ _______ _______ _____ _____    ______ ____
ROOT
ATOM      1  C   UNL     1       2.144  12.447  20.442  0.00  0.00    +0.000 C 
ATOM      2  N   UNL     1       0.832  12.197  19.903  0.00  0.00    +0.000 N 
ATOM      3  C   UNL     1       0.338  11.041  19.333  0.00  0.00    +0.000 A 
ATOM      4  N   UNL     1      -0.937  11.239  19.048  0.00  0.00    +0.000 NA
ATOM      5  N   UNL     1      -1.276  12.518  19.401  0.00  0.00    +0.000 NA
ATOM      6  C   UNL     1      -0.207  13.096  19.900  0.00  0.00    +0.000 A 
ENDROOT
BRANCH   3   7
ATOM      7  C   UNL     1       1.043   9.767  19.173  0.00  0.00    +0.000 A 
ATOM      8  C   UNL     1       1.709   9.534  17.960  0.00  0.00    +0.000 A 
ATOM      9  C   UNL     1       2.447   8.373  17.742  0.00  0.00    +0.000 A 
ATOM     10  C   UNL     1       2.611   7.418  18.752  0.00  0.00    +0.000 A 
ATOM     11  C   UNL     1       1.952   7.650  19.974  0.00  0.00    +0.000 A 
ATOM     12  C   UNL     1       1.173   8.807  20.195  0.00  0.00    +0.000 A 
BRANCH  10  13
ATOM     13  C   UNL     1       3.430   6.215  18.534  0.00  0.00    +0.000 A 
ATOM     14  C   UNL     1       3.678   5.271  19.534  0.00  0.00    +0.000 A 
ATOM     15  N   UNL     1       4.455   4.173  19.363  0.00  0.00    +0.000 NA
ATOM     16  C   UNL     1       4.984   4.050  18.131  0.00  0.00    +0.000 A 
ATOM     17  C   UNL     1       4.740   4.964  17.124  0.00  0.00    +0.000 A 
ATOM     18  N   UNL     1       3.954   6.056  17.293  0.00  0.00    +0.000 NA
ENDBRANCH  10  13
BRANCH  12  19
ATOM     19  C   UNL     1       0.448   8.919  21.497  0.00  0.00    +0.000 C 
ATOM     20  N   UNL     1       1.131   9.469  22.547  0.00  0.00    +0.000 N 
ATOM     21  O   UNL     1      -0.688   8.490  21.642  0.00  0.00    +0.000 OA
ATOM     22  H   UNL     1       2.045   9.892  22.474  0.00  0.00    +0.000 HD
ATOM     23  H   UNL     1       0.616   9.588  23.408  0.00  0.00    +0.000 HD
ENDBRANCH  12  19
ENDBRANCH   3   7
BRANCH   6  24
ATOM     24  C   UNL     1      -0.138  14.610  20.192  0.00  0.00    +0.000 C 
ATOM     25  C   UNL     1       1.062  15.325  19.495  0.00  0.00    +0.000 C 
ATOM     26  C   UNL     1       0.100  16.493  19.192  0.00  0.00    +0.000 C 
ATOM     27  C   UNL     1      -1.061  15.481  19.278  0.00  0.00    +0.000 C 
BRANCH  24  28
ATOM     28  C   UNL     1      -0.276  14.740  21.807  0.00  0.00    +0.000 A 
ATOM     29  C   UNL     1      -1.058  13.804  22.525  0.00  0.00    +0.000 A 
ATOM     30  C   UNL     1      -1.496  14.044  23.829  0.00  0.00    +0.000 A 
ATOM     31  C   UNL     1      -1.129  15.220  24.467  0.00  0.00    +0.000 A 
ATOM     32 CL   UNL     1      -1.790  15.608  26.007  0.00  0.00    +0.000 Cl
ATOM     33  C   UNL     1      -0.262  16.110  23.843  0.00  0.00    +0.000 A 
ATOM     34  C   UNL     1       0.176  15.859  22.538  0.00  0.00    +0.000 A 
ENDBRANCH  24  28
ENDBRANCH   6  24
TORSDOF 5
ENDMDL
MODEL 7
REMARK VINA RESULT:      -8.2      3.098      4.506
REMARK  Name = 
REMARK  6 active torsions:
REMARK  status: ('A' for Active; 'I' for Inactive)
REMARK    1  A    between atoms: C_1  and  N_2
REMARK    2  A    between atoms: C_3  and  C_4
REMARK    3  A    between atoms: C_7  and  C_8
REMARK    4  A    between atoms: C_15  and  C_16
REMARK    5  A    between atoms: C_21  and  C_22
REMARK    6  A    between atoms: C_22  and  C_23
REMARK                            x       y       z     vdW  Elec       q    Type
REMARK                         _______ _______ _______ _____ _____    ______ ____
ROOT
ATOM      1  C   UNL     1       1.990  12.114  20.511  0.00  0.00    +0.000 C 
ATOM      2  N   UNL     1       0.809  11.912  19.712  0.00  0.00    +0.000 N 
ATOM      3  C   UNL     1       0.419  10.785  19.016  0.00  0.00    +0.000 A 
ATOM      4  N   UNL     1      -0.769  11.022  18.489  0.00  0.00    +0.000 NA
ATOM      5  N   UNL     1      -1.151  12.297  18.812  0.00  0.00    +0.000 NA
ATOM      6  C   UNL     1      -0.193  12.834  19.533  0.00  0.00    +0.000 A 
ENDROOT
BRANCH   3   7
ATOM      7  C   UNL     1       1.120   9.500  18.956  0.00  0.00    +0.000 A 
ATOM      8  C   UNL     1       1.723   9.138  17.743  0.00  0.00    +0.000 A 
ATOM      9  C   UNL     1       2.453   7.960  17.611  0.00  0.00    +0.000 A 
ATOM     10  C   UNL     1       2.673   7.117  18.707  0.00  0.00    +0.000 A 
ATOM     11  C   UNL     1       2.077   7.478  19.930  0.00  0.00    +0.000 A 
ATOM     12  C   UNL     1       1.306   8.654  20.067  0.00  0.00    +0.000 A 
BRANCH  10  13
ATOM     13  C   UNL     1       3.485   5.896  18.577  0.00  0.00    +0.000 A 
ATOM     14  C   UNL     1       4.603   5.636  19.373  0.00  0.00    +0.000 A 
ATOM     15  N   UNL     1       5.382   4.533  19.248  0.00  0.00    +0.000 NA
ATOM     16  C   UNL     1       4.993   3.683  18.280  0.00  0.00    +0.000 A 
ATOM     17  C   UNL     1       3.883   3.914  17.491  0.00  0.00    +0.000 A 
ATOM     18  N   UNL     1       3.098   5.011  17.625  0.00  0.00    +0.000 NA
ENDBRANCH  10  13
BRANCH  12  19
ATOM     19  C   UNL     1       0.649   8.906  21.385  0.00  0.00    +0.000 C 
ATOM     20  N   UNL     1       1.467   9.123  22.459  0.00  0.00    +0.000 N 
ATOM     21  O   UNL     1      -0.566   8.864  21.518  0.00  0.00    +0.000 OA
ATOM     22  H   UNL     1       2.470   9.226  22.401  0.00  0.00    +0.000 HD
ATOM     23  H   UNL     1       1.014   9.343  23.335  0.00  0.00    +0.000 HD
ENDBRANCH  12  19
ENDBRANCH   3   7
BRANCH   6  24
ATOM     24  C   UNL     1      -0.158  14.337  19.884  0.00  0.00    +0.000 C 
ATOM     25  C   UNL     1       1.285  14.929  19.945  0.00  0.00    +0.000 C 
ATOM     26  C   UNL     1       0.725  16.182  19.238  0.00  0.00    +0.000 C 
ATOM     27  C   UNL     1      -0.391  15.286  18.664  0.00  0.00    +0.000 C 
BRANCH  24  28
ATOM     28  C   UNL     1      -1.106  14.490  21.197  0.00  0.00    +0.000 A 
ATOM     29  C   UNL     1      -0.581  14.211  22.481  0.00  0.00    +0.000 A 
ATOM     30  C   UNL     1      -1.401  13.989  23.590  0.00  0.00    +0.000 A 
ATOM     31  C   UNL     1      -2.779  14.076  23.447  0.00  0.00    +0.000 A 
ATOM     32 CL   UNL     1      -3.808  13.647  24.756  0.00  0.00    +0.000 Cl
ATOM     33  C   UNL     1      -3.330  14.467  22.233  0.00  0.00    +0.000 A 
ATOM     34  C   UNL     1      -2.500  14.693  21.130  0.00  0.00    +0.000 A 
ENDBRANCH  24  28
ENDBRANCH   6  24
TORSDOF 5
ENDMDL
MODEL 8
REMARK VINA RESULT:      -8.1      3.370      4.981
REMARK  Name = 
REMARK  6 active torsions:
REMARK  status: ('A' for Active; 'I' for Inactive)
REMARK    1  A    between atoms: C_1  and  N_2
REMARK    2  A    between atoms: C_3  and  C_4
REMARK    3  A    between atoms: C_7  and  C_8
REMARK    4  A    between atoms: C_15  and  C_16
REMARK    5  A    between atoms: C_21  and  C_22
REMARK    6  A    between atoms: C_22  and  C_23
REMARK                            x       y       z     vdW  Elec       q    Type
REMARK                         _______ _______ _______ _____ _____    ______ ____
ROOT
ATOM      1  C   UNL     1       1.943  12.517  20.484  0.00  0.00    +0.000 C 
ATOM      2  N   UNL     1       0.612  12.214  20.026  0.00  0.00    +0.000 N 
ATOM      3  C   UNL     1       0.126  11.031  19.506  0.00  0.00    +0.000 A 
ATOM      4  N   UNL     1      -1.169  11.181  19.292  0.00  0.00    +0.000 NA
ATOM      5  N   UNL     1      -1.532  12.454  19.643  0.00  0.00    +0.000 NA
ATOM      6  C   UNL     1      -0.456  13.078  20.068  0.00  0.00    +0.000 A 
ENDROOT
BRANCH   3   7
ATOM      7  C   UNL     1       0.864   9.778  19.327  0.00  0.00    +0.000 A 
ATOM      8  C   UNL     1       1.382   9.499  18.054  0.00  0.00    +0.000 A 
ATOM      9  C   UNL     1       2.139   8.357  17.807  0.00  0.00    +0.000 A 
ATOM     10  C   UNL     1       2.474   7.472  18.839  0.00  0.00    +0.000 A 
ATOM     11  C   UNL     1       1.964   7.751  20.120  0.00  0.00    +0.000 A 
ATOM     12  C   UNL     1       1.166   8.888  20.376  0.00  0.00    +0.000 A 
BRANCH  10  13
ATOM     13  C   UNL     1       3.315   6.291  18.584  0.00  0.00    +0.000 A 
ATOM     14  C   UNL     1       3.569   5.314  19.550  0.00  0.00    +0.000 A 
ATOM     15  N   UNL     1       4.365   4.236  19.345  0.00  0.00    +0.000 NA
ATOM     16  C   UNL     1       4.907   4.167  18.115  0.00  0.00    +0.000 A 
ATOM     17  C   UNL     1       4.657   5.114  17.141  0.00  0.00    +0.000 A 
ATOM     18  N   UNL     1       3.851   6.186  17.343  0.00  0.00    +0.000 NA
ENDBRANCH  10  13
BRANCH  12  19
ATOM     19  C   UNL     1       0.607   9.051  21.751  0.00  0.00    +0.000 C 
ATOM     20  N   UNL     1      -0.626   8.510  21.992  0.00  0.00    +0.000 N 
ATOM     21  O   UNL     1       1.194   9.687  22.616  0.00  0.00    +0.000 OA
ATOM     22  H   UNL     1      -1.131   7.928  21.340  0.00  0.00    +0.000 HD
ATOM     23  H   UNL     1      -0.973   8.580  22.938  0.00  0.00    +0.000 HD
ENDBRANCH  12  19
ENDBRANCH   3   7
BRANCH   6  24
ATOM     24  C   UNL     1      -0.423  14.598  20.330  0.00  0.00    +0.000 C 
ATOM     25  C   UNL     1       1.021  15.175  20.467  0.00  0.00    +0.000 C 
ATOM     26  C   UNL     1       0.540  16.389  19.644  0.00  0.00    +0.000 C 
ATOM     27  C   UNL     1      -0.544  15.473  19.040  0.00  0.00    +0.000 C 
BRANCH  24  28
ATOM     28  C   UNL     1      -1.466  14.844  21.552  0.00  0.00    +0.000 A 
ATOM     29  C   UNL     1      -2.603  15.663  21.354  0.00  0.00    +0.000 A 
ATOM     30  C   UNL     1      -3.338  16.189  22.420  0.00  0.00    +0.000 A 
ATOM     31  C   UNL     1      -2.971  15.877  23.721  0.00  0.00    +0.000 A 
ATOM     32 CL   UNL     1      -3.758  16.642  25.045  0.00  0.00    +0.000 Cl
ATOM     33  C   UNL     1      -1.937  14.979  23.957  0.00  0.00    +0.000 A 
ATOM     34  C   UNL     1      -1.211  14.452  22.884  0.00  0.00    +0.000 A 
ENDBRANCH  24  28
ENDBRANCH   6  24
TORSDOF 5
ENDMDL
MODEL 9
REMARK VINA RESULT:      -8.1      4.117      6.066
REMARK  Name = 
REMARK  6 active torsions:
REMARK  status: ('A' for Active; 'I' for Inactive)
REMARK    1  A    between atoms: C_1  and  N_2
REMARK    2  A    between atoms: C_3  and  C_4
REMARK    3  A    between atoms: C_7  and  C_8
REMARK    4  A    between atoms: C_15  and  C_16
REMARK    5  A    between atoms: C_21  and  C_22
REMARK    6  A    between atoms: C_22  and  C_23
REMARK                            x       y       z     vdW  Elec       q    Type
REMARK                         _______ _______ _______ _____ _____    ______ ____
ROOT
ATOM      1  C   UNL     1       2.271  13.204  20.704  0.00  0.00    +0.000 C 
ATOM      2  N   UNL     1       1.210  13.187  19.730  0.00  0.00    +0.000 N 
ATOM      3  C   UNL     1       0.645  12.103  19.088  0.00  0.00    +0.000 A 
ATOM      4  N   UNL     1      -0.347  12.547  18.335  0.00  0.00    +0.000 NA
ATOM      5  N   UNL     1      -0.422  13.909  18.460  0.00  0.00    +0.000 NA
ATOM      6  C   UNL     1       0.526  14.292  19.286  0.00  0.00    +0.000 A 
ENDROOT
BRANCH   3   7
ATOM      7  C   UNL     1       0.983  10.691  19.279  0.00  0.00    +0.000 A 
ATOM      8  C   UNL     1       1.668  10.035  18.245  0.00  0.00    +0.000 A 
ATOM      9  C   UNL     1       2.074   8.708  18.363  0.00  0.00    +0.000 A 
ATOM     10  C   UNL     1       1.874   7.992  19.549  0.00  0.00    +0.000 A 
ATOM     11  C   UNL     1       1.195   8.647  20.593  0.00  0.00    +0.000 A 
ATOM     12  C   UNL     1       0.748   9.981  20.473  0.00  0.00    +0.000 A 
BRANCH  10  13
ATOM     13  C   UNL     1       2.347   6.605  19.687  0.00  0.00    +0.000 A 
ATOM     14  C   UNL     1       1.793   5.698  20.595  0.00  0.00    +0.000 A 
ATOM     15  N   UNL     1       2.234   4.427  20.760  0.00  0.00    +0.000 NA
ATOM     16  C   UNL     1       3.267   4.087  19.967  0.00  0.00    +0.000 A 
ATOM     17  C   UNL     1       3.820   4.963  19.053  0.00  0.00    +0.000 A 
ATOM     18  N   UNL     1       3.371   6.231  18.881  0.00  0.00    +0.000 NA
ENDBRANCH  10  13
BRANCH  12  19
ATOM     19  C   UNL     1      -0.034  10.558  21.606  0.00  0.00    +0.000 C 
ATOM     20  N   UNL     1      -1.213  11.181  21.299  0.00  0.00    +0.000 N 
ATOM     21  O   UNL     1       0.380  10.529  22.757  0.00  0.00    +0.000 OA
ATOM     22  H   UNL     1      -1.633  11.186  20.381  0.00  0.00    +0.000 HD
ATOM     23  H   UNL     1      -1.759  11.522  22.077  0.00  0.00    +0.000 HD
ENDBRANCH  12  19
ENDBRANCH   3   7
BRANCH   6  24
ATOM     24  C   UNL     1       0.903  15.774  19.491  0.00  0.00    +0.000 C 
ATOM     25  C   UNL     1      -0.132  16.770  18.879  0.00  0.00    +0.000 C 
ATOM     26  C   UNL     1       0.058  17.636  20.142  0.00  0.00    +0.000 C 
ATOM     27  C   UNL     1       0.489  16.353  20.883  0.00  0.00    +0.000 C 
BRANCH  24  28
ATOM     28  C   UNL     1       2.453  15.891  19.015  0.00  0.00    +0.000 A 
ATOM     29  C   UNL     1       2.842  15.387  17.751  0.00  0.00    +0.000 A 
ATOM     30  C   UNL     1       4.178  15.142  17.425  0.00  0.00    +0.000 A 
ATOM     31  C   UNL     1       5.170  15.431  18.351  0.00  0.00    +0.000 A 
ATOM     32 CL   UNL     1       6.801  14.986  18.033  0.00  0.00    +0.000 Cl
ATOM     33  C   UNL     1       4.842  16.040  19.556  0.00  0.00    +0.000 A 
ATOM     34  C   UNL     1       3.502  16.287  19.872  0.00  0.00    +0.000 A 
ENDBRANCH  24  28
ENDBRANCH   6  24
TORSDOF 5
ENDMDL
