MODEL 1
REMARK VINA RESULT:      -7.8      0.000      0.000
REMARK  Name = 
REMARK  6 active torsions:
REMARK  status: ('A' for Active; 'I' for Inactive)
REMARK    1  A    between atoms: C_1  and  N_2
REMARK    2  A    between atoms: N_2  and  C_3
REMARK    3  A    between atoms: N_2  and  C_4
REMARK    4  A    between atoms: C_4  and  C_5
REMARK    5  A    between atoms: C_5  and  N_6
REMARK    6  A    between atoms: C_9  and  C_10
REMARK                            x       y       z     vdW  Elec       q    Type
REMARK                         _______ _______ _______ _____ _____    ______ ____
ROOT
ATOM      1  N   UNL     1       1.853   5.917  20.895  0.00  0.00    +0.000 NA
ATOM      2  C   UNL     1       2.361   6.448  19.831  0.00  0.00    +0.000 A 
ATOM      3  C   UNL     1       3.303   5.786  18.902  0.00  0.00    +0.000 A 
ATOM      4  C   UNL     1       3.748   6.429  17.818  0.00  0.00    +0.000 A 
ATOM      5  O   UNL     1       3.404   7.713  17.453  0.00  0.00    +0.000 OA
ATOM      6  C   UNL     1       2.496   8.371  18.256  0.00  0.00    +0.000 A 
ATOM      7  C   UNL     1       2.073   9.633  17.838  0.00  0.00    +0.000 A 
ATOM      8  C   UNL     1       1.111  10.328  18.578  0.00  0.00    +0.000 A 
ATOM      9  C   UNL     1       0.594   9.775  19.747  0.00  0.00    +0.000 A 
ATOM     10 CL   UNL     1      -0.611  10.621  20.636  0.00  0.00    +0.000 Cl
ATOM     11  C   UNL     1       1.026   8.527  20.188  0.00  0.00    +0.000 A 
ATOM     12  C   UNL     1       1.969   7.821  19.432  0.00  0.00    +0.000 A 
ENDROOT
BRANCH   4  13
ATOM     13  C   UNL     1       4.655   5.682  16.937  0.00  0.00    +0.000 A 
ATOM     14  C   UNL     1       5.181   6.292  15.789  0.00  0.00    +0.000 A 
ATOM     15  C   UNL     1       5.790   5.525  14.797  0.00  0.00    +0.000 A 
ATOM     16  C   UNL     1       5.893   4.142  14.947  0.00  0.00    +0.000 A 
ATOM     17  C   UNL     1       5.417   3.531  16.106  0.00  0.00    +0.000 A 
ATOM     18  C   UNL     1       4.795   4.295  17.099  0.00  0.00    +0.000 A 
ENDBRANCH   4  13
BRANCH   1  19
ATOM     19  C   UNL     1       2.210   4.517  21.153  0.00  0.00    +0.000 C 
BRANCH  19  20
ATOM     20  C   UNL     1       1.097   3.573  20.689  0.00  0.00    +0.000 C 
BRANCH  20  22
ATOM     21  C   UNL     1       1.050   2.353  18.618  0.00  0.00    +0.000 C 
ATOM     22  N   UNL     1       1.616   2.391  19.967  0.00  0.00    +0.000 NA
ATOM     23  C   UNL     1       3.080   2.379  19.889  0.00  0.00    +0.000 C 
ENDBRANCH  20  22
ENDBRANCH  19  20
ENDBRANCH   1  19
TORSDOF 4
ENDMDL
MODEL 2
REMARK VINA RESULT:      -7.7      0.554      1.145
REMARK  Name = 
REMARK  6 active torsions:
REMARK  status: ('A' for Active; 'I' for Inactive)
REMARK    1  A    between atoms: C_1  and  N_2
REMARK    2  A    between atoms: N_2  and  C_3
REMARK    3  A    between atoms: N_2  and  C_4
REMARK    4  A    between atoms: C_4  and  C_5
REMARK    5  A    between atoms: C_5  and  N_6
REMARK    6  A    between atoms: C_9  and  C_10
REMARK                            x       y       z     vdW  Elec       q    Type
REMARK                         _______ _______ _______ _____ _____    ______ ____
ROOT
ATOM      1  N   UNL     1       2.239   5.373  20.987  0.00  0.00    +0.000 NA
ATOM      2  C   UNL     1       2.595   5.976  19.901  0.00  0.00    +0.000 A 
ATOM      3  C   UNL     1       3.417   5.392  18.818  0.00  0.00    +0.000 A 
ATOM      4  C   UNL     1       3.705   6.107  17.727  0.00  0.00    +0.000 A 
ATOM      5  O   UNL     1       3.296   7.401  17.488  0.00  0.00    +0.000 OA
ATOM      6  C   UNL     1       2.491   7.989  18.441  0.00  0.00    +0.000 A 
ATOM      7  C   UNL     1       1.996   9.264  18.159  0.00  0.00    +0.000 A 
ATOM      8  C   UNL     1       1.128   9.891  19.058  0.00  0.00    +0.000 A 
ATOM      9  C   UNL     1       0.778   9.259  20.249  0.00  0.00    +0.000 A 
ATOM     10 CL   UNL     1      -0.312  10.024  21.337  0.00  0.00    +0.000 Cl
ATOM     11  C   UNL     1       1.285   7.998  20.553  0.00  0.00    +0.000 A 
ATOM     12  C   UNL     1       2.132   7.361  19.640  0.00  0.00    +0.000 A 
ENDROOT
BRANCH   4  13
ATOM     13  C   UNL     1       4.500   5.434  16.692  0.00  0.00    +0.000 A 
ATOM     14  C   UNL     1       4.719   4.049  16.763  0.00  0.00    +0.000 A 
ATOM     15  C   UNL     1       5.701   3.448  15.977  0.00  0.00    +0.000 A 
ATOM     16  C   UNL     1       6.464   4.219  15.100  0.00  0.00    +0.000 A 
ATOM     17  C   UNL     1       6.222   5.587  14.986  0.00  0.00    +0.000 A 
ATOM     18  C   UNL     1       5.246   6.197  15.782  0.00  0.00    +0.000 A 
ENDBRANCH   4  13
BRANCH   1  19
ATOM     19  C   UNL     1       2.650   3.969  21.112  0.00  0.00    +0.000 C 
BRANCH  19  20
ATOM     20  C   UNL     1       1.446   3.032  20.974  0.00  0.00    +0.000 C 
BRANCH  20  22
ATOM     21  C   UNL     1       0.730   2.694  18.704  0.00  0.00    +0.000 C 
ATOM     22  N   UNL     1       1.544   2.148  19.791  0.00  0.00    +0.000 NA
ATOM     23  C   UNL     1       2.925   1.973  19.334  0.00  0.00    +0.000 C 
ENDBRANCH  20  22
ENDBRANCH  19  20
ENDBRANCH   1  19
TORSDOF 4
ENDMDL
MODEL 3
REMARK VINA RESULT:      -7.4      0.601      1.264
REMARK  Name = 
REMARK  6 active torsions:
REMARK  status: ('A' for Active; 'I' for Inactive)
REMARK    1  A    between atoms: C_1  and  N_2
REMARK    2  A    between atoms: N_2  and  C_3
REMARK    3  A    between atoms: N_2  and  C_4
REMARK    4  A    between atoms: C_4  and  C_5
REMARK    5  A    between atoms: C_5  and  N_6
REMARK    6  A    between atoms: C_9  and  C_10
REMARK                            x       y       z     vdW  Elec       q    Type
REMARK                         _______ _______ _______ _____ _____    ______ ____
ROOT
ATOM      1  N   UNL     1       1.814   6.065  20.881  0.00  0.00    +0.000 NA
ATOM      2  C   UNL     1       2.330   6.614  19.830  0.00  0.00    +0.000 A 
ATOM      3  C   UNL     1       3.302   5.979  18.914  0.00  0.00    +0.000 A 
ATOM      4  C   UNL     1       3.752   6.639  17.843  0.00  0.00    +0.000 A 
ATOM      5  O   UNL     1       3.389   7.918  17.480  0.00  0.00    +0.000 OA
ATOM      6  C   UNL     1       2.452   8.551  18.272  0.00  0.00    +0.000 A 
ATOM      7  C   UNL     1       2.011   9.807  17.855  0.00  0.00    +0.000 A 
ATOM      8  C   UNL     1       1.021  10.476  18.582  0.00  0.00    +0.000 A 
ATOM      9  C   UNL     1       0.495   9.904  19.737  0.00  0.00    +0.000 A 
ATOM     10 CL   UNL     1      -0.743  10.719  20.611  0.00  0.00    +0.000 Cl
ATOM     11  C   UNL     1       0.945   8.662  20.177  0.00  0.00    +0.000 A 
ATOM     12  C   UNL     1       1.916   7.982  19.434  0.00  0.00    +0.000 A 
ENDROOT
BRANCH   4  13
ATOM     13  C   UNL     1       4.690   5.917  16.973  0.00  0.00    +0.000 A 
ATOM     14  C   UNL     1       4.450   4.575  16.640  0.00  0.00    +0.000 A 
ATOM     15  C   UNL     1       5.460   3.796  16.077  0.00  0.00    +0.000 A 
ATOM     16  C   UNL     1       6.714   4.351  15.825  0.00  0.00    +0.000 A 
ATOM     17  C   UNL     1       6.949   5.696  16.108  0.00  0.00    +0.000 A 
ATOM     18  C   UNL     1       5.943   6.479  16.684  0.00  0.00    +0.000 A 
ENDBRANCH   4  13
BRANCH   1  19
ATOM     19  C   UNL     1       2.196   4.671  21.136  0.00  0.00    +0.000 C 
BRANCH  19  20
ATOM     20  C   UNL     1       1.160   3.704  20.555  0.00  0.00    +0.000 C 
BRANCH  20  22
ATOM     21  C   UNL     1       2.864   2.352  19.531  0.00  0.00    +0.000 C 
ATOM     22  N   UNL     1       1.613   3.074  19.295  0.00  0.00    +0.000 NA
ATOM     23  C   UNL     1       0.614   2.161  18.733  0.00  0.00    +0.000 C 
ENDBRANCH  20  22
ENDBRANCH  19  20
ENDBRANCH   1  19
TORSDOF 4
ENDMDL
MODEL 4
REMARK VINA RESULT:      -7.4      4.129      5.918
REMARK  Name = 
REMARK  6 active torsions:
REMARK  status: ('A' for Active; 'I' for Inactive)
REMARK    1  A    between atoms: C_1  and  N_2
REMARK    2  A    between atoms: N_2  and  C_3
REMARK    3  A    between atoms: N_2  and  C_4
REMARK    4  A    between atoms: C_4  and  C_5
REMARK    5  A    between atoms: C_5  and  N_6
REMARK    6  A    between atoms: C_9  and  C_10
REMARK                            x       y       z     vdW  Elec       q    Type
REMARK                         _______ _______ _______ _____ _____    ______ ____
ROOT
ATOM      1  N   UNL     1       6.578   4.864  19.145  0.00  0.00    +0.000 NA
ATOM      2  C   UNL     1       5.839   4.496  18.150  0.00  0.00    +0.000 A 
ATOM      3  C   UNL     1       6.204   4.595  16.720  0.00  0.00    +0.000 A 
ATOM      4  C   UNL     1       5.364   4.162  15.776  0.00  0.00    +0.000 A 
ATOM      5  O   UNL     1       4.127   3.601  16.003  0.00  0.00    +0.000 OA
ATOM      6  C   UNL     1       3.744   3.441  17.318  0.00  0.00    +0.000 A 
ATOM      7  C   UNL     1       2.534   2.786  17.554  0.00  0.00    +0.000 A 
ATOM      8  C   UNL     1       2.117   2.542  18.867  0.00  0.00    +0.000 A 
ATOM      9  C   UNL     1       2.892   2.976  19.939  0.00  0.00    +0.000 A 
ATOM     10 CL   UNL     1       2.387   2.647  21.551  0.00  0.00    +0.000 Cl
ATOM     11  C   UNL     1       4.088   3.652  19.717  0.00  0.00    +0.000 A 
ATOM     12  C   UNL     1       4.518   3.872  18.403  0.00  0.00    +0.000 A 
ENDROOT
BRANCH   4  13
ATOM     13  C   UNL     1       5.826   4.273  14.385  0.00  0.00    +0.000 A 
ATOM     14  C   UNL     1       5.243   3.479  13.386  0.00  0.00    +0.000 A 
ATOM     15  C   UNL     1       5.856   3.349  12.140  0.00  0.00    +0.000 A 
ATOM     16  C   UNL     1       7.049   4.021  11.874  0.00  0.00    +0.000 A 
ATOM     17  C   UNL     1       7.611   4.849  12.844  0.00  0.00    +0.000 A 
ATOM     18  C   UNL     1       7.007   4.974  14.099  0.00  0.00    +0.000 A 
ENDBRANCH   4  13
BRANCH   1  19
ATOM     19  C   UNL     1       7.914   5.369  18.806  0.00  0.00    +0.000 C 
BRANCH  19  20
ATOM     20  C   UNL     1       8.063   6.838  19.215  0.00  0.00    +0.000 C 
BRANCH  20  22
ATOM     21  C   UNL     1       6.929   7.797  17.323  0.00  0.00    +0.000 C 
ATOM     22  N   UNL     1       8.198   7.742  18.051  0.00  0.00    +0.000 NA
ATOM     23  C   UNL     1       8.606   9.096  18.435  0.00  0.00    +0.000 C 
ENDBRANCH  20  22
ENDBRANCH  19  20
ENDBRANCH   1  19
TORSDOF 4
ENDMDL
MODEL 5
REMARK VINA RESULT:      -6.9      2.724      5.778
REMARK  Name = 
REMARK  6 active torsions:
REMARK  status: ('A' for Active; 'I' for Inactive)
REMARK    1  A    between atoms: C_1  and  N_2
REMARK    2  A    between atoms: N_2  and  C_3
REMARK    3  A    between atoms: N_2  and  C_4
REMARK    4  A    between atoms: C_4  and  C_5
REMARK    5  A    between atoms: C_5  and  N_6
REMARK    6  A    between atoms: C_9  and  C_10
REMARK                            x       y       z     vdW  Elec       q    Type
REMARK                         _______ _______ _______ _____ _____    ______ ____
ROOT
ATOM      1  N   UNL     1       2.319   3.632  17.725  0.00  0.00    +0.000 NA
ATOM      2  C   UNL     1       2.697   4.865  17.824  0.00  0.00    +0.000 A 
ATOM      3  C   UNL     1       2.046   5.903  18.652  0.00  0.00    +0.000 A 
ATOM      4  C   UNL     1       2.541   7.144  18.692  0.00  0.00    +0.000 A 
ATOM      5  O   UNL     1       3.654   7.584  18.009  0.00  0.00    +0.000 OA
ATOM      6  C   UNL     1       4.332   6.652  17.251  0.00  0.00    +0.000 A 
ATOM      7  C   UNL     1       5.512   7.069  16.634  0.00  0.00    +0.000 A 
ATOM      8  C   UNL     1       6.276   6.157  15.899  0.00  0.00    +0.000 A 
ATOM      9  C   UNL     1       5.847   4.840  15.756  0.00  0.00    +0.000 A 
ATOM     10 CL   UNL     1       6.806   3.716  14.874  0.00  0.00    +0.000 Cl
ATOM     11  C   UNL     1       4.658   4.418  16.345  0.00  0.00    +0.000 A 
ATOM     12  C   UNL     1       3.909   5.325  17.103  0.00  0.00    +0.000 A 
ENDROOT
BRANCH   4  13
ATOM     13  C   UNL     1       1.847   8.099  19.566  0.00  0.00    +0.000 A 
ATOM     14  C   UNL     1       1.475   7.722  20.866  0.00  0.00    +0.000 A 
ATOM     15  C   UNL     1       0.567   8.491  21.592  0.00  0.00    +0.000 A 
ATOM     16  C   UNL     1       0.033   9.653  21.035  0.00  0.00    +0.000 A 
ATOM     17  C   UNL     1       0.432  10.063  19.764  0.00  0.00    +0.000 A 
ATOM     18  C   UNL     1       1.334   9.288  19.027  0.00  0.00    +0.000 A 
ENDBRANCH   4  13
BRANCH   1  19
ATOM     19  C   UNL     1       1.176   3.237  18.557  0.00  0.00    +0.000 C 
BRANCH  19  20
ATOM     20  C   UNL     1       1.512   2.001  19.396  0.00  0.00    +0.000 C 
BRANCH  20  22
ATOM     21  C   UNL     1       3.507   2.500  20.642  0.00  0.00    +0.000 C 
ATOM     22  N   UNL     1       2.054   2.347  20.729  0.00  0.00    +0.000 NA
ATOM     23  C   UNL     1       1.461   3.570  21.277  0.00  0.00    +0.000 C 
ENDBRANCH  20  22
ENDBRANCH  19  20
ENDBRANCH   1  19
TORSDOF 4
ENDMDL
MODEL 6
REMARK VINA RESULT:      -6.9      3.964      5.792
REMARK  Name = 
REMARK  6 active torsions:
REMARK  status: ('A' for Active; 'I' for Inactive)
REMARK    1  A    between atoms: C_1  and  N_2
REMARK    2  A    between atoms: N_2  and  C_3
REMARK    3  A    between atoms: N_2  and  C_4
REMARK    4  A    between atoms: C_4  and  C_5
REMARK    5  A    between atoms: C_5  and  N_6
REMARK    6  A    between atoms: C_9  and  C_10
REMARK                            x       y       z     vdW  Elec       q    Type
REMARK                         _______ _______ _______ _____ _____    ______ ____
ROOT
ATOM      1  N   UNL     1       6.534   5.112  19.173  0.00  0.00    +0.000 NA
ATOM      2  C   UNL     1       5.888   4.672  18.143  0.00  0.00    +0.000 A 
ATOM      3  C   UNL     1       6.412   4.602  16.761  0.00  0.00    +0.000 A 
ATOM      4  C   UNL     1       5.657   4.106  15.777  0.00  0.00    +0.000 A 
ATOM      5  O   UNL     1       4.373   3.626  15.918  0.00  0.00    +0.000 OA
ATOM      6  C   UNL     1       3.842   3.625  17.190  0.00  0.00    +0.000 A 
ATOM      7  C   UNL     1       2.579   3.052  17.353  0.00  0.00    +0.000 A 
ATOM      8  C   UNL     1       2.009   2.968  18.627  0.00  0.00    +0.000 A 
ATOM      9  C   UNL     1       2.686   3.480  19.731  0.00  0.00    +0.000 A 
ATOM     10 CL   UNL     1       1.992   3.348  21.300  0.00  0.00    +0.000 Cl
ATOM     11  C   UNL     1       3.935   4.077  19.579  0.00  0.00    +0.000 A 
ATOM     12  C   UNL     1       4.516   4.136  18.307  0.00  0.00    +0.000 A 
ENDROOT
BRANCH   4  13
ATOM     13  C   UNL     1       6.272   4.047  14.444  0.00  0.00    +0.000 A 
ATOM     14  C   UNL     1       7.327   4.914  14.117  0.00  0.00    +0.000 A 
ATOM     15  C   UNL     1       7.717   5.082  12.789  0.00  0.00    +0.000 A 
ATOM     16  C   UNL     1       7.070   4.376  11.776  0.00  0.00    +0.000 A 
ATOM     17  C   UNL     1       6.054   3.477  12.093  0.00  0.00    +0.000 A 
ATOM     18  C   UNL     1       5.650   3.313  13.423  0.00  0.00    +0.000 A 
ENDBRANCH   4  13
BRANCH   1  19
ATOM     19  C   UNL     1       7.925   5.520  18.939  0.00  0.00    +0.000 C 
BRANCH  19  20
ATOM     20  C   UNL     1       8.136   6.989  19.320  0.00  0.00    +0.000 C 
BRANCH  20  22
ATOM     21  C   UNL     1       7.049   7.902  17.379  0.00  0.00    +0.000 C 
ATOM     22  N   UNL     1       8.299   7.866  18.140  0.00  0.00    +0.000 NA
ATOM     23  C   UNL     1       8.695   9.229  18.504  0.00  0.00    +0.000 C 
ENDBRANCH  20  22
ENDBRANCH  19  20
ENDBRANCH   1  19
TORSDOF 4
ENDMDL
MODEL 7
REMARK VINA RESULT:      -6.8      2.740      5.669
REMARK  Name = 
REMARK  6 active torsions:
REMARK  status: ('A' for Active; 'I' for Inactive)
REMARK    1  A    between atoms: C_1  and  N_2
REMARK    2  A    between atoms: N_2  and  C_3
REMARK    3  A    between atoms: N_2  and  C_4
REMARK    4  A    between atoms: C_4  and  C_5
REMARK    5  A    between atoms: C_5  and  N_6
REMARK    6  A    between atoms: C_9  and  C_10
REMARK                            x       y       z     vdW  Elec       q    Type
REMARK                         _______ _______ _______ _____ _____    ______ ____
ROOT
ATOM      1  N   UNL     1       2.349   3.664  17.630  0.00  0.00    +0.000 NA
ATOM      2  C   UNL     1       2.701   4.897  17.794  0.00  0.00    +0.000 A 
ATOM      3  C   UNL     1       1.977   5.900  18.605  0.00  0.00    +0.000 A 
ATOM      4  C   UNL     1       2.449   7.145  18.720  0.00  0.00    +0.000 A 
ATOM      5  O   UNL     1       3.601   7.621  18.132  0.00  0.00    +0.000 OA
ATOM      6  C   UNL     1       4.345   6.723  17.396  0.00  0.00    +0.000 A 
ATOM      7  C   UNL     1       5.560   7.175  16.880  0.00  0.00    +0.000 A 
ATOM      8  C   UNL     1       6.389   6.297  16.173  0.00  0.00    +0.000 A 
ATOM      9  C   UNL     1       5.991   4.979  15.959  0.00  0.00    +0.000 A 
ATOM     10 CL   UNL     1       7.027   3.897  15.115  0.00  0.00    +0.000 Cl
ATOM     11  C   UNL     1       4.770   4.523  16.448  0.00  0.00    +0.000 A 
ATOM     12  C   UNL     1       3.954   5.396  17.178  0.00  0.00    +0.000 A 
ENDROOT
BRANCH   4  13
ATOM     13  C   UNL     1       1.679   8.063  19.570  0.00  0.00    +0.000 A 
ATOM     14  C   UNL     1       1.293   9.320  19.079  0.00  0.00    +0.000 A 
ATOM     15  C   UNL     1       0.835  10.308  19.949  0.00  0.00    +0.000 A 
ATOM     16  C   UNL     1       0.742  10.047  21.316  0.00  0.00    +0.000 A 
ATOM     17  C   UNL     1       1.078   8.788  21.809  0.00  0.00    +0.000 A 
ATOM     18  C   UNL     1       1.549   7.797  20.941  0.00  0.00    +0.000 A 
ENDBRANCH   4  13
BRANCH   1  19
ATOM     19  C   UNL     1       1.156   3.228  18.365  0.00  0.00    +0.000 C 
BRANCH  19  20
ATOM     20  C   UNL     1       1.528   2.244  19.478  0.00  0.00    +0.000 C 
BRANCH  20  22
ATOM     21  C   UNL     1       1.692   2.609  21.849  0.00  0.00    +0.000 C 
ATOM     22  N   UNL     1       2.322   2.875  20.555  0.00  0.00    +0.000 NA
ATOM     23  C   UNL     1       3.711   2.408  20.576  0.00  0.00    +0.000 C 
ENDBRANCH  20  22
ENDBRANCH  19  20
ENDBRANCH   1  19
TORSDOF 4
ENDMDL
MODEL 8
REMARK VINA RESULT:      -6.8      1.114      1.490
REMARK  Name = 
REMARK  6 active torsions:
REMARK  status: ('A' for Active; 'I' for Inactive)
REMARK    1  A    between atoms: C_1  and  N_2
REMARK    2  A    between atoms: N_2  and  C_3
REMARK    3  A    between atoms: N_2  and  C_4
REMARK    4  A    between atoms: C_4  and  C_5
REMARK    5  A    between atoms: C_5  and  N_6
REMARK    6  A    between atoms: C_9  and  C_10
REMARK                            x       y       z     vdW  Elec       q    Type
REMARK                         _______ _______ _______ _____ _____    ______ ____
ROOT
ATOM      1  N   UNL     1       2.950   5.069  20.456  0.00  0.00    +0.000 NA
ATOM      2  C   UNL     1       3.243   5.793  19.426  0.00  0.00    +0.000 A 
ATOM      3  C   UNL     1       4.152   5.402  18.326  0.00  0.00    +0.000 A 
ATOM      4  C   UNL     1       4.364   6.228  17.298  0.00  0.00    +0.000 A 
ATOM      5  O   UNL     1       3.795   7.473  17.142  0.00  0.00    +0.000 OA
ATOM      6  C   UNL     1       2.903   7.880  18.113  0.00  0.00    +0.000 A 
ATOM      7  C   UNL     1       2.253   9.098  17.910  0.00  0.00    +0.000 A 
ATOM      8  C   UNL     1       1.295   9.539  18.829  0.00  0.00    +0.000 A 
ATOM      9  C   UNL     1       1.010   8.780  19.961  0.00  0.00    +0.000 A 
ATOM     10 CL   UNL     1      -0.190   9.315  21.072  0.00  0.00    +0.000 Cl
ATOM     11  C   UNL     1       1.670   7.576  20.187  0.00  0.00    +0.000 A 
ATOM     12  C   UNL     1       2.609   7.122  19.253  0.00  0.00    +0.000 A 
ENDROOT
BRANCH   4  13
ATOM     13  C   UNL     1       5.258   5.741  16.238  0.00  0.00    +0.000 A 
ATOM     14  C   UNL     1       4.742   4.982  15.177  0.00  0.00    +0.000 A 
ATOM     15  C   UNL     1       5.598   4.268  14.339  0.00  0.00    +0.000 A 
ATOM     16  C   UNL     1       6.977   4.317  14.541  0.00  0.00    +0.000 A 
ATOM     17  C   UNL     1       7.502   5.106  15.562  0.00  0.00    +0.000 A 
ATOM     18  C   UNL     1       6.648   5.815  16.413  0.00  0.00    +0.000 A 
ENDBRANCH   4  13
BRANCH   1  19
ATOM     19  C   UNL     1       3.538   3.724  20.490  0.00  0.00    +0.000 C 
BRANCH  19  20
ATOM     20  C   UNL     1       2.474   2.655  20.222  0.00  0.00    +0.000 C 
BRANCH  20  22
ATOM     21  C   UNL     1       2.850   1.927  17.961  0.00  0.00    +0.000 C 
ATOM     22  N   UNL     1       1.962   2.697  18.834  0.00  0.00    +0.000 NA
ATOM     23  C   UNL     1       0.594   2.183  18.724  0.00  0.00    +0.000 C 
ENDBRANCH  20  22
ENDBRANCH  19  20
ENDBRANCH   1  19
TORSDOF 4
ENDMDL
MODEL 9
REMARK VINA RESULT:      -6.8      4.515      7.689
REMARK  Name = 
REMARK  6 active torsions:
REMARK  status: ('A' for Active; 'I' for Inactive)
REMARK    1  A    between atoms: C_1  and  N_2
REMARK    2  A    between atoms: N_2  and  C_3
REMARK    3  A    between atoms: N_2  and  C_4
REMARK    4  A    between atoms: C_4  and  C_5
REMARK    5  A    between atoms: C_5  and  N_6
REMARK    6  A    between atoms: C_9  and  C_10
REMARK                            x       y       z     vdW  Elec       q    Type
REMARK                         _______ _______ _______ _____ _____    ______ ____
ROOT
ATOM      1  N   UNL     1       7.765   6.936  16.937  0.00  0.00    +0.000 NA
ATOM      2  C   UNL     1       6.822   6.051  16.963  0.00  0.00    +0.000 A 
ATOM      3  C   UNL     1       5.916   5.789  18.103  0.00  0.00    +0.000 A 
ATOM      4  C   UNL     1       4.962   4.859  18.008  0.00  0.00    +0.000 A 
ATOM      5  O   UNL     1       4.716   4.075  16.902  0.00  0.00    +0.000 OA
ATOM      6  C   UNL     1       5.500   4.299  15.789  0.00  0.00    +0.000 A 
ATOM      7  C   UNL     1       5.193   3.575  14.637  0.00  0.00    +0.000 A 
ATOM      8  C   UNL     1       5.913   3.797  13.459  0.00  0.00    +0.000 A 
ATOM      9  C   UNL     1       6.956   4.720  13.441  0.00  0.00    +0.000 A 
ATOM     10 CL   UNL     1       7.819   5.010  11.981  0.00  0.00    +0.000 Cl
ATOM     11  C   UNL     1       7.289   5.431  14.591  0.00  0.00    +0.000 A 
ATOM     12  C   UNL     1       6.549   5.227  15.761  0.00  0.00    +0.000 A 
ENDROOT
BRANCH   4  13
ATOM     13  C   UNL     1       4.090   4.691  19.179  0.00  0.00    +0.000 A 
ATOM     14  C   UNL     1       3.893   3.416  19.731  0.00  0.00    +0.000 A 
ATOM     15  C   UNL     1       2.856   3.191  20.635  0.00  0.00    +0.000 A 
ATOM     16  C   UNL     1       2.014   4.239  21.009  0.00  0.00    +0.000 A 
ATOM     17  C   UNL     1       2.231   5.519  20.503  0.00  0.00    +0.000 A 
ATOM     18  C   UNL     1       3.263   5.748  19.587  0.00  0.00    +0.000 A 
ENDBRANCH   4  13
BRANCH   1  19
ATOM     19  C   UNL     1       7.892   7.781  18.130  0.00  0.00    +0.000 C 
BRANCH  19  20
ATOM     20  C   UNL     1       7.790   9.265  17.763  0.00  0.00    +0.000 C 
BRANCH  20  22
ATOM     21  C   UNL     1       8.823  11.436  17.779  0.00  0.00    +0.000 C 
ATOM     22  N   UNL     1       8.976  10.040  18.191  0.00  0.00    +0.000 NA
ATOM     23  C   UNL     1       9.198   9.974  19.638  0.00  0.00    +0.000 C 
ENDBRANCH  20  22
ENDBRANCH  19  20
ENDBRANCH   1  19
TORSDOF 4
ENDMDL
