MODEL 1
REMARK VINA RESULT:      -7.5      0.000      0.000
REMARK  Name = 
REMARK  5 active torsions:
REMARK  status: ('A' for Active; 'I' for Inactive)
REMARK    1  A    between atoms: C_1  and  C_2
REMARK    2  A    between atoms: C_4  and  C_5
REMARK    3  A    between atoms: N_6  and  C_7
REMARK    4  A    between atoms: C_7  and  C_8
REMARK    5  A    between atoms: C_15  and  C_16
REMARK                            x       y       z     vdW  Elec       q    Type
REMARK                         _______ _______ _______ _____ _____    ______ ____
ROOT
ATOM      1  C   UNL     1       7.143   7.680  17.417  0.00  0.00    +0.000 C 
ATOM      2  C   UNL     1       6.011   6.698  17.398  0.00  0.00    +0.000 A 
ATOM      3  C   UNL     1       4.730   7.162  17.727  0.00  0.00    +0.000 A 
ATOM      4  C   UNL     1       3.619   6.307  17.733  0.00  0.00    +0.000 A 
ATOM      5  C   UNL     1       2.272   6.855  18.113  0.00  0.00    +0.000 C 
ATOM      6  N   UNL     1       3.799   4.997  17.404  0.00  0.00    +0.000 N 
ATOM      7  C   UNL     1       5.029   4.532  17.066  0.00  0.00    +0.000 A 
ATOM      8  C   UNL     1       6.161   5.347  17.095  0.00  0.00    +0.000 A 
ENDROOT
BRANCH   8   9
ATOM      9  C   UNL     1       7.432   4.656  16.769  0.00  0.00    +0.000 C 
ATOM     10  N   UNL     1       8.200   4.160  17.779  0.00  0.00    +0.000 N 
ATOM     11  O   UNL     1       7.717   4.475  15.590  0.00  0.00    +0.000 OA
ATOM     12  H   UNL     1       7.983   4.202  18.768  0.00  0.00    +0.000 HD
ATOM     13  H   UNL     1       9.062   3.683  17.540  0.00  0.00    +0.000 HD
ENDBRANCH   8   9
BRANCH   6  14
ATOM     14  C   UNL     1       2.690   4.004  17.499  0.00  0.00    +0.000 C 
BRANCH  14  15
ATOM     15  C   UNL     1       2.385   3.517  18.894  0.00  0.00    +0.000 A 
ATOM     16  C   UNL     1       1.115   3.596  19.486  0.00  0.00    +0.000 A 
ATOM     17  C   UNL     1       0.929   3.210  20.815  0.00  0.00    +0.000 A 
ATOM     18  C   UNL     1       1.994   2.709  21.560  0.00  0.00    +0.000 A 
ATOM     19  C   UNL     1       3.247   2.572  20.970  0.00  0.00    +0.000 A 
ATOM     20  C   UNL     1       3.441   2.968  19.647  0.00  0.00    +0.000 A 
ENDBRANCH  14  15
ENDBRANCH   6  14
TORSDOF 3
ENDMDL
MODEL 2
REMARK VINA RESULT:      -7.4      0.792      1.383
REMARK  Name = 
REMARK  5 active torsions:
REMARK  status: ('A' for Active; 'I' for Inactive)
REMARK    1  A    between atoms: C_1  and  C_2
REMARK    2  A    between atoms: C_4  and  C_5
REMARK    3  A    between atoms: N_6  and  C_7
REMARK    4  A    between atoms: C_7  and  C_8
REMARK    5  A    between atoms: C_15  and  C_16
REMARK                            x       y       z     vdW  Elec       q    Type
REMARK                         _______ _______ _______ _____ _____    ______ ____
ROOT
ATOM      1  C   UNL     1       7.292   7.697  17.308  0.00  0.00    +0.000 C 
ATOM      2  C   UNL     1       6.121   6.760  17.323  0.00  0.00    +0.000 A 
ATOM      3  C   UNL     1       4.887   7.255  17.766  0.00  0.00    +0.000 A 
ATOM      4  C   UNL     1       3.745   6.443  17.810  0.00  0.00    +0.000 A 
ATOM      5  C   UNL     1       2.451   7.022  18.311  0.00  0.00    +0.000 C 
ATOM      6  N   UNL     1       3.848   5.146  17.407  0.00  0.00    +0.000 N 
ATOM      7  C   UNL     1       5.031   4.652  16.959  0.00  0.00    +0.000 A 
ATOM      8  C   UNL     1       6.195   5.422  16.947  0.00  0.00    +0.000 A 
ENDROOT
BRANCH   8   9
ATOM      9  C   UNL     1       7.410   4.701  16.498  0.00  0.00    +0.000 C 
ATOM     10  N   UNL     1       7.732   4.695  15.174  0.00  0.00    +0.000 N 
ATOM     11  O   UNL     1       8.141   4.197  17.344  0.00  0.00    +0.000 OA
ATOM     12  H   UNL     1       7.218   5.159  14.434  0.00  0.00    +0.000 HD
ATOM     13  H   UNL     1       8.570   4.205  14.883  0.00  0.00    +0.000 HD
ENDBRANCH   8   9
BRANCH   6  14
ATOM     14  C   UNL     1       2.708   4.192  17.533  0.00  0.00    +0.000 C 
BRANCH  14  15
ATOM     15  C   UNL     1       2.450   3.685  18.931  0.00  0.00    +0.000 A 
ATOM     16  C   UNL     1       3.455   3.196  19.780  0.00  0.00    +0.000 A 
ATOM     17  C   UNL     1       3.128   2.657  21.026  0.00  0.00    +0.000 A 
ATOM     18  C   UNL     1       1.804   2.629  21.457  0.00  0.00    +0.000 A 
ATOM     19  C   UNL     1       0.802   3.161  20.651  0.00  0.00    +0.000 A 
ATOM     20  C   UNL     1       1.122   3.689  19.400  0.00  0.00    +0.000 A 
ENDBRANCH  14  15
ENDBRANCH   6  14
TORSDOF 3
ENDMDL
MODEL 3
REMARK VINA RESULT:      -7.4      2.164      4.084
REMARK  Name = 
REMARK  5 active torsions:
REMARK  status: ('A' for Active; 'I' for Inactive)
REMARK    1  A    between atoms: C_1  and  C_2
REMARK    2  A    between atoms: C_4  and  C_5
REMARK    3  A    between atoms: N_6  and  C_7
REMARK    4  A    between atoms: C_7  and  C_8
REMARK    5  A    between atoms: C_15  and  C_16
REMARK                            x       y       z     vdW  Elec       q    Type
REMARK                         _______ _______ _______ _____ _____    ______ ____
ROOT
ATOM      1  C   UNL     1       6.002   3.732  15.518  0.00  0.00    +0.000 C 
ATOM      2  C   UNL     1       5.224   4.297  16.669  0.00  0.00    +0.000 A 
ATOM      3  C   UNL     1       3.858   3.998  16.750  0.00  0.00    +0.000 A 
ATOM      4  C   UNL     1       3.061   4.488  17.795  0.00  0.00    +0.000 A 
ATOM      5  C   UNL     1       1.596   4.150  17.822  0.00  0.00    +0.000 C 
ATOM      6  N   UNL     1       3.640   5.268  18.750  0.00  0.00    +0.000 N 
ATOM      7  C   UNL     1       4.966   5.555  18.698  0.00  0.00    +0.000 A 
ATOM      8  C   UNL     1       5.775   5.121  17.647  0.00  0.00    +0.000 A 
ENDROOT
BRANCH   8   9
ATOM      9  C   UNL     1       7.180   5.590  17.712  0.00  0.00    +0.000 C 
ATOM     10  N   UNL     1       7.552   6.686  16.993  0.00  0.00    +0.000 N 
ATOM     11  O   UNL     1       7.954   5.026  18.478  0.00  0.00    +0.000 OA
ATOM     12  H   UNL     1       6.946   7.246  16.405  0.00  0.00    +0.000 HD
ATOM     13  H   UNL     1       8.514   6.999  17.053  0.00  0.00    +0.000 HD
ENDBRANCH   8   9
BRANCH   6  14
ATOM     14  C   UNL     1       2.837   5.918  19.825  0.00  0.00    +0.000 C 
BRANCH  14  15
ATOM     15  C   UNL     1       2.236   7.253  19.457  0.00  0.00    +0.000 A 
ATOM     16  C   UNL     1       2.349   7.833  18.184  0.00  0.00    +0.000 A 
ATOM     17  C   UNL     1       1.847   9.114  17.943  0.00  0.00    +0.000 A 
ATOM     18  C   UNL     1       1.197   9.818  18.954  0.00  0.00    +0.000 A 
ATOM     19  C   UNL     1       1.027   9.234  20.205  0.00  0.00    +0.000 A 
ATOM     20  C   UNL     1       1.538   7.960  20.455  0.00  0.00    +0.000 A 
ENDBRANCH  14  15
ENDBRANCH   6  14
TORSDOF 3
ENDMDL
MODEL 4
REMARK VINA RESULT:      -7.2      2.129      4.035
REMARK  Name = 
REMARK  5 active torsions:
REMARK  status: ('A' for Active; 'I' for Inactive)
REMARK    1  A    between atoms: C_1  and  C_2
REMARK    2  A    between atoms: C_4  and  C_5
REMARK    3  A    between atoms: N_6  and  C_7
REMARK    4  A    between atoms: C_7  and  C_8
REMARK    5  A    between atoms: C_15  and  C_16
REMARK                            x       y       z     vdW  Elec       q    Type
REMARK                         _______ _______ _______ _____ _____    ______ ____
ROOT
ATOM      1  C   UNL     1       5.985   3.842  15.477  0.00  0.00    +0.000 C 
ATOM      2  C   UNL     1       5.197   4.366  16.640  0.00  0.00    +0.000 A 
ATOM      3  C   UNL     1       3.852   3.987  16.748  0.00  0.00    +0.000 A 
ATOM      4  C   UNL     1       3.047   4.434  17.806  0.00  0.00    +0.000 A 
ATOM      5  C   UNL     1       1.606   4.010  17.863  0.00  0.00    +0.000 C 
ATOM      6  N   UNL     1       3.598   5.252  18.747  0.00  0.00    +0.000 N 
ATOM      7  C   UNL     1       4.903   5.617  18.668  0.00  0.00    +0.000 A 
ATOM      8  C   UNL     1       5.716   5.226  17.604  0.00  0.00    +0.000 A 
ENDROOT
BRANCH   8   9
ATOM      9  C   UNL     1       7.092   5.778  17.640  0.00  0.00    +0.000 C 
ATOM     10  N   UNL     1       7.375   6.911  16.940  0.00  0.00    +0.000 N 
ATOM     11  O   UNL     1       7.921   5.242  18.368  0.00  0.00    +0.000 OA
ATOM     12  H   UNL     1       6.719   7.448  16.385  0.00  0.00    +0.000 HD
ATOM     13  H   UNL     1       8.318   7.281  16.980  0.00  0.00    +0.000 HD
ENDBRANCH   8   9
BRANCH   6  14
ATOM     14  C   UNL     1       2.778   5.859  19.835  0.00  0.00    +0.000 C 
BRANCH  14  15
ATOM     15  C   UNL     1       2.227   7.231  19.531  0.00  0.00    +0.000 A 
ATOM     16  C   UNL     1       1.579   8.038  20.479  0.00  0.00    +0.000 A 
ATOM     17  C   UNL     1       1.013   9.258  20.102  0.00  0.00    +0.000 A 
ATOM     18  C   UNL     1       1.114   9.705  18.787  0.00  0.00    +0.000 A 
ATOM     19  C   UNL     1       1.802   8.943  17.847  0.00  0.00    +0.000 A 
ATOM     20  C   UNL     1       2.358   7.718  18.216  0.00  0.00    +0.000 A 
ENDBRANCH  14  15
ENDBRANCH   6  14
TORSDOF 3
ENDMDL
MODEL 5
REMARK VINA RESULT:      -7.2      2.269      5.266
REMARK  Name = 
REMARK  5 active torsions:
REMARK  status: ('A' for Active; 'I' for Inactive)
REMARK    1  A    between atoms: C_1  and  C_2
REMARK    2  A    between atoms: C_4  and  C_5
REMARK    3  A    between atoms: N_6  and  C_7
REMARK    4  A    between atoms: C_7  and  C_8
REMARK    5  A    between atoms: C_15  and  C_16
REMARK                            x       y       z     vdW  Elec       q    Type
REMARK                         _______ _______ _______ _____ _____    ______ ____
ROOT
ATOM      1  C   UNL     1       1.827   2.969  21.569  0.00  0.00    +0.000 C 
ATOM      2  C   UNL     1       2.512   3.899  20.613  0.00  0.00    +0.000 A 
ATOM      3  C   UNL     1       2.044   5.217  20.528  0.00  0.00    +0.000 A 
ATOM      4  C   UNL     1       2.630   6.148  19.658  0.00  0.00    +0.000 A 
ATOM      5  C   UNL     1       2.075   7.544  19.593  0.00  0.00    +0.000 C 
ATOM      6  N   UNL     1       3.682   5.752  18.887  0.00  0.00    +0.000 N 
ATOM      7  C   UNL     1       4.160   4.484  18.968  0.00  0.00    +0.000 A 
ATOM      8  C   UNL     1       3.569   3.523  19.789  0.00  0.00    +0.000 A 
ENDROOT
BRANCH   8   9
ATOM      9  C   UNL     1       4.174   2.172  19.697  0.00  0.00    +0.000 C 
ATOM     10  N   UNL     1       3.881   1.382  18.627  0.00  0.00    +0.000 N 
ATOM     11  O   UNL     1       4.990   1.834  20.548  0.00  0.00    +0.000 OA
ATOM     12  H   UNL     1       3.281   1.631  17.849  0.00  0.00    +0.000 HD
ATOM     13  H   UNL     1       4.308   0.464  18.574  0.00  0.00    +0.000 HD
ENDBRANCH   8   9
BRANCH   6  14
ATOM     14  C   UNL     1       4.282   6.649  17.858  0.00  0.00    +0.000 C 
BRANCH  14  15
ATOM     15  C   UNL     1       5.273   5.988  16.932  0.00  0.00    +0.000 A 
ATOM     16  C   UNL     1       5.018   5.723  15.578  0.00  0.00    +0.000 A 
ATOM     17  C   UNL     1       5.948   5.025  14.805  0.00  0.00    +0.000 A 
ATOM     18  C   UNL     1       7.156   4.611  15.361  0.00  0.00    +0.000 A 
ATOM     19  C   UNL     1       7.449   4.914  16.686  0.00  0.00    +0.000 A 
ATOM     20  C   UNL     1       6.518   5.602  17.466  0.00  0.00    +0.000 A 
ENDBRANCH  14  15
ENDBRANCH   6  14
TORSDOF 3
ENDMDL
MODEL 6
REMARK VINA RESULT:      -7.1      2.272      5.393
REMARK  Name = 
REMARK  5 active torsions:
REMARK  status: ('A' for Active; 'I' for Inactive)
REMARK    1  A    between atoms: C_1  and  C_2
REMARK    2  A    between atoms: C_4  and  C_5
REMARK    3  A    between atoms: N_6  and  C_7
REMARK    4  A    between atoms: C_7  and  C_8
REMARK    5  A    between atoms: C_15  and  C_16
REMARK                            x       y       z     vdW  Elec       q    Type
REMARK                         _______ _______ _______ _____ _____    ______ ____
ROOT
ATOM      1  C   UNL     1       1.864   2.902  21.562  0.00  0.00    +0.000 C 
ATOM      2  C   UNL     1       2.586   3.810  20.611  0.00  0.00    +0.000 A 
ATOM      3  C   UNL     1       2.129   5.129  20.484  0.00  0.00    +0.000 A 
ATOM      4  C   UNL     1       2.749   6.040  19.617  0.00  0.00    +0.000 A 
ATOM      5  C   UNL     1       2.204   7.437  19.507  0.00  0.00    +0.000 C 
ATOM      6  N   UNL     1       3.823   5.623  18.889  0.00  0.00    +0.000 N 
ATOM      7  C   UNL     1       4.291   4.355  19.011  0.00  0.00    +0.000 A 
ATOM      8  C   UNL     1       3.668   3.413  19.830  0.00  0.00    +0.000 A 
ENDROOT
BRANCH   8   9
ATOM      9  C   UNL     1       4.268   2.057  19.784  0.00  0.00    +0.000 C 
ATOM     10  N   UNL     1       4.006   1.248  18.720  0.00  0.00    +0.000 N 
ATOM     11  O   UNL     1       5.053   1.731  20.668  0.00  0.00    +0.000 OA
ATOM     12  H   UNL     1       3.434   1.484  17.918  0.00  0.00    +0.000 HD
ATOM     13  H   UNL     1       4.429   0.327  18.699  0.00  0.00    +0.000 HD
ENDBRANCH   8   9
BRANCH   6  14
ATOM     14  C   UNL     1       4.462   6.497  17.864  0.00  0.00    +0.000 C 
BRANCH  14  15
ATOM     15  C   UNL     1       5.373   5.785  16.893  0.00  0.00    +0.000 A 
ATOM     16  C   UNL     1       6.736   5.551  17.132  0.00  0.00    +0.000 A 
ATOM     17  C   UNL     1       7.537   4.968  16.149  0.00  0.00    +0.000 A 
ATOM     18  C   UNL     1       6.986   4.579  14.930  0.00  0.00    +0.000 A 
ATOM     19  C   UNL     1       5.625   4.752  14.699  0.00  0.00    +0.000 A 
ATOM     20  C   UNL     1       4.823   5.346  15.674  0.00  0.00    +0.000 A 
ENDBRANCH  14  15
ENDBRANCH   6  14
TORSDOF 3
ENDMDL
MODEL 7
REMARK VINA RESULT:      -7.1      1.189      1.276
REMARK  Name = 
REMARK  5 active torsions:
REMARK  status: ('A' for Active; 'I' for Inactive)
REMARK    1  A    between atoms: C_1  and  C_2
REMARK    2  A    between atoms: C_4  and  C_5
REMARK    3  A    between atoms: N_6  and  C_7
REMARK    4  A    between atoms: C_7  and  C_8
REMARK    5  A    between atoms: C_15  and  C_16
REMARK                            x       y       z     vdW  Elec       q    Type
REMARK                         _______ _______ _______ _____ _____    ______ ____
ROOT
ATOM      1  C   UNL     1       7.476   7.708  17.422  0.00  0.00    +0.000 C 
ATOM      2  C   UNL     1       6.180   6.956  17.467  0.00  0.00    +0.000 A 
ATOM      3  C   UNL     1       4.994   7.693  17.575  0.00  0.00    +0.000 A 
ATOM      4  C   UNL     1       3.741   7.065  17.624  0.00  0.00    +0.000 A 
ATOM      5  C   UNL     1       2.502   7.905  17.758  0.00  0.00    +0.000 C 
ATOM      6  N   UNL     1       3.688   5.704  17.559  0.00  0.00    +0.000 N 
ATOM      7  C   UNL     1       4.825   4.973  17.437  0.00  0.00    +0.000 A 
ATOM      8  C   UNL     1       6.088   5.566  17.433  0.00  0.00    +0.000 A 
ENDROOT
BRANCH   8   9
ATOM      9  C   UNL     1       7.222   4.612  17.369  0.00  0.00    +0.000 C 
ATOM     10  N   UNL     1       7.596   4.102  16.163  0.00  0.00    +0.000 N 
ATOM     11  O   UNL     1       7.847   4.371  18.396  0.00  0.00    +0.000 OA
ATOM     12  H   UNL     1       7.177   4.321  15.267  0.00  0.00    +0.000 HD
ATOM     13  H   UNL     1       8.378   3.457  16.134  0.00  0.00    +0.000 HD
ENDBRANCH   8   9
BRANCH   6  14
ATOM     14  C   UNL     1       2.406   4.961  17.720  0.00  0.00    +0.000 C 
BRANCH  14  15
ATOM     15  C   UNL     1       2.255   4.219  19.026  0.00  0.00    +0.000 A 
ATOM     16  C   UNL     1       1.937   2.856  19.115  0.00  0.00    +0.000 A 
ATOM     17  C   UNL     1       1.723   2.259  20.360  0.00  0.00    +0.000 A 
ATOM     18  C   UNL     1       1.857   3.002  21.530  0.00  0.00    +0.000 A 
ATOM     19  C   UNL     1       2.227   4.341  21.461  0.00  0.00    +0.000 A 
ATOM     20  C   UNL     1       2.430   4.945  20.220  0.00  0.00    +0.000 A 
ENDBRANCH  14  15
ENDBRANCH   6  14
TORSDOF 3
ENDMDL
MODEL 8
REMARK VINA RESULT:      -7.0      2.217      3.871
REMARK  Name = 
REMARK  5 active torsions:
REMARK  status: ('A' for Active; 'I' for Inactive)
REMARK    1  A    between atoms: C_1  and  C_2
REMARK    2  A    between atoms: C_4  and  C_5
REMARK    3  A    between atoms: N_6  and  C_7
REMARK    4  A    between atoms: C_7  and  C_8
REMARK    5  A    between atoms: C_15  and  C_16
REMARK                            x       y       z     vdW  Elec       q    Type
REMARK                         _______ _______ _______ _____ _____    ______ ____
ROOT
ATOM      1  C   UNL     1       7.301   4.911  15.447  0.00  0.00    +0.000 C 
ATOM      2  C   UNL     1       6.238   5.089  16.489  0.00  0.00    +0.000 A 
ATOM      3  C   UNL     1       5.063   4.336  16.368  0.00  0.00    +0.000 A 
ATOM      4  C   UNL     1       4.021   4.446  17.300  0.00  0.00    +0.000 A 
ATOM      5  C   UNL     1       2.775   3.627  17.110  0.00  0.00    +0.000 C 
ATOM      6  N   UNL     1       4.169   5.304  18.348  0.00  0.00    +0.000 N 
ATOM      7  C   UNL     1       5.307   6.030  18.493  0.00  0.00    +0.000 A 
ATOM      8  C   UNL     1       6.341   5.978  17.557  0.00  0.00    +0.000 A 
ENDROOT
BRANCH   8   9
ATOM      9  C   UNL     1       7.475   6.892  17.834  0.00  0.00    +0.000 C 
ATOM     10  N   UNL     1       8.310   6.623  18.876  0.00  0.00    +0.000 N 
ATOM     11  O   UNL     1       7.680   7.824  17.063  0.00  0.00    +0.000 OA
ATOM     12  H   UNL     1       8.246   5.828  19.500  0.00  0.00    +0.000 HD
ATOM     13  H   UNL     1       9.085   7.252  19.048  0.00  0.00    +0.000 HD
ENDBRANCH   8   9
BRANCH   6  14
ATOM     14  C   UNL     1       3.062   5.560  19.315  0.00  0.00    +0.000 C 
BRANCH  14  15
ATOM     15  C   UNL     1       2.440   6.933  19.227  0.00  0.00    +0.000 A 
ATOM     16  C   UNL     1       1.922   7.626  20.331  0.00  0.00    +0.000 A 
ATOM     17  C   UNL     1       1.278   8.853  20.159  0.00  0.00    +0.000 A 
ATOM     18  C   UNL     1       1.173   9.422  18.892  0.00  0.00    +0.000 A 
ATOM     19  C   UNL     1       1.731   8.775  17.794  0.00  0.00    +0.000 A 
ATOM     20  C   UNL     1       2.364   7.542  17.959  0.00  0.00    +0.000 A 
ENDBRANCH  14  15
ENDBRANCH   6  14
TORSDOF 3
ENDMDL
MODEL 9
REMARK VINA RESULT:      -6.8      2.148      5.453
REMARK  Name = 
REMARK  5 active torsions:
REMARK  status: ('A' for Active; 'I' for Inactive)
REMARK    1  A    between atoms: C_1  and  C_2
REMARK    2  A    between atoms: C_4  and  C_5
REMARK    3  A    between atoms: N_6  and  C_7
REMARK    4  A    between atoms: C_7  and  C_8
REMARK    5  A    between atoms: C_15  and  C_16
REMARK                            x       y       z     vdW  Elec       q    Type
REMARK                         _______ _______ _______ _____ _____    ______ ____
ROOT
ATOM      1  C   UNL     1       1.552   2.671  20.634  0.00  0.00    +0.000 C 
ATOM      2  C   UNL     1       2.423   3.490  19.729  0.00  0.00    +0.000 A 
ATOM      3  C   UNL     1       1.977   4.767  19.364  0.00  0.00    +0.000 A 
ATOM      4  C   UNL     1       2.733   5.595  18.521  0.00  0.00    +0.000 A 
ATOM      5  C   UNL     1       2.197   6.949  18.148  0.00  0.00    +0.000 C 
ATOM      6  N   UNL     1       3.929   5.138  18.056  0.00  0.00    +0.000 N 
ATOM      7  C   UNL     1       4.386   3.910  18.411  0.00  0.00    +0.000 A 
ATOM      8  C   UNL     1       3.637   3.046  19.210  0.00  0.00    +0.000 A 
ENDROOT
BRANCH   8   9
ATOM      9  C   UNL     1       4.255   1.717  19.437  0.00  0.00    +0.000 C 
ATOM     10  N   UNL     1       4.032   0.717  18.541  0.00  0.00    +0.000 N 
ATOM     11  O   UNL     1       5.022   1.579  20.385  0.00  0.00    +0.000 OA
ATOM     12  H   UNL     1       3.477   0.786  17.696  0.00  0.00    +0.000 HD
ATOM     13  H   UNL     1       4.468  -0.184  18.705  0.00  0.00    +0.000 HD
ENDBRANCH   8   9
BRANCH   6  14
ATOM     14  C   UNL     1       4.734   5.912  17.066  0.00  0.00    +0.000 C 
BRANCH  14  15
ATOM     15  C   UNL     1       6.059   6.422  17.578  0.00  0.00    +0.000 A 
ATOM     16  C   UNL     1       6.834   5.752  18.536  0.00  0.00    +0.000 A 
ATOM     17  C   UNL     1       8.006   6.331  19.030  0.00  0.00    +0.000 A 
ATOM     18  C   UNL     1       8.437   7.565  18.551  0.00  0.00    +0.000 A 
ATOM     19  C   UNL     1       7.710   8.217  17.560  0.00  0.00    +0.000 A 
ATOM     20  C   UNL     1       6.532   7.648  17.073  0.00  0.00    +0.000 A 
ENDBRANCH  14  15
ENDBRANCH   6  14
TORSDOF 3
ENDMDL
