MODEL 1
REMARK VINA RESULT:      -7.1      0.000      0.000
REMARK  Name = 
REMARK  5 active torsions:
REMARK  status: ('A' for Active; 'I' for Inactive)
REMARK    1  A    between atoms: N_1  and  C_2
REMARK    2  A    between atoms: N_5  and  C_6
REMARK    3  A    between atoms: C_13  and  C_14
REMARK    4  A    between atoms: C_14  and  O_16
REMARK    5  A    between atoms: C_25  and  N_26
REMARK                            x       y       z     vdW  Elec       q    Type
REMARK                         _______ _______ _______ _____ _____    ______ ____
ROOT
ATOM      1  C   UNL     1      -2.807  12.750  21.536  0.00  0.00    +0.000 A 
ATOM      2  C   UNL     1      -1.763  12.579  22.466  0.00  0.00    +0.000 A 
ATOM      3  F   UNL     1      -1.831  13.145  23.681  0.00  0.00    +0.000 F 
ATOM      4  C   UNL     1      -0.647  11.787  22.200  0.00  0.00    +0.000 A 
ATOM      5  C   UNL     1      -0.535  11.153  20.964  0.00  0.00    +0.000 A 
ATOM      6  C   UNL     1       0.651  10.321  20.661  0.00  0.00    +0.000 A 
ATOM      7  O   UNL     1       1.551  10.149  21.483  0.00  0.00    +0.000 OA
ATOM      8  C   UNL     1       0.735   9.692  19.327  0.00  0.00    +0.000 A 
ATOM      9  C   UNL     1      -0.278   9.919  18.477  0.00  0.00    +0.000 A 
ATOM     10  N   UNL     1      -1.412  10.680  18.714  0.00  0.00    +0.000 N 
ATOM     11  C   UNL     1      -1.533  11.301  19.993  0.00  0.00    +0.000 A 
ATOM     12  C   UNL     1      -2.659  12.086  20.293  0.00  0.00    +0.000 A 
ATOM     13  O   UNL     1      -3.659  12.286  19.356  0.00  0.00    +0.000 OA
ATOM     14  C   UNL     1      -3.543  11.698  18.120  0.00  0.00    +0.000 A 
ATOM     15  C   UNL     1      -4.595  11.953  17.231  0.00  0.00    +0.000 A 
ATOM     16  C   UNL     1      -4.577  11.403  15.951  0.00  0.00    +0.000 A 
ATOM     17  C   UNL     1      -3.497  10.599  15.574  0.00  0.00    +0.000 A 
ATOM     18  C   UNL     1      -2.443  10.345  16.464  0.00  0.00    +0.000 A 
ATOM     19  C   UNL     1      -2.448  10.892  17.757  0.00  0.00    +0.000 A 
ENDROOT
BRANCH   1  23
ATOM     20  C   UNL     1      -5.574  14.310  23.325  0.00  0.00    +0.000 C 
ATOM     21  C   UNL     1      -5.366  15.326  22.203  0.00  0.00    +0.000 C 
ATOM     22  C   UNL     1      -3.985  14.973  21.645  0.00  0.00    +0.000 C 
ATOM     23  N   UNL     1      -3.924  13.525  21.793  0.00  0.00    +0.000 N 
ATOM     24  C   UNL     1      -4.969  13.030  22.703  0.00  0.00    +0.000 C 
BRANCH  20  25
ATOM     25  N   UNL     1      -4.892  14.718  24.562  0.00  0.00    +0.000 NA
ATOM     26  H   UNL     1      -5.576  14.844  25.306  0.00  0.00    +0.000 HD
ATOM     27  H   UNL     1      -4.448  15.627  24.421  0.00  0.00    +0.000 HD
ENDBRANCH  20  25
ENDBRANCH   1  23
BRANCH  17  28
ATOM     28  N   UNL     1      -3.458  10.007  14.231  0.00  0.00    +0.000 N 
ATOM     29  O   UNL     1      -4.539   9.754  13.683  0.00  0.00    +0.000 OA
ATOM     30  O   UNL     1      -2.346   9.793  13.726  0.00  0.00    +0.000 OA
ENDBRANCH  17  28
BRANCH   8  31
ATOM     31  C   UNL     1       1.855   8.843  18.872  0.00  0.00    +0.000 C 
ATOM     32  O   UNL     1       2.440   9.016  17.814  0.00  0.00    +0.000 OA
BRANCH  31  33
ATOM     33  O   UNL     1       2.184   7.851  19.724  0.00  0.00    +0.000 OA
ATOM     34  H   UNL     1       3.138   7.832  19.981  0.00  0.00    +0.000 HD
ENDBRANCH  31  33
ENDBRANCH   8  31
TORSDOF 5
ENDMDL
MODEL 2
REMARK VINA RESULT:      -7.0      0.802      1.375
REMARK  Name = 
REMARK  5 active torsions:
REMARK  status: ('A' for Active; 'I' for Inactive)
REMARK    1  A    between atoms: N_1  and  C_2
REMARK    2  A    between atoms: N_5  and  C_6
REMARK    3  A    between atoms: C_13  and  C_14
REMARK    4  A    between atoms: C_14  and  O_16
REMARK    5  A    between atoms: C_25  and  N_26
REMARK                            x       y       z     vdW  Elec       q    Type
REMARK                         _______ _______ _______ _____ _____    ______ ____
ROOT
ATOM      1  C   UNL     1      -2.567  12.558  21.326  0.00  0.00    +0.000 A 
ATOM      2  C   UNL     1      -1.500  12.353  22.222  0.00  0.00    +0.000 A 
ATOM      3  F   UNL     1      -1.525  12.897  23.449  0.00  0.00    +0.000 F 
ATOM      4  C   UNL     1      -0.406  11.547  21.912  0.00  0.00    +0.000 A 
ATOM      5  C   UNL     1      -0.339  10.934  20.662  0.00  0.00    +0.000 A 
ATOM      6  C   UNL     1       0.824  10.089  20.310  0.00  0.00    +0.000 A 
ATOM      7  O   UNL     1       1.743   9.887  21.104  0.00  0.00    +0.000 OA
ATOM      8  C   UNL     1       0.860   9.484  18.964  0.00  0.00    +0.000 A 
ATOM      9  C   UNL     1      -0.171   9.743  18.147  0.00  0.00    +0.000 A 
ATOM     10  N   UNL     1      -1.286  10.519  18.429  0.00  0.00    +0.000 N 
ATOM     11  C   UNL     1      -1.360  11.117  19.721  0.00  0.00    +0.000 A 
ATOM     12  C   UNL     1      -2.465  11.915  20.067  0.00  0.00    +0.000 A 
ATOM     13  O   UNL     1      -3.486  12.149  19.162  0.00  0.00    +0.000 OA
ATOM     14  C   UNL     1      -3.414  11.582  17.913  0.00  0.00    +0.000 A 
ATOM     15  C   UNL     1      -4.486  11.871  17.058  0.00  0.00    +0.000 A 
ATOM     16  C   UNL     1      -4.513  11.345  15.768  0.00  0.00    +0.000 A 
ATOM     17  C   UNL     1      -3.457  10.530  15.348  0.00  0.00    +0.000 A 
ATOM     18  C   UNL     1      -2.384  10.242  16.203  0.00  0.00    +0.000 A 
ATOM     19  C   UNL     1      -2.344  10.765  17.505  0.00  0.00    +0.000 A 
ENDROOT
BRANCH   1  23
ATOM     20  C   UNL     1      -5.225  15.029  20.983  0.00  0.00    +0.000 C 
ATOM     21  C   UNL     1      -5.841  14.108  22.036  0.00  0.00    +0.000 C 
ATOM     22  C   UNL     1      -4.991  12.839  21.951  0.00  0.00    +0.000 C 
ATOM     23  N   UNL     1      -3.663  13.346  21.627  0.00  0.00    +0.000 N 
ATOM     24  C   UNL     1      -3.716  14.741  21.162  0.00  0.00    +0.000 C 
BRANCH  20  25
ATOM     25  N   UNL     1      -5.709  14.710  19.632  0.00  0.00    +0.000 NA
ATOM     26  H   UNL     1      -4.977  14.232  19.109  0.00  0.00    +0.000 HD
ATOM     27  H   UNL     1      -5.906  15.576  19.127  0.00  0.00    +0.000 HD
ENDBRANCH  20  25
ENDBRANCH   1  23
BRANCH  17  28
ATOM     28  N   UNL     1      -3.466   9.962  13.993  0.00  0.00    +0.000 N 
ATOM     29  O   UNL     1      -2.372   9.718  13.466  0.00  0.00    +0.000 OA
ATOM     30  O   UNL     1      -4.566   9.763  13.457  0.00  0.00    +0.000 OA
ENDBRANCH  17  28
BRANCH   8  31
ATOM     31  C   UNL     1       1.953   8.624  18.463  0.00  0.00    +0.000 C 
ATOM     32  O   UNL     1       2.460   8.762  17.360  0.00  0.00    +0.000 OA
BRANCH  31  33
ATOM     33  O   UNL     1       2.350   7.667  19.325  0.00  0.00    +0.000 OA
ATOM     34  H   UNL     1       2.506   6.783  18.912  0.00  0.00    +0.000 HD
ENDBRANCH  31  33
ENDBRANCH   8  31
TORSDOF 5
ENDMDL
MODEL 3
REMARK VINA RESULT:      -6.6      9.601     12.872
REMARK  Name = 
REMARK  5 active torsions:
REMARK  status: ('A' for Active; 'I' for Inactive)
REMARK    1  A    between atoms: N_1  and  C_2
REMARK    2  A    between atoms: N_5  and  C_6
REMARK    3  A    between atoms: C_13  and  C_14
REMARK    4  A    between atoms: C_14  and  O_16
REMARK    5  A    between atoms: C_25  and  N_26
REMARK                            x       y       z     vdW  Elec       q    Type
REMARK                         _______ _______ _______ _____ _____    ______ ____
ROOT
ATOM      1  C   UNL     1       9.121  13.781  19.551  0.00  0.00    +0.000 A 
ATOM      2  C   UNL     1       8.849  14.701  18.520  0.00  0.00    +0.000 A 
ATOM      3  F   UNL     1       9.608  14.732  17.415  0.00  0.00    +0.000 F 
ATOM      4  C   UNL     1       7.765  15.577  18.566  0.00  0.00    +0.000 A 
ATOM      5  C   UNL     1       6.925  15.571  19.678  0.00  0.00    +0.000 A 
ATOM      6  C   UNL     1       5.780  16.505  19.750  0.00  0.00    +0.000 A 
ATOM      7  O   UNL     1       5.525  17.291  18.837  0.00  0.00    +0.000 OA
ATOM      8  C   UNL     1       4.936  16.478  20.961  0.00  0.00    +0.000 A 
ATOM      9  C   UNL     1       5.267  15.600  21.920  0.00  0.00    +0.000 A 
ATOM     10  N   UNL     1       6.321  14.699  21.899  0.00  0.00    +0.000 N 
ATOM     11  C   UNL     1       7.157  14.691  20.743  0.00  0.00    +0.000 A 
ATOM     12  C   UNL     1       8.243  13.801  20.663  0.00  0.00    +0.000 A 
ATOM     13  O   UNL     1       8.530  12.933  21.702  0.00  0.00    +0.000 OA
ATOM     14  C   UNL     1       7.733  12.943  22.821  0.00  0.00    +0.000 A 
ATOM     15  C   UNL     1       8.095  12.036  23.826  0.00  0.00    +0.000 A 
ATOM     16  C   UNL     1       7.352  11.963  25.002  0.00  0.00    +0.000 A 
ATOM     17  C   UNL     1       6.248  12.806  25.158  0.00  0.00    +0.000 A 
ATOM     18  C   UNL     1       5.887  13.715  24.153  0.00  0.00    +0.000 A 
ATOM     19  C   UNL     1       6.626  13.799  22.962  0.00  0.00    +0.000 A 
ENDROOT
BRANCH   1  23
ATOM     20  C   UNL     1      11.697  11.555  18.247  0.00  0.00    +0.000 C 
ATOM     21  C   UNL     1      12.333  11.962  19.576  0.00  0.00    +0.000 C 
ATOM     22  C   UNL     1      11.527  13.190  20.004  0.00  0.00    +0.000 C 
ATOM     23  N   UNL     1      10.187  12.899  19.511  0.00  0.00    +0.000 N 
ATOM     24  C   UNL     1      10.197  11.802  18.532  0.00  0.00    +0.000 C 
BRANCH  20  25
ATOM     25  N   UNL     1      12.205  12.366  17.130  0.00  0.00    +0.000 NA
ATOM     26  H   UNL     1      11.471  12.988  16.796  0.00  0.00    +0.000 HD
ATOM     27  H   UNL     1      12.445  11.755  16.348  0.00  0.00    +0.000 HD
ENDBRANCH  20  25
ENDBRANCH   1  23
BRANCH  17  28
ATOM     28  N   UNL     1       5.448  12.746  26.389  0.00  0.00    +0.000 N 
ATOM     29  O   UNL     1       5.616  11.772  27.135  0.00  0.00    +0.000 OA
ATOM     30  O   UNL     1       4.652  13.670  26.606  0.00  0.00    +0.000 OA
ENDBRANCH  17  28
BRANCH   8  31
ATOM     31  C   UNL     1       3.765  17.351  21.185  0.00  0.00    +0.000 C 
ATOM     32  O   UNL     1       2.734  16.965  21.714  0.00  0.00    +0.000 OA
BRANCH  31  33
ATOM     33  O   UNL     1       3.925  18.619  20.755  0.00  0.00    +0.000 OA
ATOM     34  H   UNL     1       3.592  18.785  19.840  0.00  0.00    +0.000 HD
ENDBRANCH  31  33
ENDBRANCH   8  31
TORSDOF 5
ENDMDL
MODEL 4
REMARK VINA RESULT:      -6.5      5.400      8.656
REMARK  Name = 
REMARK  5 active torsions:
REMARK  status: ('A' for Active; 'I' for Inactive)
REMARK    1  A    between atoms: N_1  and  C_2
REMARK    2  A    between atoms: N_5  and  C_6
REMARK    3  A    between atoms: C_13  and  C_14
REMARK    4  A    between atoms: C_14  and  O_16
REMARK    5  A    between atoms: C_25  and  N_26
REMARK                            x       y       z     vdW  Elec       q    Type
REMARK                         _______ _______ _______ _____ _____    ______ ____
ROOT
ATOM      1  C   UNL     1       1.867   7.599  19.599  0.00  0.00    +0.000 A 
ATOM      2  C   UNL     1       1.408   7.014  20.795  0.00  0.00    +0.000 A 
ATOM      3  F   UNL     1       0.535   7.663  21.580  0.00  0.00    +0.000 F 
ATOM      4  C   UNL     1       1.787   5.734  21.197  0.00  0.00    +0.000 A 
ATOM      5  C   UNL     1       2.672   5.002  20.407  0.00  0.00    +0.000 A 
ATOM      6  C   UNL     1       3.097   3.648  20.826  0.00  0.00    +0.000 A 
ATOM      7  O   UNL     1       2.674   3.126  21.858  0.00  0.00    +0.000 OA
ATOM      8  C   UNL     1       4.056   2.925  19.968  0.00  0.00    +0.000 A 
ATOM      9  C   UNL     1       4.478   3.548  18.858  0.00  0.00    +0.000 A 
ATOM     10  N   UNL     1       4.106   4.809  18.416  0.00  0.00    +0.000 N 
ATOM     11  C   UNL     1       3.177   5.538  19.215  0.00  0.00    +0.000 A 
ATOM     12  C   UNL     1       2.761   6.822  18.820  0.00  0.00    +0.000 A 
ATOM     13  O   UNL     1       3.254   7.407  17.667  0.00  0.00    +0.000 OA
ATOM     14  C   UNL     1       4.156   6.712  16.898  0.00  0.00    +0.000 A 
ATOM     15  C   UNL     1       4.606   7.376  15.750  0.00  0.00    +0.000 A 
ATOM     16  C   UNL     1       5.522   6.759  14.899  0.00  0.00    +0.000 A 
ATOM     17  C   UNL     1       5.978   5.475  15.213  0.00  0.00    +0.000 A 
ATOM     18  C   UNL     1       5.529   4.812  16.364  0.00  0.00    +0.000 A 
ATOM     19  C   UNL     1       4.606   5.421  17.229  0.00  0.00    +0.000 A 
ENDROOT
BRANCH   1  23
ATOM     20  C   UNL     1      -0.136  10.304  18.199  0.00  0.00    +0.000 C 
ATOM     21  C   UNL     1       0.774  11.095  19.140  0.00  0.00    +0.000 C 
ATOM     22  C   UNL     1       1.365  10.023  20.058  0.00  0.00    +0.000 C 
ATOM     23  N   UNL     1       1.489   8.864  19.185  0.00  0.00    +0.000 N 
ATOM     24  C   UNL     1       0.704   9.030  17.951  0.00  0.00    +0.000 C 
BRANCH  20  25
ATOM     25  N   UNL     1      -1.438  10.016  18.819  0.00  0.00    +0.000 NA
ATOM     26  H   UNL     1      -1.296   9.584  19.730  0.00  0.00    +0.000 HD
ATOM     27  H   UNL     1      -1.941   9.333  18.250  0.00  0.00    +0.000 HD
ENDBRANCH  20  25
ENDBRANCH   1  23
BRANCH  17  28
ATOM     28  N   UNL     1       6.942   4.805  14.330  0.00  0.00    +0.000 N 
ATOM     29  O   UNL     1       6.660   3.667  13.932  0.00  0.00    +0.000 OA
ATOM     30  O   UNL     1       7.980   5.417  14.039  0.00  0.00    +0.000 OA
ENDBRANCH  17  28
BRANCH   8  31
ATOM     31  C   UNL     1       4.580   1.573  20.255  0.00  0.00    +0.000 C 
ATOM     32  O   UNL     1       5.160   1.285  21.290  0.00  0.00    +0.000 OA
BRANCH  31  33
ATOM     33  O   UNL     1       4.366   0.673  19.273  0.00  0.00    +0.000 OA
ATOM     34  H   UNL     1       4.951  -0.123  19.314  0.00  0.00    +0.000 HD
ENDBRANCH  31  33
ENDBRANCH   8  31
TORSDOF 5
ENDMDL
MODEL 5
REMARK VINA RESULT:      -6.5      9.348     12.650
REMARK  Name = 
REMARK  5 active torsions:
REMARK  status: ('A' for Active; 'I' for Inactive)
REMARK    1  A    between atoms: N_1  and  C_2
REMARK    2  A    between atoms: N_5  and  C_6
REMARK    3  A    between atoms: C_13  and  C_14
REMARK    4  A    between atoms: C_14  and  O_16
REMARK    5  A    between atoms: C_25  and  N_26
REMARK                            x       y       z     vdW  Elec       q    Type
REMARK                         _______ _______ _______ _____ _____    ______ ____
ROOT
ATOM      1  C   UNL     1       8.714  14.663  19.122  0.00  0.00    +0.000 A 
ATOM      2  C   UNL     1       8.252  15.748  18.352  0.00  0.00    +0.000 A 
ATOM      3  F   UNL     1       8.885  16.101  17.223  0.00  0.00    +0.000 F 
ATOM      4  C   UNL     1       7.105  16.467  18.685  0.00  0.00    +0.000 A 
ATOM      5  C   UNL     1       6.391  16.127  19.833  0.00  0.00    +0.000 A 
ATOM      6  C   UNL     1       5.181  16.890  20.208  0.00  0.00    +0.000 A 
ATOM      7  O   UNL     1       4.760  17.821  19.520  0.00  0.00    +0.000 OA
ATOM      8  C   UNL     1       4.476  16.508  21.448  0.00  0.00    +0.000 A 
ATOM      9  C   UNL     1       4.984  15.486  22.153  0.00  0.00    +0.000 A 
ATOM     10  N   UNL     1       6.107  14.734  21.842  0.00  0.00    +0.000 N 
ATOM     11  C   UNL     1       6.814  15.070  20.649  0.00  0.00    +0.000 A 
ATOM     12  C   UNL     1       7.960  14.345  20.280  0.00  0.00    +0.000 A 
ATOM     13  O   UNL     1       8.433  13.310  21.068  0.00  0.00    +0.000 OA
ATOM     14  C   UNL     1       7.762  12.989  22.223  0.00  0.00    +0.000 A 
ATOM     15  C   UNL     1       8.308  11.932  22.963  0.00  0.00    +0.000 A 
ATOM     16  C   UNL     1       7.703  11.525  24.150  0.00  0.00    +0.000 A 
ATOM     17  C   UNL     1       6.550  12.186  24.584  0.00  0.00    +0.000 A 
ATOM     18  C   UNL     1       6.005  13.245  23.844  0.00  0.00    +0.000 A 
ATOM     19  C   UNL     1       6.603  13.666  22.645  0.00  0.00    +0.000 A 
ENDROOT
BRANCH   1  23
ATOM     20  C   UNL     1      11.203  12.876  17.147  0.00  0.00    +0.000 C 
ATOM     21  C   UNL     1      12.053  13.291  18.348  0.00  0.00    +0.000 C 
ATOM     22  C   UNL     1      11.214  14.375  19.028  0.00  0.00    +0.000 C 
ATOM     23  N   UNL     1       9.845  13.935  18.796  0.00  0.00    +0.000 N 
ATOM     24  C   UNL     1       9.779  12.904  17.749  0.00  0.00    +0.000 C 
BRANCH  20  25
ATOM     25  N   UNL     1      11.363  13.807  16.020  0.00  0.00    +0.000 NA
ATOM     26  H   UNL     1      11.729  13.307  15.212  0.00  0.00    +0.000 HD
ATOM     27  H   UNL     1      12.058  14.515  16.261  0.00  0.00    +0.000 HD
ENDBRANCH  20  25
ENDBRANCH   1  23
BRANCH  17  28
ATOM     28  N   UNL     1       5.894  11.772  25.832  0.00  0.00    +0.000 N 
ATOM     29  O   UNL     1       4.804  12.290  26.106  0.00  0.00    +0.000 OA
ATOM     30  O   UNL     1       6.472  10.931  26.536  0.00  0.00    +0.000 OA
ENDBRANCH  17  28
BRANCH   8  31
ATOM     31  C   UNL     1       3.261  17.176  21.960  0.00  0.00    +0.000 C 
ATOM     32  O   UNL     1       3.109  17.481  23.133  0.00  0.00    +0.000 OA
BRANCH  31  33
ATOM     33  O   UNL     1       2.325  17.425  21.022  0.00  0.00    +0.000 OA
ATOM     34  H   UNL     1       2.678  17.503  20.102  0.00  0.00    +0.000 HD
ENDBRANCH  31  33
ENDBRANCH   8  31
TORSDOF 5
ENDMDL
MODEL 6
REMARK VINA RESULT:      -6.5      1.763      5.125
REMARK  Name = 
REMARK  5 active torsions:
REMARK  status: ('A' for Active; 'I' for Inactive)
REMARK    1  A    between atoms: N_1  and  C_2
REMARK    2  A    between atoms: N_5  and  C_6
REMARK    3  A    between atoms: C_13  and  C_14
REMARK    4  A    between atoms: C_14  and  O_16
REMARK    5  A    between atoms: C_25  and  N_26
REMARK                            x       y       z     vdW  Elec       q    Type
REMARK                         _______ _______ _______ _____ _____    ______ ____
ROOT
ATOM      1  C   UNL     1      -3.780  12.837  20.911  0.00  0.00    +0.000 A 
ATOM      2  C   UNL     1      -4.950  13.189  20.211  0.00  0.00    +0.000 A 
ATOM      3  F   UNL     1      -5.888  13.953  20.792  0.00  0.00    +0.000 F 
ATOM      4  C   UNL     1      -5.171  12.816  18.886  0.00  0.00    +0.000 A 
ATOM      5  C   UNL     1      -4.219  12.045  18.223  0.00  0.00    +0.000 A 
ATOM      6  C   UNL     1      -4.445  11.627  16.822  0.00  0.00    +0.000 A 
ATOM      7  O   UNL     1      -5.455  11.958  16.201  0.00  0.00    +0.000 OA
ATOM      8  C   UNL     1      -3.419  10.788  16.173  0.00  0.00    +0.000 A 
ATOM      9  C   UNL     1      -2.342  10.461  16.903  0.00  0.00    +0.000 A 
ATOM     10  N   UNL     1      -2.077  10.832  18.213  0.00  0.00    +0.000 N 
ATOM     11  C   UNL     1      -3.044  11.647  18.874  0.00  0.00    +0.000 A 
ATOM     12  C   UNL     1      -2.833  12.056  20.202  0.00  0.00    +0.000 A 
ATOM     13  O   UNL     1      -1.701  11.665  20.897  0.00  0.00    +0.000 OA
ATOM     14  C   UNL     1      -0.772  10.872  20.268  0.00  0.00    +0.000 A 
ATOM     15  C   UNL     1       0.341  10.520  21.042  0.00  0.00    +0.000 A 
ATOM     16  C   UNL     1       1.345   9.719  20.500  0.00  0.00    +0.000 A 
ATOM     17  C   UNL     1       1.219   9.278  19.179  0.00  0.00    +0.000 A 
ATOM     18  C   UNL     1       0.103   9.630  18.405  0.00  0.00    +0.000 A 
ATOM     19  C   UNL     1      -0.915  10.436  18.938  0.00  0.00    +0.000 A 
ENDROOT
BRANCH   1  23
ATOM     20  C   UNL     1      -3.835  14.776  23.997  0.00  0.00    +0.000 C 
ATOM     21  C   UNL     1      -3.603  13.373  24.559  0.00  0.00    +0.000 C 
ATOM     22  C   UNL     1      -3.965  12.451  23.393  0.00  0.00    +0.000 C 
ATOM     23  N   UNL     1      -3.545  13.210  22.222  0.00  0.00    +0.000 N 
ATOM     24  C   UNL     1      -3.305  14.624  22.552  0.00  0.00    +0.000 C 
BRANCH  20  25
ATOM     25  N   UNL     1      -5.255  15.153  24.046  0.00  0.00    +0.000 NA
ATOM     26  H   UNL     1      -5.480  15.523  24.968  0.00  0.00    +0.000 HD
ATOM     27  H   UNL     1      -5.833  14.320  23.920  0.00  0.00    +0.000 HD
ENDBRANCH  20  25
ENDBRANCH   1  23
BRANCH  17  28
ATOM     28  N   UNL     1       2.265   8.436  18.585  0.00  0.00    +0.000 N 
ATOM     29  O   UNL     1       2.760   8.805  17.512  0.00  0.00    +0.000 OA
ATOM     30  O   UNL     1       2.589   7.404  19.192  0.00  0.00    +0.000 OA
ENDBRANCH  17  28
BRANCH   8  31
ATOM     31  C   UNL     1      -3.503  10.285  14.786  0.00  0.00    +0.000 C 
ATOM     32  O   UNL     1      -2.522  10.083  14.087  0.00  0.00    +0.000 OA
BRANCH  31  33
ATOM     33  O   UNL     1      -4.759  10.066  14.348  0.00  0.00    +0.000 OA
ATOM     34  H   UNL     1      -4.959   9.122  14.135  0.00  0.00    +0.000 HD
ENDBRANCH  31  33
ENDBRANCH   8  31
TORSDOF 5
ENDMDL
MODEL 7
REMARK VINA RESULT:      -6.4      2.052      2.453
REMARK  Name = 
REMARK  5 active torsions:
REMARK  status: ('A' for Active; 'I' for Inactive)
REMARK    1  A    between atoms: N_1  and  C_2
REMARK    2  A    between atoms: N_5  and  C_6
REMARK    3  A    between atoms: C_13  and  C_14
REMARK    4  A    between atoms: C_14  and  O_16
REMARK    5  A    between atoms: C_25  and  N_26
REMARK                            x       y       z     vdW  Elec       q    Type
REMARK                         _______ _______ _______ _____ _____    ______ ____
ROOT
ATOM      1  C   UNL     1      -2.964  13.408  22.490  0.00  0.00    +0.000 A 
ATOM      2  C   UNL     1      -1.844  13.911  23.181  0.00  0.00    +0.000 A 
ATOM      3  F   UNL     1      -1.969  14.387  24.429  0.00  0.00    +0.000 F 
ATOM      4  C   UNL     1      -0.560  13.894  22.638  0.00  0.00    +0.000 A 
ATOM      5  C   UNL     1      -0.365  13.386  21.355  0.00  0.00    +0.000 A 
ATOM      6  C   UNL     1       0.989  13.375  20.758  0.00  0.00    +0.000 A 
ATOM      7  O   UNL     1       1.973  13.788  21.372  0.00  0.00    +0.000 OA
ATOM      8  C   UNL     1       1.139  12.851  19.386  0.00  0.00    +0.000 A 
ATOM      9  C   UNL     1       0.029  12.416  18.771  0.00  0.00    +0.000 A 
ATOM     10  N   UNL     1      -1.258  12.396  19.287  0.00  0.00    +0.000 N 
ATOM     11  C   UNL     1      -1.444  12.890  20.612  0.00  0.00    +0.000 A 
ATOM     12  C   UNL     1      -2.725  12.896  21.190  0.00  0.00    +0.000 A 
ATOM     13  O   UNL     1      -3.827  12.444  20.486  0.00  0.00    +0.000 OA
ATOM     14  C   UNL     1      -3.655  11.975  19.206  0.00  0.00    +0.000 A 
ATOM     15  C   UNL     1      -4.821  11.539  18.563  0.00  0.00    +0.000 A 
ATOM     16  C   UNL     1      -4.758  11.044  17.262  0.00  0.00    +0.000 A 
ATOM     17  C   UNL     1      -3.519  10.991  16.617  0.00  0.00    +0.000 A 
ATOM     18  C   UNL     1      -2.352  11.430  17.260  0.00  0.00    +0.000 A 
ATOM     19  C   UNL     1      -2.401  11.931  18.571  0.00  0.00    +0.000 A 
ENDROOT
BRANCH   1  23
ATOM     20  C   UNL     1      -6.597  13.212  22.716  0.00  0.00    +0.000 C 
ATOM     21  C   UNL     1      -6.212  12.812  24.140  0.00  0.00    +0.000 C 
ATOM     22  C   UNL     1      -4.723  12.476  24.033  0.00  0.00    +0.000 C 
ATOM     23  N   UNL     1      -4.240  13.410  23.023  0.00  0.00    +0.000 N 
ATOM     24  C   UNL     1      -5.351  14.012  22.269  0.00  0.00    +0.000 C 
BRANCH  20  25
ATOM     25  N   UNL     1      -6.850  12.035  21.871  0.00  0.00    +0.000 NA
ATOM     26  H   UNL     1      -5.966  11.596  21.621  0.00  0.00    +0.000 HD
ATOM     27  H   UNL     1      -7.284  12.332  20.996  0.00  0.00    +0.000 HD
ENDBRANCH  20  25
ENDBRANCH   1  23
BRANCH  17  28
ATOM     28  N   UNL     1      -3.428  10.471  15.246  0.00  0.00    +0.000 N 
ATOM     29  O   UNL     1      -4.486  10.200  14.664  0.00  0.00    +0.000 OA
ATOM     30  O   UNL     1      -2.298  10.332  14.755  0.00  0.00    +0.000 OA
ENDBRANCH  17  28
BRANCH   8  31
ATOM     31  C   UNL     1       2.419  12.781  18.652  0.00  0.00    +0.000 C 
ATOM     32  O   UNL     1       2.722  11.851  17.921  0.00  0.00    +0.000 OA
BRANCH  31  33
ATOM     33  O   UNL     1       3.236  13.835  18.855  0.00  0.00    +0.000 OA
ATOM     34  H   UNL     1       2.861  14.536  19.441  0.00  0.00    +0.000 HD
ENDBRANCH  31  33
ENDBRANCH   8  31
TORSDOF 5
ENDMDL
MODEL 8
REMARK VINA RESULT:      -6.4      2.656      5.266
REMARK  Name = 
REMARK  5 active torsions:
REMARK  status: ('A' for Active; 'I' for Inactive)
REMARK    1  A    between atoms: N_1  and  C_2
REMARK    2  A    between atoms: N_5  and  C_6
REMARK    3  A    between atoms: C_13  and  C_14
REMARK    4  A    between atoms: C_14  and  O_16
REMARK    5  A    between atoms: C_25  and  N_26
REMARK                            x       y       z     vdW  Elec       q    Type
REMARK                         _______ _______ _______ _____ _____    ______ ____
ROOT
ATOM      1  C   UNL     1      -4.358  13.572  22.059  0.00  0.00    +0.000 A 
ATOM      2  C   UNL     1      -5.584  13.020  21.639  0.00  0.00    +0.000 A 
ATOM      3  F   UNL     1      -6.696  13.192  22.369  0.00  0.00    +0.000 F 
ATOM      4  C   UNL     1      -5.719  12.322  20.439  0.00  0.00    +0.000 A 
ATOM      5  C   UNL     1      -4.603  12.135  19.626  0.00  0.00    +0.000 A 
ATOM      6  C   UNL     1      -4.725  11.384  18.358  0.00  0.00    +0.000 A 
ATOM      7  O   UNL     1      -5.802  10.925  17.976  0.00  0.00    +0.000 OA
ATOM      8  C   UNL     1      -3.508  11.190  17.545  0.00  0.00    +0.000 A 
ATOM      9  C   UNL     1      -2.366  11.714  18.015  0.00  0.00    +0.000 A 
ATOM     10  N   UNL     1      -2.199  12.432  19.190  0.00  0.00    +0.000 N 
ATOM     11  C   UNL     1      -3.353  12.645  20.001  0.00  0.00    +0.000 A 
ATOM     12  C   UNL     1      -3.247  13.364  21.204  0.00  0.00    +0.000 A 
ATOM     13  O   UNL     1      -2.029  13.863  21.632  0.00  0.00    +0.000 OA
ATOM     14  C   UNL     1      -0.913  13.653  20.859  0.00  0.00    +0.000 A 
ATOM     15  C   UNL     1       0.279  14.187  21.365  0.00  0.00    +0.000 A 
ATOM     16  C   UNL     1       1.470  14.032  20.658  0.00  0.00    +0.000 A 
ATOM     17  C   UNL     1       1.452  13.338  19.444  0.00  0.00    +0.000 A 
ATOM     18  C   UNL     1       0.258  12.802  18.939  0.00  0.00    +0.000 A 
ATOM     19  C   UNL     1      -0.949  12.951  19.640  0.00  0.00    +0.000 A 
ENDROOT
BRANCH   1  23
ATOM     20  C   UNL     1      -2.936  14.785  25.189  0.00  0.00    +0.000 C 
ATOM     21  C   UNL     1      -3.840  15.963  24.823  0.00  0.00    +0.000 C 
ATOM     22  C   UNL     1      -4.163  15.728  23.347  0.00  0.00    +0.000 C 
ATOM     23  N   UNL     1      -4.215  14.275  23.242  0.00  0.00    +0.000 N 
ATOM     24  C   UNL     1      -3.606  13.627  24.414  0.00  0.00    +0.000 C 
BRANCH  20  25
ATOM     25  N   UNL     1      -1.545  15.019  24.773  0.00  0.00    +0.000 NA
ATOM     26  H   UNL     1      -1.181  14.187  24.311  0.00  0.00    +0.000 HD
ATOM     27  H   UNL     1      -0.964  15.168  25.599  0.00  0.00    +0.000 HD
ENDBRANCH  20  25
ENDBRANCH   1  23
BRANCH  17  28
ATOM     28  N   UNL     1       2.694  13.164  18.681  0.00  0.00    +0.000 N 
ATOM     29  O   UNL     1       2.795  12.156  17.970  0.00  0.00    +0.000 OA
ATOM     30  O   UNL     1       3.569  14.035  18.797  0.00  0.00    +0.000 OA
ENDBRANCH  17  28
BRANCH   8  31
ATOM     31  C   UNL     1      -3.466  10.458  16.262  0.00  0.00    +0.000 C 
ATOM     32  O   UNL     1      -2.569   9.686  15.961  0.00  0.00    +0.000 OA
BRANCH  31  33
ATOM     33  O   UNL     1      -4.505  10.711  15.441  0.00  0.00    +0.000 OA
ATOM     34  H   UNL     1      -4.700   9.990  14.794  0.00  0.00    +0.000 HD
ENDBRANCH  31  33
ENDBRANCH   8  31
TORSDOF 5
ENDMDL
MODEL 9
REMARK VINA RESULT:      -6.4      9.582     12.808
REMARK  Name = 
REMARK  5 active torsions:
REMARK  status: ('A' for Active; 'I' for Inactive)
REMARK    1  A    between atoms: N_1  and  C_2
REMARK    2  A    between atoms: N_5  and  C_6
REMARK    3  A    between atoms: C_13  and  C_14
REMARK    4  A    between atoms: C_14  and  O_16
REMARK    5  A    between atoms: C_25  and  N_26
REMARK                            x       y       z     vdW  Elec       q    Type
REMARK                         _______ _______ _______ _____ _____    ______ ____
ROOT
ATOM      1  C   UNL     1       9.184  14.728  18.906  0.00  0.00    +0.000 A 
ATOM      2  C   UNL     1       8.771  15.862  18.181  0.00  0.00    +0.000 A 
ATOM      3  F   UNL     1       9.439  16.251  17.084  0.00  0.00    +0.000 F 
ATOM      4  C   UNL     1       7.639  16.599  18.524  0.00  0.00    +0.000 A 
ATOM      5  C   UNL     1       6.890  16.226  19.639  0.00  0.00    +0.000 A 
ATOM      6  C   UNL     1       5.695  17.006  20.027  0.00  0.00    +0.000 A 
ATOM      7  O   UNL     1       5.317  17.982  19.377  0.00  0.00    +0.000 OA
ATOM      8  C   UNL     1       4.952  16.585  21.231  0.00  0.00    +0.000 A 
ATOM      9  C   UNL     1       5.414  15.515  21.895  0.00  0.00    +0.000 A 
ATOM     10  N   UNL     1       6.521  14.746  21.570  0.00  0.00    +0.000 N 
ATOM     11  C   UNL     1       7.263  15.117  20.410  0.00  0.00    +0.000 A 
ATOM     12  C   UNL     1       8.396  14.377  20.030  0.00  0.00    +0.000 A 
ATOM     13  O   UNL     1       8.821  13.291  20.776  0.00  0.00    +0.000 OA
ATOM     14  C   UNL     1       8.114  12.934  21.899  0.00  0.00    +0.000 A 
ATOM     15  C   UNL     1       8.613  11.827  22.597  0.00  0.00    +0.000 A 
ATOM     16  C   UNL     1       7.970  11.380  23.750  0.00  0.00    +0.000 A 
ATOM     17  C   UNL     1       6.828  12.054  24.192  0.00  0.00    +0.000 A 
ATOM     18  C   UNL     1       6.330  13.164  23.494  0.00  0.00    +0.000 A 
ATOM     19  C   UNL     1       6.967  13.624  22.330  0.00  0.00    +0.000 A 
ENDROOT
BRANCH   1  23
ATOM     20  C   UNL     1      12.191  12.694  19.236  0.00  0.00    +0.000 C 
ATOM     21  C   UNL     1      11.725  12.269  17.844  0.00  0.00    +0.000 C 
ATOM     22  C   UNL     1      10.275  12.755  17.783  0.00  0.00    +0.000 C 
ATOM     23  N   UNL     1      10.300  13.983  18.567  0.00  0.00    +0.000 N 
ATOM     24  C   UNL     1      11.523  14.081  19.378  0.00  0.00    +0.000 C 
BRANCH  20  25
ATOM     25  N   UNL     1      11.754  11.743  20.269  0.00  0.00    +0.000 NA
ATOM     26  H   UNL     1      10.789  11.938  20.528  0.00  0.00    +0.000 HD
ATOM     27  H   UNL     1      12.313  11.877  21.113  0.00  0.00    +0.000 HD
ENDBRANCH  20  25
ENDBRANCH   1  23
BRANCH  17  28
ATOM     28  N   UNL     1       6.132  11.600  25.404  0.00  0.00    +0.000 N 
ATOM     29  O   UNL     1       5.122  10.900  25.258  0.00  0.00    +0.000 OA
ATOM     30  O   UNL     1       6.597  11.947  26.500  0.00  0.00    +0.000 OA
ENDBRANCH  17  28
BRANCH   8  31
ATOM     31  C   UNL     1       3.746  17.265  21.750  0.00  0.00    +0.000 C 
ATOM     32  O   UNL     1       3.596  17.556  22.927  0.00  0.00    +0.000 OA
BRANCH  31  33
ATOM     33  O   UNL     1       2.815  17.540  20.815  0.00  0.00    +0.000 OA
ATOM     34  H   UNL     1       2.476  16.748  20.329  0.00  0.00    +0.000 HD
ENDBRANCH  31  33
ENDBRANCH   8  31
TORSDOF 5
ENDMDL
