MODEL 1
REMARK VINA RESULT:      -7.4      0.000      0.000
REMARK  Name = 
REMARK  14 active torsions:
REMARK  status: ('A' for Active; 'I' for Inactive)
REMARK    1  A    between atoms: C_1  and  C_2
REMARK    2  A    between atoms: C_2  and  O_3
REMARK    3  A    between atoms: C_2  and  C_4
REMARK    4  A    between atoms: C_8  and  C_9
REMARK    5  A    between atoms: C_9  and  O_11
REMARK    6  A    between atoms: C_12  and  S_13
REMARK    7  A    between atoms: S_13  and  C_14
REMARK    8  A    between atoms: C_17  and  C_18
REMARK    9  A    between atoms: C_18  and  O_19
REMARK   10  A    between atoms: C_18  and  C_20
REMARK   11  A    between atoms: C_20  and  C_21
REMARK   12  A    between atoms: C_21  and  S_22
REMARK   13  A    between atoms: S_22  and  C_23
REMARK   14  A    between atoms: C_29  and  C_30
REMARK                            x       y       z     vdW  Elec       q    Type
REMARK                         _______ _______ _______ _____ _____    ______ ____
ROOT
ATOM      1  S   UNL     1       2.304   7.213  20.467  0.00  0.00    +0.000 S 
ENDROOT
BRANCH   1   7
ATOM      2  C   UNL     1       1.271  11.796  19.042  0.00  0.00    +0.000 C 
ATOM      3  C   UNL     1       0.996  11.750  20.547  0.00  0.00    +0.000 C 
ATOM      4  O   UNL     1       1.452  12.383  21.478  0.00  0.00    +0.000 OA
ATOM      5  C   UNL     1       0.044  10.533  20.424  0.00  0.00    +0.000 C 
ATOM      6  C   UNL     1       0.633   9.348  21.101  0.00  0.00    +0.000 C 
ATOM      7  C   UNL     1       1.252   8.558  20.203  0.00  0.00    +0.000 C 
ATOM      8  C   UNL     1       1.051   9.073  18.767  0.00  0.00    +0.000 C 
ATOM      9  C   UNL     1       2.275   9.151  17.856  0.00  0.00    +0.000 C 
ATOM     10  C   UNL     1       0.410  10.473  18.922  0.00  0.00    +0.000 C 
BRANCH   2  12
ATOM     11  C   UNL     1      -0.705  12.890  17.918  0.00  0.00    +0.000 C 
ATOM     12  C   UNL     1       0.758  13.039  18.322  0.00  0.00    +0.000 C 
BRANCH  12  13
ATOM     13  O   UNL     1       0.892  14.151  19.206  0.00  0.00    +0.000 OA
ATOM     14  H   UNL     1       0.946  13.815  20.119  0.00  0.00    +0.000 HD
ENDBRANCH  12  13
ENDBRANCH   2  12
BRANCH   6  15
ATOM     15  C   UNL     1       0.500   9.296  22.564  0.00  0.00    +0.000 C 
ATOM     16  O   UNL     1       1.429   9.527  23.314  0.00  0.00    +0.000 OA
BRANCH  15  17
ATOM     17  O   UNL     1      -0.732   8.950  22.990  0.00  0.00    +0.000 OA
ATOM     18  H   UNL     1      -0.812   8.967  23.963  0.00  0.00    +0.000 HD
ENDBRANCH  15  17
ENDBRANCH   6  15
ENDBRANCH   1   7
BRANCH   1  19
ATOM     19  C   UNL     1       1.475   5.602  20.233  0.00  0.00    +0.000 C 
ATOM     20  C   UNL     1       2.084   4.601  21.225  0.00  0.00    +0.000 C 
ATOM     21  N   UNL     1       2.020   3.260  20.635  0.00  0.00    +0.000 NA
ATOM     22  C   UNL     1       1.727   3.401  19.193  0.00  0.00    +0.000 C 
ATOM     23  C   UNL     1       1.597   4.908  18.890  0.00  0.00    +0.000 C 
ATOM     24  H   UNL     1       1.275   2.725  21.085  0.00  0.00    +0.000 HD
BRANCH  22  25
ATOM     25  C   UNL     1       2.845   2.739  18.343  0.00  0.00    +0.000 C 
BRANCH  25  26
ATOM     26  O   UNL     1       2.357   1.475  17.860  0.00  0.00    +0.000 OA
ATOM     27  H   UNL     1       3.005   0.818  18.184  0.00  0.00    +0.000 HD
ENDBRANCH  25  26
BRANCH  25  28
ATOM     28  C   UNL     1       3.313   3.548  17.117  0.00  0.00    +0.000 C 
BRANCH  28  29
ATOM     29  C   UNL     1       4.216   4.758  17.398  0.00  0.00    +0.000 C 
BRANCH  29  30
ATOM     30  S   UNL     1       5.431   4.379  18.711  0.00  0.00    +0.000 S 
BRANCH  30  31
ATOM     31  C   UNL     1       7.016   4.957  17.995  0.00  0.00    +0.000 C 
ATOM     32  C   UNL     1       7.637   6.168  18.682  0.00  0.00    +0.000 C 
ATOM     33  C   UNL     1       7.564   7.270  17.643  0.00  0.00    +0.000 C 
ATOM     34  N   UNL     1       7.708   6.584  16.357  0.00  0.00    +0.000 NA
ATOM     35  C   UNL     1       6.970   5.317  16.506  0.00  0.00    +0.000 C 
ATOM     36  H   UNL     1       8.696   6.371  16.209  0.00  0.00    +0.000 HD
ENDBRANCH  30  31
ENDBRANCH  29  30
ENDBRANCH  28  29
ENDBRANCH  25  28
ENDBRANCH  22  25
ENDBRANCH   1  19
TORSDOF 12
ENDMDL
MODEL 2
REMARK VINA RESULT:      -7.4      1.022      1.370
REMARK  Name = 
REMARK  14 active torsions:
REMARK  status: ('A' for Active; 'I' for Inactive)
REMARK    1  A    between atoms: C_1  and  C_2
REMARK    2  A    between atoms: C_2  and  O_3
REMARK    3  A    between atoms: C_2  and  C_4
REMARK    4  A    between atoms: C_8  and  C_9
REMARK    5  A    between atoms: C_9  and  O_11
REMARK    6  A    between atoms: C_12  and  S_13
REMARK    7  A    between atoms: S_13  and  C_14
REMARK    8  A    between atoms: C_17  and  C_18
REMARK    9  A    between atoms: C_18  and  O_19
REMARK   10  A    between atoms: C_18  and  C_20
REMARK   11  A    between atoms: C_20  and  C_21
REMARK   12  A    between atoms: C_21  and  S_22
REMARK   13  A    between atoms: S_22  and  C_23
REMARK   14  A    between atoms: C_29  and  C_30
REMARK                            x       y       z     vdW  Elec       q    Type
REMARK                         _______ _______ _______ _____ _____    ______ ____
ROOT
ATOM      1  S   UNL     1       2.211   7.514  20.109  0.00  0.00    +0.000 S 
ENDROOT
BRANCH   1   7
ATOM      2  C   UNL     1       0.589  12.073  19.285  0.00  0.00    +0.000 C 
ATOM      3  C   UNL     1       0.280  11.774  20.754  0.00  0.00    +0.000 C 
ATOM      4  O   UNL     1       0.614  12.321  21.785  0.00  0.00    +0.000 OA
ATOM      5  C   UNL     1      -0.489  10.471  20.416  0.00  0.00    +0.000 C 
ATOM      6  C   UNL     1       0.240   9.291  20.951  0.00  0.00    +0.000 C 
ATOM      7  C   UNL     1       0.990   8.729  19.983  0.00  0.00    +0.000 C 
ATOM      8  C   UNL     1       0.762   9.415  18.624  0.00  0.00    +0.000 C 
ATOM      9  C   UNL     1       1.989   9.787  17.794  0.00  0.00    +0.000 C 
ATOM     10  C   UNL     1      -0.074  10.679  18.940  0.00  0.00    +0.000 C 
BRANCH   2  12
ATOM     11  C   UNL     1       0.946  14.441  18.491  0.00  0.00    +0.000 C 
ATOM     12  C   UNL     1      -0.071  13.327  18.720  0.00  0.00    +0.000 C 
BRANCH  12  13
ATOM     13  O   UNL     1      -0.684  12.986  17.478  0.00  0.00    +0.000 OA
ATOM     14  H   UNL     1      -0.007  13.022  16.778  0.00  0.00    +0.000 HD
ENDBRANCH  12  13
ENDBRANCH   2  12
BRANCH   6  15
ATOM     15  C   UNL     1       0.073   9.011  22.383  0.00  0.00    +0.000 C 
ATOM     16  O   UNL     1      -0.803   8.283  22.811  0.00  0.00    +0.000 OA
BRANCH  15  17
ATOM     17  O   UNL     1       0.959   9.651  23.173  0.00  0.00    +0.000 OA
ATOM     18  H   UNL     1       0.627   9.784  24.081  0.00  0.00    +0.000 HD
ENDBRANCH  15  17
ENDBRANCH   6  15
ENDBRANCH   1   7
BRANCH   1  19
ATOM     19  C   UNL     1       1.540   5.816  20.041  0.00  0.00    +0.000 C 
ATOM     20  C   UNL     1       2.286   4.964  21.076  0.00  0.00    +0.000 C 
ATOM     21  N   UNL     1       2.333   3.579  20.596  0.00  0.00    +0.000 NA
ATOM     22  C   UNL     1       1.967   3.572  19.164  0.00  0.00    +0.000 C 
ATOM     23  C   UNL     1       1.674   5.030  18.752  0.00  0.00    +0.000 C 
ATOM     24  H   UNL     1       1.664   3.013  21.122  0.00  0.00    +0.000 HD
BRANCH  22  25
ATOM     25  C   UNL     1       3.110   2.954  18.313  0.00  0.00    +0.000 C 
BRANCH  25  26
ATOM     26  O   UNL     1       2.669   1.675  17.824  0.00  0.00    +0.000 OA
ATOM     27  H   UNL     1       3.491   1.207  17.576  0.00  0.00    +0.000 HD
ENDBRANCH  25  26
BRANCH  25  28
ATOM     28  C   UNL     1       3.550   3.784  17.090  0.00  0.00    +0.000 C 
BRANCH  28  29
ATOM     29  C   UNL     1       5.061   3.988  16.908  0.00  0.00    +0.000 C 
BRANCH  29  30
ATOM     30  S   UNL     1       5.429   5.686  16.335  0.00  0.00    +0.000 S 
BRANCH  30  31
ATOM     31  C   UNL     1       7.147   5.960  16.914  0.00  0.00    +0.000 C 
ATOM     32  C   UNL     1       7.667   4.937  17.916  0.00  0.00    +0.000 C 
ATOM     33  C   UNL     1       7.845   5.722  19.200  0.00  0.00    +0.000 C 
ATOM     34  N   UNL     1       8.215   7.072  18.766  0.00  0.00    +0.000 NA
ATOM     35  C   UNL     1       7.411   7.325  17.556  0.00  0.00    +0.000 C 
ATOM     36  H   UNL     1       9.203   7.074  18.508  0.00  0.00    +0.000 HD
ENDBRANCH  30  31
ENDBRANCH  29  30
ENDBRANCH  28  29
ENDBRANCH  25  28
ENDBRANCH  22  25
ENDBRANCH   1  19
TORSDOF 12
ENDMDL
MODEL 3
REMARK VINA RESULT:      -7.4      4.300      9.667
REMARK  Name = 
REMARK  14 active torsions:
REMARK  status: ('A' for Active; 'I' for Inactive)
REMARK    1  A    between atoms: C_1  and  C_2
REMARK    2  A    between atoms: C_2  and  O_3
REMARK    3  A    between atoms: C_2  and  C_4
REMARK    4  A    between atoms: C_8  and  C_9
REMARK    5  A    between atoms: C_9  and  O_11
REMARK    6  A    between atoms: C_12  and  S_13
REMARK    7  A    between atoms: S_13  and  C_14
REMARK    8  A    between atoms: C_17  and  C_18
REMARK    9  A    between atoms: C_18  and  O_19
REMARK   10  A    between atoms: C_18  and  C_20
REMARK   11  A    between atoms: C_20  and  C_21
REMARK   12  A    between atoms: C_21  and  S_22
REMARK   13  A    between atoms: S_22  and  C_23
REMARK   14  A    between atoms: C_29  and  C_30
REMARK                            x       y       z     vdW  Elec       q    Type
REMARK                         _______ _______ _______ _____ _____    ______ ____
ROOT
ATOM      1  S   UNL     1       0.882   7.053  20.659  0.00  0.00    +0.000 S 
ENDROOT
BRANCH   1   7
ATOM      2  C   UNL     1       3.612   4.722  17.310  0.00  0.00    +0.000 C 
ATOM      3  C   UNL     1       3.034   3.632  18.216  0.00  0.00    +0.000 C 
ATOM      4  O   UNL     1       2.332   2.668  17.985  0.00  0.00    +0.000 OA
ATOM      5  C   UNL     1       3.571   4.300  19.507  0.00  0.00    +0.000 C 
ATOM      6  C   UNL     1       2.441   4.765  20.354  0.00  0.00    +0.000 C 
ATOM      7  C   UNL     1       2.212   6.076  20.145  0.00  0.00    +0.000 C 
ATOM      8  C   UNL     1       3.258   6.686  19.194  0.00  0.00    +0.000 C 
ATOM      9  C   UNL     1       2.760   7.573  18.054  0.00  0.00    +0.000 C 
ATOM     10  C   UNL     1       4.047   5.480  18.629  0.00  0.00    +0.000 C 
BRANCH   2  12
ATOM     11  C   UNL     1       5.879   5.253  16.338  0.00  0.00    +0.000 C 
ATOM     12  C   UNL     1       4.717   4.265  16.362  0.00  0.00    +0.000 C 
BRANCH  12  13
ATOM     13  O   UNL     1       5.188   2.994  16.808  0.00  0.00    +0.000 OA
ATOM     14  H   UNL     1       5.111   2.360  16.072  0.00  0.00    +0.000 HD
ENDBRANCH  12  13
ENDBRANCH   2  12
BRANCH   6  15
ATOM     15  C   UNL     1       1.768   3.744  21.168  0.00  0.00    +0.000 C 
ATOM     16  O   UNL     1       2.220   3.346  22.224  0.00  0.00    +0.000 OA
BRANCH  15  17
ATOM     17  O   UNL     1       0.623   3.279  20.626  0.00  0.00    +0.000 OA
ATOM     18  H   UNL     1       0.723   2.386  20.244  0.00  0.00    +0.000 HD
ENDBRANCH  15  17
ENDBRANCH   6  15
ENDBRANCH   1   7
BRANCH   1  19
ATOM     19  C   UNL     1       1.367   8.769  21.052  0.00  0.00    +0.000 C 
ATOM     20  C   UNL     1       0.681   9.173  22.364  0.00  0.00    +0.000 C 
ATOM     21  N   UNL     1       0.434  10.618  22.339  0.00  0.00    +0.000 NA
ATOM     22  C   UNL     1       0.608  11.094  20.950  0.00  0.00    +0.000 C 
ATOM     23  C   UNL     1       0.989   9.874  20.085  0.00  0.00    +0.000 C 
ATOM     24  H   UNL     1       1.106  11.089  22.948  0.00  0.00    +0.000 HD
BRANCH  22  25
ATOM     25  C   UNL     1      -0.691  11.775  20.441  0.00  0.00    +0.000 C 
BRANCH  25  26
ATOM     26  O   UNL     1      -1.375  10.852  19.574  0.00  0.00    +0.000 OA
ATOM     27  H   UNL     1      -1.112   9.967  19.896  0.00  0.00    +0.000 HD
ENDBRANCH  25  26
BRANCH  25  28
ATOM     28  C   UNL     1      -1.690  12.201  21.535  0.00  0.00    +0.000 C 
BRANCH  28  29
ATOM     29  C   UNL     1      -1.646  13.674  21.966  0.00  0.00    +0.000 C 
BRANCH  29  30
ATOM     30  S   UNL     1      -3.327  14.307  22.311  0.00  0.00    +0.000 S 
BRANCH  30  31
ATOM     31  C   UNL     1      -4.232  12.813  22.865  0.00  0.00    +0.000 C 
ATOM     32  C   UNL     1      -5.740  12.848  22.647  0.00  0.00    +0.000 C 
ATOM     33  C   UNL     1      -6.324  12.873  24.046  0.00  0.00    +0.000 C 
ATOM     34  N   UNL     1      -5.382  12.100  24.859  0.00  0.00    +0.000 NA
ATOM     35  C   UNL     1      -4.045  12.444  24.340  0.00  0.00    +0.000 C 
ATOM     36  H   UNL     1      -5.549  11.106  24.698  0.00  0.00    +0.000 HD
ENDBRANCH  30  31
ENDBRANCH  29  30
ENDBRANCH  28  29
ENDBRANCH  25  28
ENDBRANCH  22  25
ENDBRANCH   1  19
TORSDOF 12
ENDMDL
MODEL 4
REMARK VINA RESULT:      -7.3      0.842      1.100
REMARK  Name = 
REMARK  14 active torsions:
REMARK  status: ('A' for Active; 'I' for Inactive)
REMARK    1  A    between atoms: C_1  and  C_2
REMARK    2  A    between atoms: C_2  and  O_3
REMARK    3  A    between atoms: C_2  and  C_4
REMARK    4  A    between atoms: C_8  and  C_9
REMARK    5  A    between atoms: C_9  and  O_11
REMARK    6  A    between atoms: C_12  and  S_13
REMARK    7  A    between atoms: S_13  and  C_14
REMARK    8  A    between atoms: C_17  and  C_18
REMARK    9  A    between atoms: C_18  and  O_19
REMARK   10  A    between atoms: C_18  and  C_20
REMARK   11  A    between atoms: C_20  and  C_21
REMARK   12  A    between atoms: C_21  and  S_22
REMARK   13  A    between atoms: S_22  and  C_23
REMARK   14  A    between atoms: C_29  and  C_30
REMARK                            x       y       z     vdW  Elec       q    Type
REMARK                         _______ _______ _______ _____ _____    ______ ____
ROOT
ATOM      1  S   UNL     1       2.112   7.177  20.301  0.00  0.00    +0.000 S 
ENDROOT
BRANCH   1   7
ATOM      2  C   UNL     1       1.375  11.848  18.982  0.00  0.00    +0.000 C 
ATOM      3  C   UNL     1       1.112  11.788  20.488  0.00  0.00    +0.000 C 
ATOM      4  O   UNL     1       1.617  12.370  21.428  0.00  0.00    +0.000 OA
ATOM      5  C   UNL     1       0.079  10.641  20.350  0.00  0.00    +0.000 C 
ATOM      6  C   UNL     1       0.594   9.405  20.997  0.00  0.00    +0.000 C 
ATOM      7  C   UNL     1       1.151   8.595  20.076  0.00  0.00    +0.000 C 
ATOM      8  C   UNL     1       0.972   9.153  18.653  0.00  0.00    +0.000 C 
ATOM      9  C   UNL     1       2.189   9.169  17.731  0.00  0.00    +0.000 C 
ATOM     10  C   UNL     1       0.427  10.589  18.844  0.00  0.00    +0.000 C 
BRANCH   2  12
ATOM     11  C   UNL     1      -0.571  13.184  18.092  0.00  0.00    +0.000 C 
ATOM     12  C   UNL     1       0.940  13.138  18.293  0.00  0.00    +0.000 C 
BRANCH  12  13
ATOM     13  O   UNL     1       1.340  14.236  19.112  0.00  0.00    +0.000 OA
ATOM     14  H   UNL     1       1.501  15.007  18.539  0.00  0.00    +0.000 HD
ENDBRANCH  12  13
ENDBRANCH   2  12
BRANCH   6  15
ATOM     15  C   UNL     1       0.472   9.331  22.459  0.00  0.00    +0.000 C 
ATOM     16  O   UNL     1       1.399   9.576  23.207  0.00  0.00    +0.000 OA
BRANCH  15  17
ATOM     17  O   UNL     1      -0.748   8.948  22.888  0.00  0.00    +0.000 OA
ATOM     18  H   UNL     1      -1.466   9.501  22.525  0.00  0.00    +0.000 HD
ENDBRANCH  15  17
ENDBRANCH   6  15
ENDBRANCH   1   7
BRANCH   1  19
ATOM     19  C   UNL     1       1.270   5.650  19.761  0.00  0.00    +0.000 C 
ATOM     20  C   UNL     1       1.381   4.616  20.890  0.00  0.00    +0.000 C 
ATOM     21  N   UNL     1       1.402   3.275  20.297  0.00  0.00    +0.000 NA
ATOM     22  C   UNL     1       1.661   3.413  18.848  0.00  0.00    +0.000 C 
ATOM     23  C   UNL     1       1.796   4.919  18.540  0.00  0.00    +0.000 C 
ATOM     24  H   UNL     1       0.496   2.824  20.441  0.00  0.00    +0.000 HD
BRANCH  22  25
ATOM     25  C   UNL     1       2.939   2.628  18.445  0.00  0.00    +0.000 C 
BRANCH  25  26
ATOM     26  O   UNL     1       2.553   1.552  17.572  0.00  0.00    +0.000 OA
ATOM     27  H   UNL     1       3.227   1.553  16.864  0.00  0.00    +0.000 HD
ENDBRANCH  25  26
BRANCH  25  28
ATOM     28  C   UNL     1       4.018   3.449  17.712  0.00  0.00    +0.000 C 
BRANCH  28  29
ATOM     29  C   UNL     1       5.301   3.754  18.499  0.00  0.00    +0.000 C 
BRANCH  29  30
ATOM     30  S   UNL     1       5.351   5.507  19.018  0.00  0.00    +0.000 S 
BRANCH  30  31
ATOM     31  C   UNL     1       6.042   6.360  17.550  0.00  0.00    +0.000 C 
ATOM     32  C   UNL     1       5.069   6.559  16.396  0.00  0.00    +0.000 C 
ATOM     33  C   UNL     1       5.616   5.686  15.284  0.00  0.00    +0.000 C 
ATOM     34  N   UNL     1       7.069   5.710  15.469  0.00  0.00    +0.000 NA
ATOM     35  C   UNL     1       7.276   5.697  16.929  0.00  0.00    +0.000 C 
ATOM     36  H   UNL     1       7.432   6.589  15.096  0.00  0.00    +0.000 HD
ENDBRANCH  30  31
ENDBRANCH  29  30
ENDBRANCH  28  29
ENDBRANCH  25  28
ENDBRANCH  22  25
ENDBRANCH   1  19
TORSDOF 12
ENDMDL
MODEL 5
REMARK VINA RESULT:      -7.2      4.023      9.295
REMARK  Name = 
REMARK  14 active torsions:
REMARK  status: ('A' for Active; 'I' for Inactive)
REMARK    1  A    between atoms: C_1  and  C_2
REMARK    2  A    between atoms: C_2  and  O_3
REMARK    3  A    between atoms: C_2  and  C_4
REMARK    4  A    between atoms: C_8  and  C_9
REMARK    5  A    between atoms: C_9  and  O_11
REMARK    6  A    between atoms: C_12  and  S_13
REMARK    7  A    between atoms: S_13  and  C_14
REMARK    8  A    between atoms: C_17  and  C_18
REMARK    9  A    between atoms: C_18  and  O_19
REMARK   10  A    between atoms: C_18  and  C_20
REMARK   11  A    between atoms: C_20  and  C_21
REMARK   12  A    between atoms: C_21  and  S_22
REMARK   13  A    between atoms: S_22  and  C_23
REMARK   14  A    between atoms: C_29  and  C_30
REMARK                            x       y       z     vdW  Elec       q    Type
REMARK                         _______ _______ _______ _____ _____    ______ ____
ROOT
ATOM      1  S   UNL     1       1.398   6.263  20.424  0.00  0.00    +0.000 S 
ENDROOT
BRANCH   1   7
ATOM      2  C   UNL     1       4.345   4.122  17.133  0.00  0.00    +0.000 C 
ATOM      3  C   UNL     1       3.737   2.985  17.959  0.00  0.00    +0.000 C 
ATOM      4  O   UNL     1       3.066   2.022  17.649  0.00  0.00    +0.000 OA
ATOM      5  C   UNL     1       4.192   3.604  19.305  0.00  0.00    +0.000 C 
ATOM      6  C   UNL     1       3.010   4.015  20.107  0.00  0.00    +0.000 C 
ATOM      7  C   UNL     1       2.770   5.331  19.942  0.00  0.00    +0.000 C 
ATOM      8  C   UNL     1       3.855   5.997  19.077  0.00  0.00    +0.000 C 
ATOM      9  C   UNL     1       3.404   6.925  17.951  0.00  0.00    +0.000 C 
ATOM     10  C   UNL     1       4.694   4.829  18.505  0.00  0.00    +0.000 C 
BRANCH   2  12
ATOM     11  C   UNL     1       5.503   4.520  14.927  0.00  0.00    +0.000 C 
ATOM     12  C   UNL     1       5.507   3.724  16.229  0.00  0.00    +0.000 C 
BRANCH  12  13
ATOM     13  O   UNL     1       6.724   3.976  16.931  0.00  0.00    +0.000 OA
ATOM     14  H   UNL     1       6.571   3.819  17.880  0.00  0.00    +0.000 HD
ENDBRANCH  12  13
ENDBRANCH   2  12
BRANCH   6  15
ATOM     15  C   UNL     1       2.312   2.950  20.839  0.00  0.00    +0.000 C 
ATOM     16  O   UNL     1       1.225   2.524  20.497  0.00  0.00    +0.000 OA
BRANCH  15  17
ATOM     17  O   UNL     1       2.974   2.508  21.928  0.00  0.00    +0.000 OA
ATOM     18  H   UNL     1       3.388   3.232  22.436  0.00  0.00    +0.000 HD
ENDBRANCH  15  17
ENDBRANCH   6  15
ENDBRANCH   1   7
BRANCH   1  19
ATOM     19  C   UNL     1       1.725   8.060  20.437  0.00  0.00    +0.000 C 
ATOM     20  C   UNL     1       1.215   8.631  21.767  0.00  0.00    +0.000 C 
ATOM     21  N   UNL     1       0.792  10.018  21.550  0.00  0.00    +0.000 NA
ATOM     22  C   UNL     1       0.680  10.247  20.094  0.00  0.00    +0.000 C 
ATOM     23  C   UNL     1       1.064   8.930  19.386  0.00  0.00    +0.000 C 
ATOM     24  H   UNL     1       1.490  10.652  21.943  0.00  0.00    +0.000 HD
BRANCH  22  25
ATOM     25  C   UNL     1      -0.758  10.700  19.722  0.00  0.00    +0.000 C 
BRANCH  25  26
ATOM     26  O   UNL     1      -0.911  12.078  20.109  0.00  0.00    +0.000 OA
ATOM     27  H   UNL     1      -0.021  12.467  19.998  0.00  0.00    +0.000 HD
ENDBRANCH  25  26
BRANCH  25  28
ATOM     28  C   UNL     1      -1.119  10.601  18.227  0.00  0.00    +0.000 C 
BRANCH  28  29
ATOM     29  C   UNL     1      -2.479   9.974  17.891  0.00  0.00    +0.000 C 
BRANCH  29  30
ATOM     30  S   UNL     1      -3.380  10.981  16.658  0.00  0.00    +0.000 S 
BRANCH  30  31
ATOM     31  C   UNL     1      -4.651  11.838  17.663  0.00  0.00    +0.000 C 
ATOM     32  C   UNL     1      -5.286  10.996  18.763  0.00  0.00    +0.000 C 
ATOM     33  C   UNL     1      -6.730  10.837  18.331  0.00  0.00    +0.000 C 
ATOM     34  N   UNL     1      -7.048  12.079  17.622  0.00  0.00    +0.000 NA
ATOM     35  C   UNL     1      -5.825  12.423  16.873  0.00  0.00    +0.000 C 
ATOM     36  H   UNL     1      -7.228  12.812  18.309  0.00  0.00    +0.000 HD
ENDBRANCH  30  31
ENDBRANCH  29  30
ENDBRANCH  28  29
ENDBRANCH  25  28
ENDBRANCH  22  25
ENDBRANCH   1  19
TORSDOF 12
ENDMDL
MODEL 6
REMARK VINA RESULT:      -7.2      0.850      1.131
REMARK  Name = 
REMARK  14 active torsions:
REMARK  status: ('A' for Active; 'I' for Inactive)
REMARK    1  A    between atoms: C_1  and  C_2
REMARK    2  A    between atoms: C_2  and  O_3
REMARK    3  A    between atoms: C_2  and  C_4
REMARK    4  A    between atoms: C_8  and  C_9
REMARK    5  A    between atoms: C_9  and  O_11
REMARK    6  A    between atoms: C_12  and  S_13
REMARK    7  A    between atoms: S_13  and  C_14
REMARK    8  A    between atoms: C_17  and  C_18
REMARK    9  A    between atoms: C_18  and  O_19
REMARK   10  A    between atoms: C_18  and  C_20
REMARK   11  A    between atoms: C_20  and  C_21
REMARK   12  A    between atoms: C_21  and  S_22
REMARK   13  A    between atoms: S_22  and  C_23
REMARK   14  A    between atoms: C_29  and  C_30
REMARK                            x       y       z     vdW  Elec       q    Type
REMARK                         _______ _______ _______ _____ _____    ______ ____
ROOT
ATOM      1  S   UNL     1       2.442   7.176  20.267  0.00  0.00    +0.000 S 
ENDROOT
BRANCH   1   7
ATOM      2  C   UNL     1       1.277  11.761  18.955  0.00  0.00    +0.000 C 
ATOM      3  C   UNL     1       1.155  11.715  20.480  0.00  0.00    +0.000 C 
ATOM      4  O   UNL     1       1.702  12.346  21.361  0.00  0.00    +0.000 OA
ATOM      5  C   UNL     1       0.193  10.499  20.452  0.00  0.00    +0.000 C 
ATOM      6  C   UNL     1       0.846   9.313  21.066  0.00  0.00    +0.000 C 
ATOM      7  C   UNL     1       1.371   8.523  20.110  0.00  0.00    +0.000 C 
ATOM      8  C   UNL     1       1.028   9.039  18.701  0.00  0.00    +0.000 C 
ATOM      9  C   UNL     1       2.154   9.117  17.672  0.00  0.00    +0.000 C 
ATOM     10  C   UNL     1       0.407  10.440  18.921  0.00  0.00    +0.000 C 
BRANCH   2  12
ATOM     11  C   UNL     1      -0.815  13.085  18.474  0.00  0.00    +0.000 C 
ATOM     12  C   UNL     1       0.697  13.006  18.290  0.00  0.00    +0.000 C 
BRANCH  12  13
ATOM     13  O   UNL     1       1.305  14.152  18.885  0.00  0.00    +0.000 OA
ATOM     14  H   UNL     1       1.843  14.602  18.210  0.00  0.00    +0.000 HD
ENDBRANCH  12  13
ENDBRANCH   2  12
BRANCH   6  15
ATOM     15  C   UNL     1       0.860   9.260  22.534  0.00  0.00    +0.000 C 
ATOM     16  O   UNL     1      -0.157   9.187  23.198  0.00  0.00    +0.000 OA
BRANCH  15  17
ATOM     17  O   UNL     1       2.096   9.325  23.073  0.00  0.00    +0.000 OA
ATOM     18  H   UNL     1       2.433  10.239  23.134  0.00  0.00    +0.000 HD
ENDBRANCH  15  17
ENDBRANCH   6  15
ENDBRANCH   1   7
BRANCH   1  19
ATOM     19  C   UNL     1       1.593   5.567  20.110  0.00  0.00    +0.000 C 
ATOM     20  C   UNL     1       2.217   4.596  21.122  0.00  0.00    +0.000 C 
ATOM     21  N   UNL     1       2.126   3.235  20.583  0.00  0.00    +0.000 NA
ATOM     22  C   UNL     1       1.799   3.327  19.144  0.00  0.00    +0.000 C 
ATOM     23  C   UNL     1       1.675   4.824  18.791  0.00  0.00    +0.000 C 
ATOM     24  H   UNL     1       1.387   2.724  21.070  0.00  0.00    +0.000 HD
BRANCH  22  25
ATOM     25  C   UNL     1       2.889   2.625  18.291  0.00  0.00    +0.000 C 
BRANCH  25  26
ATOM     26  O   UNL     1       2.366   2.423  16.966  0.00  0.00    +0.000 OA
ATOM     27  H   UNL     1       2.361   3.314  16.563  0.00  0.00    +0.000 HD
ENDBRANCH  25  26
BRANCH  25  28
ATOM     28  C   UNL     1       4.217   3.395  18.147  0.00  0.00    +0.000 C 
BRANCH  28  29
ATOM     29  C   UNL     1       4.592   3.854  16.731  0.00  0.00    +0.000 C 
BRANCH  29  30
ATOM     30  S   UNL     1       6.352   4.346  16.645  0.00  0.00    +0.000 S 
BRANCH  30  31
ATOM     31  C   UNL     1       6.477   5.677  17.898  0.00  0.00    +0.000 C 
ATOM     32  C   UNL     1       6.354   7.095  17.355  0.00  0.00    +0.000 C 
ATOM     33  C   UNL     1       7.724   7.706  17.579  0.00  0.00    +0.000 C 
ATOM     34  N   UNL     1       8.221   7.073  18.803  0.00  0.00    +0.000 NA
ATOM     35  C   UNL     1       7.763   5.673  18.731  0.00  0.00    +0.000 C 
ATOM     36  H   UNL     1       7.778   7.521  19.607  0.00  0.00    +0.000 HD
ENDBRANCH  30  31
ENDBRANCH  29  30
ENDBRANCH  28  29
ENDBRANCH  25  28
ENDBRANCH  22  25
ENDBRANCH   1  19
TORSDOF 12
ENDMDL
MODEL 7
REMARK VINA RESULT:      -7.1      3.291      8.522
REMARK  Name = 
REMARK  14 active torsions:
REMARK  status: ('A' for Active; 'I' for Inactive)
REMARK    1  A    between atoms: C_1  and  C_2
REMARK    2  A    between atoms: C_2  and  O_3
REMARK    3  A    between atoms: C_2  and  C_4
REMARK    4  A    between atoms: C_8  and  C_9
REMARK    5  A    between atoms: C_9  and  O_11
REMARK    6  A    between atoms: C_12  and  S_13
REMARK    7  A    between atoms: S_13  and  C_14
REMARK    8  A    between atoms: C_17  and  C_18
REMARK    9  A    between atoms: C_18  and  O_19
REMARK   10  A    between atoms: C_18  and  C_20
REMARK   11  A    between atoms: C_20  and  C_21
REMARK   12  A    between atoms: C_21  and  S_22
REMARK   13  A    between atoms: S_22  and  C_23
REMARK   14  A    between atoms: C_29  and  C_30
REMARK                            x       y       z     vdW  Elec       q    Type
REMARK                         _______ _______ _______ _____ _____    ______ ____
ROOT
ATOM      1  S   UNL     1       0.858   6.805  20.753  0.00  0.00    +0.000 S 
ENDROOT
BRANCH   1   7
ATOM      2  C   UNL     1       3.616   4.594  17.346  0.00  0.00    +0.000 C 
ATOM      3  C   UNL     1       3.100   3.480  18.260  0.00  0.00    +0.000 C 
ATOM      4  O   UNL     1       2.434   2.488  18.041  0.00  0.00    +0.000 OA
ATOM      5  C   UNL     1       3.635   4.167  19.543  0.00  0.00    +0.000 C 
ATOM      6  C   UNL     1       2.503   4.585  20.412  0.00  0.00    +0.000 C 
ATOM      7  C   UNL     1       2.216   5.885  20.211  0.00  0.00    +0.000 C 
ATOM      8  C   UNL     1       3.217   6.539  19.242  0.00  0.00    +0.000 C 
ATOM      9  C   UNL     1       2.661   7.406  18.114  0.00  0.00    +0.000 C 
ATOM     10  C   UNL     1       4.044   5.368  18.658  0.00  0.00    +0.000 C 
BRANCH   2  12
ATOM     11  C   UNL     1       5.323   5.395  15.671  0.00  0.00    +0.000 C 
ATOM     12  C   UNL     1       4.720   4.185  16.376  0.00  0.00    +0.000 C 
BRANCH  12  13
ATOM     13  O   UNL     1       5.738   3.515  17.118  0.00  0.00    +0.000 OA
ATOM     14  H   UNL     1       5.733   3.859  18.030  0.00  0.00    +0.000 HD
ENDBRANCH  12  13
ENDBRANCH   2  12
BRANCH   6  15
ATOM     15  C   UNL     1       1.889   3.535  21.237  0.00  0.00    +0.000 C 
ATOM     16  O   UNL     1       2.413   3.104  22.246  0.00  0.00    +0.000 OA
BRANCH  15  17
ATOM     17  O   UNL     1       0.710   3.083  20.760  0.00  0.00    +0.000 OA
ATOM     18  H   UNL     1       0.039   3.788  20.686  0.00  0.00    +0.000 HD
ENDBRANCH  15  17
ENDBRANCH   6  15
ENDBRANCH   1   7
BRANCH   1  19
ATOM     19  C   UNL     1       1.252   8.568  21.023  0.00  0.00    +0.000 C 
ATOM     20  C   UNL     1       1.182   8.849  22.531  0.00  0.00    +0.000 C 
ATOM     21  N   UNL     1       0.774  10.243  22.729  0.00  0.00    +0.000 NA
ATOM     22  C   UNL     1       0.247  10.759  21.448  0.00  0.00    +0.000 C 
ATOM     23  C   UNL     1       0.347   9.620  20.412  0.00  0.00    +0.000 C 
ATOM     24  H   UNL     1       1.584  10.798  23.013  0.00  0.00    +0.000 HD
BRANCH  22  25
ATOM     25  C   UNL     1      -1.216  11.252  21.619  0.00  0.00    +0.000 C 
BRANCH  25  26
ATOM     26  O   UNL     1      -1.501  11.339  23.027  0.00  0.00    +0.000 OA
ATOM     27  H   UNL     1      -2.049  10.552  23.218  0.00  0.00    +0.000 HD
ENDBRANCH  25  26
BRANCH  25  28
ATOM     28  C   UNL     1      -1.528  12.629  21.002  0.00  0.00    +0.000 C 
BRANCH  28  29
ATOM     29  C   UNL     1      -2.268  12.626  19.656  0.00  0.00    +0.000 C 
BRANCH  29  30
ATOM     30  S   UNL     1      -1.095  12.463  18.263  0.00  0.00    +0.000 S 
BRANCH  30  31
ATOM     31  C   UNL     1      -1.708  10.985  17.368  0.00  0.00    +0.000 C 
ATOM     32  C   UNL     1      -2.592  11.276  16.161  0.00  0.00    +0.000 C 
ATOM     33  C   UNL     1      -3.957  10.747  16.556  0.00  0.00    +0.000 C 
ATOM     34  N   UNL     1      -3.678   9.598  17.421  0.00  0.00    +0.000 NA
ATOM     35  C   UNL     1      -2.501   9.987  18.218  0.00  0.00    +0.000 C 
ATOM     36  H   UNL     1      -3.426   8.801  16.834  0.00  0.00    +0.000 HD
ENDBRANCH  30  31
ENDBRANCH  29  30
ENDBRANCH  28  29
ENDBRANCH  25  28
ENDBRANCH  22  25
ENDBRANCH   1  19
TORSDOF 12
ENDMDL
MODEL 8
REMARK VINA RESULT:      -7.1      3.885      8.711
REMARK  Name = 
REMARK  14 active torsions:
REMARK  status: ('A' for Active; 'I' for Inactive)
REMARK    1  A    between atoms: C_1  and  C_2
REMARK    2  A    between atoms: C_2  and  O_3
REMARK    3  A    between atoms: C_2  and  C_4
REMARK    4  A    between atoms: C_8  and  C_9
REMARK    5  A    between atoms: C_9  and  O_11
REMARK    6  A    between atoms: C_12  and  S_13
REMARK    7  A    between atoms: S_13  and  C_14
REMARK    8  A    between atoms: C_17  and  C_18
REMARK    9  A    between atoms: C_18  and  O_19
REMARK   10  A    between atoms: C_18  and  C_20
REMARK   11  A    between atoms: C_20  and  C_21
REMARK   12  A    between atoms: C_21  and  S_22
REMARK   13  A    between atoms: S_22  and  C_23
REMARK   14  A    between atoms: C_29  and  C_30
REMARK                            x       y       z     vdW  Elec       q    Type
REMARK                         _______ _______ _______ _____ _____    ______ ____
ROOT
ATOM      1  S   UNL     1       2.906   8.317  18.330  0.00  0.00    +0.000 S 
ENDROOT
BRANCH   1   7
ATOM      2  C   UNL     1       4.026   3.650  19.364  0.00  0.00    +0.000 C 
ATOM      3  C   UNL     1       5.153   4.166  18.467  0.00  0.00    +0.000 C 
ATOM      4  O   UNL     1       6.353   4.255  18.635  0.00  0.00    +0.000 OA
ATOM      5  C   UNL     1       4.175   4.632  17.359  0.00  0.00    +0.000 C 
ATOM      6  C   UNL     1       4.207   6.113  17.234  0.00  0.00    +0.000 C 
ATOM      7  C   UNL     1       3.190   6.662  17.926  0.00  0.00    +0.000 C 
ATOM      8  C   UNL     1       2.268   5.582  18.521  0.00  0.00    +0.000 C 
ATOM      9  C   UNL     1       1.851   5.722  19.983  0.00  0.00    +0.000 C 
ATOM     10  C   UNL     1       3.014   4.243  18.303  0.00  0.00    +0.000 C 
BRANCH   2  12
ATOM     11  C   UNL     1       3.577   1.392  18.333  0.00  0.00    +0.000 C 
ATOM     12  C   UNL     1       4.009   2.142  19.590  0.00  0.00    +0.000 C 
BRANCH  12  13
ATOM     13  O   UNL     1       5.326   1.732  19.954  0.00  0.00    +0.000 OA
ATOM     14  H   UNL     1       5.378   0.761  19.887  0.00  0.00    +0.000 HD
ENDBRANCH  12  13
ENDBRANCH   2  12
BRANCH   6  15
ATOM     15  C   UNL     1       5.329   6.683  16.475  0.00  0.00    +0.000 C 
ATOM     16  O   UNL     1       6.270   7.235  17.012  0.00  0.00    +0.000 OA
BRANCH  15  17
ATOM     17  O   UNL     1       5.207   6.556  15.137  0.00  0.00    +0.000 OA
ATOM     18  H   UNL     1       4.277   6.576  14.841  0.00  0.00    +0.000 HD
ENDBRANCH  15  17
ENDBRANCH   6  15
ENDBRANCH   1   7
BRANCH   1  19
ATOM     19  C   UNL     1       1.168   8.653  18.782  0.00  0.00    +0.000 C 
ATOM     20  C   UNL     1       0.647   9.778  17.878  0.00  0.00    +0.000 C 
ATOM     21  N   UNL     1      -0.368  10.538  18.614  0.00  0.00    +0.000 NA
ATOM     22  C   UNL     1      -0.271  10.178  20.044  0.00  0.00    +0.000 C 
ATOM     23  C   UNL     1       0.859   9.136  20.186  0.00  0.00    +0.000 C 
ATOM     24  H   UNL     1      -1.297  10.296  18.263  0.00  0.00    +0.000 HD
BRANCH  22  25
ATOM     25  C   UNL     1       0.002  11.440  20.907  0.00  0.00    +0.000 C 
BRANCH  25  26
ATOM     26  O   UNL     1       1.089  11.148  21.804  0.00  0.00    +0.000 OA
ATOM     27  H   UNL     1       1.122  11.914  22.411  0.00  0.00    +0.000 HD
ENDBRANCH  25  26
BRANCH  25  28
ATOM     28  C   UNL     1       0.386  12.710  20.122  0.00  0.00    +0.000 C 
BRANCH  28  29
ATOM     29  C   UNL     1       1.886  13.012  19.997  0.00  0.00    +0.000 C 
BRANCH  29  30
ATOM     30  S   UNL     1       2.328  13.441  18.275  0.00  0.00    +0.000 S 
BRANCH  30  31
ATOM     31  C   UNL     1       3.753  14.576  18.478  0.00  0.00    +0.000 C 
ATOM     32  C   UNL     1       3.856  15.254  19.839  0.00  0.00    +0.000 C 
ATOM     33  C   UNL     1       3.615  16.722  19.549  0.00  0.00    +0.000 C 
ATOM     34  N   UNL     1       4.166  16.935  18.209  0.00  0.00    +0.000 NA
ATOM     35  C   UNL     1       3.836  15.712  17.454  0.00  0.00    +0.000 C 
ATOM     36  H   UNL     1       5.182  17.011  18.280  0.00  0.00    +0.000 HD
ENDBRANCH  30  31
ENDBRANCH  29  30
ENDBRANCH  28  29
ENDBRANCH  25  28
ENDBRANCH  22  25
ENDBRANCH   1  19
TORSDOF 12
ENDMDL
MODEL 9
REMARK VINA RESULT:      -7.0      1.085      1.186
REMARK  Name = 
REMARK  14 active torsions:
REMARK  status: ('A' for Active; 'I' for Inactive)
REMARK    1  A    between atoms: C_1  and  C_2
REMARK    2  A    between atoms: C_2  and  O_3
REMARK    3  A    between atoms: C_2  and  C_4
REMARK    4  A    between atoms: C_8  and  C_9
REMARK    5  A    between atoms: C_9  and  O_11
REMARK    6  A    between atoms: C_12  and  S_13
REMARK    7  A    between atoms: S_13  and  C_14
REMARK    8  A    between atoms: C_17  and  C_18
REMARK    9  A    between atoms: C_18  and  O_19
REMARK   10  A    between atoms: C_18  and  C_20
REMARK   11  A    between atoms: C_20  and  C_21
REMARK   12  A    between atoms: C_21  and  S_22
REMARK   13  A    between atoms: S_22  and  C_23
REMARK   14  A    between atoms: C_29  and  C_30
REMARK                            x       y       z     vdW  Elec       q    Type
REMARK                         _______ _______ _______ _____ _____    ______ ____
ROOT
ATOM      1  S   UNL     1       2.177   7.286  20.055  0.00  0.00    +0.000 S 
ENDROOT
BRANCH   1   7
ATOM      2  C   UNL     1       0.802  11.918  19.186  0.00  0.00    +0.000 C 
ATOM      3  C   UNL     1       0.596  11.691  20.685  0.00  0.00    +0.000 C 
ATOM      4  O   UNL     1       1.051  12.248  21.664  0.00  0.00    +0.000 OA
ATOM      5  C   UNL     1      -0.284  10.434  20.462  0.00  0.00    +0.000 C 
ATOM      6  C   UNL     1       0.406   9.224  20.982  0.00  0.00    +0.000 C 
ATOM      7  C   UNL     1       1.034   8.579  19.980  0.00  0.00    +0.000 C 
ATOM      8  C   UNL     1       0.740   9.233  18.618  0.00  0.00    +0.000 C 
ATOM      9  C   UNL     1       1.915   9.490  17.678  0.00  0.00    +0.000 C 
ATOM     10  C   UNL     1       0.020  10.562  18.951  0.00  0.00    +0.000 C 
BRANCH   2  12
ATOM     11  C   UNL     1       1.245  14.246  18.322  0.00  0.00    +0.000 C 
ATOM     12  C   UNL     1       0.182  13.195  18.627  0.00  0.00    +0.000 C 
BRANCH  12  13
ATOM     13  O   UNL     1      -0.513  12.864  17.426  0.00  0.00    +0.000 OA
ATOM     14  H   UNL     1      -1.410  12.566  17.660  0.00  0.00    +0.000 HD
ENDBRANCH  12  13
ENDBRANCH   2  12
BRANCH   6  15
ATOM     15  C   UNL     1       0.341   9.006  22.434  0.00  0.00    +0.000 C 
ATOM     16  O   UNL     1       1.258   9.287  23.181  0.00  0.00    +0.000 OA
BRANCH  15  17
ATOM     17  O   UNL     1      -0.814   8.447  22.852  0.00  0.00    +0.000 OA
ATOM     18  H   UNL     1      -0.732   8.025  23.728  0.00  0.00    +0.000 HD
ENDBRANCH  15  17
ENDBRANCH   6  15
ENDBRANCH   1   7
BRANCH   1  19
ATOM     19  C   UNL     1       1.465   5.740  20.717  0.00  0.00    +0.000 C 
ATOM     20  C   UNL     1       2.605   4.902  21.310  0.00  0.00    +0.000 C 
ATOM     21  N   UNL     1       2.261   3.483  21.177  0.00  0.00    +0.000 NA
ATOM     22  C   UNL     1       1.136   3.365  20.226  0.00  0.00    +0.000 C 
ATOM     23  C   UNL     1       0.769   4.790  19.761  0.00  0.00    +0.000 C 
ATOM     24  H   UNL     1       1.980   3.113  22.087  0.00  0.00    +0.000 HD
BRANCH  22  25
ATOM     25  C   UNL     1       1.526   2.454  19.030  0.00  0.00    +0.000 C 
BRANCH  25  26
ATOM     26  O   UNL     1       0.320   1.909  18.466  0.00  0.00    +0.000 OA
ATOM     27  H   UNL     1       0.537   0.976  18.270  0.00  0.00    +0.000 HD
ENDBRANCH  25  26
BRANCH  25  28
ATOM     28  C   UNL     1       2.292   3.151  17.888  0.00  0.00    +0.000 C 
BRANCH  28  29
ATOM     29  C   UNL     1       3.819   3.219  18.029  0.00  0.00    +0.000 C 
BRANCH  29  30
ATOM     30  S   UNL     1       4.589   3.885  16.509  0.00  0.00    +0.000 S 
BRANCH  30  31
ATOM     31  C   UNL     1       6.118   4.684  17.129  0.00  0.00    +0.000 C 
ATOM     32  C   UNL     1       5.900   5.865  18.066  0.00  0.00    +0.000 C 
ATOM     33  C   UNL     1       6.417   7.062  17.291  0.00  0.00    +0.000 C 
ATOM     34  N   UNL     1       7.515   6.536  16.477  0.00  0.00    +0.000 NA
ATOM     35  C   UNL     1       7.074   5.196  16.047  0.00  0.00    +0.000 C 
ATOM     36  H   UNL     1       8.341   6.434  17.068  0.00  0.00    +0.000 HD
ENDBRANCH  30  31
ENDBRANCH  29  30
ENDBRANCH  28  29
ENDBRANCH  25  28
ENDBRANCH  22  25
ENDBRANCH   1  19
TORSDOF 12
ENDMDL
