MODEL 1
REMARK VINA RESULT:      -6.5      0.000      0.000
REMARK  Name = 
REMARK  13 active torsions:
REMARK  status: ('A' for Active; 'I' for Inactive)
REMARK    1  A    between atoms: C_1  and  C_2
REMARK    2  A    between atoms: C_2  and  O_4
REMARK    3  A    between atoms: O_4  and  C_5
REMARK    4  A    between atoms: C_5  and  C_6
REMARK    5  A    between atoms: C_6  and  N_7
REMARK    6  A    between atoms: C_6  and  C_16
REMARK    7  A    between atoms: C_8  and  C_10
REMARK    8  A    between atoms: C_10  and  N_11
REMARK    9  A    between atoms: C_10  and  C_12
REMARK   10  A    between atoms: C_12  and  C_13
REMARK   11  A    between atoms: C_13  and  O_15
REMARK   12  A    between atoms: C_16  and  C_17
REMARK   13  A    between atoms: C_16  and  C_18
REMARK                            x       y       z     vdW  Elec       q    Type
REMARK                         _______ _______ _______ _____ _____    ______ ____
ROOT
ATOM      1  N   UNL     1       3.546   3.796  18.464  0.00  0.00    +0.000 N 
ATOM      2  C   UNL     1       3.444   2.657  19.241  0.00  0.00    +0.000 C 
ATOM      3  O   UNL     1       4.401   2.071  19.730  0.00  0.00    +0.000 OA
ATOM      4  H   UNL     1       2.679   4.277  18.248  0.00  0.00    +0.000 HD
ENDROOT
BRANCH   1   5
ATOM      5  C   UNL     1       4.825   4.350  18.027  0.00  0.00    +0.000 C 
BRANCH   5   6
ATOM      6  C   UNL     1       4.777   4.751  16.527  0.00  0.00    +0.000 C 
ATOM      7  C   UNL     1       4.935   6.266  16.342  0.00  0.00    +0.000 C 
ATOM      8  C   UNL     1       5.810   4.016  15.668  0.00  0.00    +0.000 C 
ENDBRANCH   5   6
BRANCH   5   9
ATOM      9  C   UNL     1       5.270   5.498  18.956  0.00  0.00    +0.000 C 
BRANCH   9  10
ATOM     10  O   UNL     1       6.538   5.215  19.570  0.00  0.00    +0.000 OA
BRANCH  10  12
ATOM     11  C   UNL     1       7.926   6.768  18.493  0.00  0.00    +0.000 C 
ATOM     12  C   UNL     1       7.620   5.325  18.752  0.00  0.00    +0.000 C 
ATOM     13  O   UNL     1       8.243   4.392  18.268  0.00  0.00    +0.000 OA
ENDBRANCH  10  12
ENDBRANCH   9  10
ENDBRANCH   5   9
ENDBRANCH   1   5
BRANCH   2  14
ATOM     14  C   UNL     1       1.988   2.197  19.441  0.00  0.00    +0.000 C 
BRANCH  14  15
ATOM     15  N   UNL     1       1.415   1.891  18.105  0.00  0.00    +0.000 NA
ATOM     16  H   UNL     1       0.525   2.384  18.005  0.00  0.00    +0.000 HD
ATOM     17  H   UNL     1       1.187   0.897  18.055  0.00  0.00    +0.000 HD
ENDBRANCH  14  15
BRANCH  14  18
ATOM     18  C   UNL     1       1.186   3.274  20.167  0.00  0.00    +0.000 C 
BRANCH  18  19
ATOM     19  C   UNL     1       1.953   3.785  21.363  0.00  0.00    +0.000 C 
ATOM     20  O   UNL     1       2.144   3.120  22.372  0.00  0.00    +0.000 OA
BRANCH  19  21
ATOM     21  O   UNL     1       2.384   5.057  21.241  0.00  0.00    +0.000 OA
ATOM     22  H   UNL     1       3.049   5.180  20.535  0.00  0.00    +0.000 HD
ENDBRANCH  19  21
ENDBRANCH  18  19
ENDBRANCH  14  18
ENDBRANCH   2  14
TORSDOF 10
ENDMDL
MODEL 2
REMARK VINA RESULT:      -6.5      2.343      3.853
REMARK  Name = 
REMARK  13 active torsions:
REMARK  status: ('A' for Active; 'I' for Inactive)
REMARK    1  A    between atoms: C_1  and  C_2
REMARK    2  A    between atoms: C_2  and  O_4
REMARK    3  A    between atoms: O_4  and  C_5
REMARK    4  A    between atoms: C_5  and  C_6
REMARK    5  A    between atoms: C_6  and  N_7
REMARK    6  A    between atoms: C_6  and  C_16
REMARK    7  A    between atoms: C_8  and  C_10
REMARK    8  A    between atoms: C_10  and  N_11
REMARK    9  A    between atoms: C_10  and  C_12
REMARK   10  A    between atoms: C_12  and  C_13
REMARK   11  A    between atoms: C_13  and  O_15
REMARK   12  A    between atoms: C_16  and  C_17
REMARK   13  A    between atoms: C_16  and  C_18
REMARK                            x       y       z     vdW  Elec       q    Type
REMARK                         _______ _______ _______ _____ _____    ______ ____
ROOT
ATOM      1  N   UNL     1       5.286   5.113  18.190  0.00  0.00    +0.000 N 
ATOM      2  C   UNL     1       4.160   5.162  18.991  0.00  0.00    +0.000 C 
ATOM      3  O   UNL     1       3.429   6.139  19.090  0.00  0.00    +0.000 OA
ATOM      4  H   UNL     1       5.719   4.202  18.072  0.00  0.00    +0.000 HD
ENDROOT
BRANCH   1   5
ATOM      5  C   UNL     1       5.806   6.275  17.475  0.00  0.00    +0.000 C 
BRANCH   5   6
ATOM      6  C   UNL     1       7.326   6.460  17.738  0.00  0.00    +0.000 C 
ATOM      7  C   UNL     1       7.745   7.930  17.613  0.00  0.00    +0.000 C 
ATOM      8  C   UNL     1       7.780   5.907  19.091  0.00  0.00    +0.000 C 
ENDBRANCH   5   6
BRANCH   5   9
ATOM      9  C   UNL     1       5.446   6.201  15.978  0.00  0.00    +0.000 C 
BRANCH   9  10
ATOM     10  O   UNL     1       5.662   4.882  15.450  0.00  0.00    +0.000 OA
BRANCH  10  12
ATOM     11  C   UNL     1       6.166   3.804  13.429  0.00  0.00    +0.000 C 
ATOM     12  C   UNL     1       6.600   4.793  14.466  0.00  0.00    +0.000 C 
ATOM     13  O   UNL     1       7.658   5.403  14.436  0.00  0.00    +0.000 OA
ENDBRANCH  10  12
ENDBRANCH   9  10
ENDBRANCH   5   9
ENDBRANCH   1   5
BRANCH   2  14
ATOM     14  C   UNL     1       3.907   3.845  19.750  0.00  0.00    +0.000 C 
BRANCH  14  15
ATOM     15  N   UNL     1       4.989   2.893  19.391  0.00  0.00    +0.000 NA
ATOM     16  H   UNL     1       5.444   2.571  20.247  0.00  0.00    +0.000 HD
ATOM     17  H   UNL     1       5.711   3.386  18.864  0.00  0.00    +0.000 HD
ENDBRANCH  14  15
BRANCH  14  18
ATOM     18  C   UNL     1       2.528   3.291  19.404  0.00  0.00    +0.000 C 
BRANCH  18  19
ATOM     19  C   UNL     1       2.545   2.650  18.037  0.00  0.00    +0.000 C 
ATOM     20  O   UNL     1       2.138   3.207  17.028  0.00  0.00    +0.000 OA
BRANCH  19  21
ATOM     21  O   UNL     1       3.019   1.386  18.025  0.00  0.00    +0.000 OA
ATOM     22  H   UNL     1       3.002   0.953  18.902  0.00  0.00    +0.000 HD
ENDBRANCH  19  21
ENDBRANCH  18  19
ENDBRANCH  14  18
ENDBRANCH   2  14
TORSDOF 10
ENDMDL
MODEL 3
REMARK VINA RESULT:      -6.4      2.405      5.682
REMARK  Name = 
REMARK  13 active torsions:
REMARK  status: ('A' for Active; 'I' for Inactive)
REMARK    1  A    between atoms: C_1  and  C_2
REMARK    2  A    between atoms: C_2  and  O_4
REMARK    3  A    between atoms: O_4  and  C_5
REMARK    4  A    between atoms: C_5  and  C_6
REMARK    5  A    between atoms: C_6  and  N_7
REMARK    6  A    between atoms: C_6  and  C_16
REMARK    7  A    between atoms: C_8  and  C_10
REMARK    8  A    between atoms: C_10  and  N_11
REMARK    9  A    between atoms: C_10  and  C_12
REMARK   10  A    between atoms: C_12  and  C_13
REMARK   11  A    between atoms: C_13  and  O_15
REMARK   12  A    between atoms: C_16  and  C_17
REMARK   13  A    between atoms: C_16  and  C_18
REMARK                            x       y       z     vdW  Elec       q    Type
REMARK                         _______ _______ _______ _____ _____    ______ ____
ROOT
ATOM      1  N   UNL     1       4.952   5.314  18.652  0.00  0.00    +0.000 N 
ATOM      2  C   UNL     1       6.316   5.471  18.812  0.00  0.00    +0.000 C 
ATOM      3  O   UNL     1       6.901   5.347  19.880  0.00  0.00    +0.000 OA
ATOM      4  H   UNL     1       4.607   5.288  17.697  0.00  0.00    +0.000 HD
ENDROOT
BRANCH   1   5
ATOM      5  C   UNL     1       4.036   5.116  19.772  0.00  0.00    +0.000 C 
BRANCH   5   6
ATOM      6  C   UNL     1       2.853   6.122  19.711  0.00  0.00    +0.000 C 
ATOM      7  C   UNL     1       2.497   6.488  18.265  0.00  0.00    +0.000 C 
ATOM      8  C   UNL     1       1.601   5.632  20.444  0.00  0.00    +0.000 C 
ENDBRANCH   5   6
BRANCH   5   9
ATOM      9  C   UNL     1       3.587   3.644  19.857  0.00  0.00    +0.000 C 
BRANCH   9  10
ATOM     10  O   UNL     1       3.668   2.996  18.577  0.00  0.00    +0.000 OA
BRANCH  10  12
ATOM     11  C   UNL     1       1.456   2.256  18.819  0.00  0.00    +0.000 C 
ATOM     12  C   UNL     1       2.486   2.860  17.915  0.00  0.00    +0.000 C 
ATOM     13  O   UNL     1       2.288   3.157  16.746  0.00  0.00    +0.000 OA
ENDBRANCH  10  12
ENDBRANCH   9  10
ENDBRANCH   5   9
ENDBRANCH   1   5
BRANCH   2  14
ATOM     14  C   UNL     1       7.039   5.813  17.495  0.00  0.00    +0.000 C 
BRANCH  14  15
ATOM     15  N   UNL     1       6.096   6.575  16.639  0.00  0.00    +0.000 NA
ATOM     16  H   UNL     1       6.119   7.559  16.914  0.00  0.00    +0.000 HD
ATOM     17  H   UNL     1       5.142   6.261  16.823  0.00  0.00    +0.000 HD
ENDBRANCH  14  15
BRANCH  14  18
ATOM     18  C   UNL     1       7.522   4.538  16.809  0.00  0.00    +0.000 C 
BRANCH  18  19
ATOM     19  C   UNL     1       6.542   4.109  15.744  0.00  0.00    +0.000 C 
ATOM     20  O   UNL     1       6.696   4.345  14.554  0.00  0.00    +0.000 OA
BRANCH  19  21
ATOM     21  O   UNL     1       5.454   3.468  16.219  0.00  0.00    +0.000 OA
ATOM     22  H   UNL     1       5.340   3.553  17.187  0.00  0.00    +0.000 HD
ENDBRANCH  19  21
ENDBRANCH  18  19
ENDBRANCH  14  18
ENDBRANCH   2  14
TORSDOF 10
ENDMDL
MODEL 4
REMARK VINA RESULT:      -6.4      2.361      5.867
REMARK  Name = 
REMARK  13 active torsions:
REMARK  status: ('A' for Active; 'I' for Inactive)
REMARK    1  A    between atoms: C_1  and  C_2
REMARK    2  A    between atoms: C_2  and  O_4
REMARK    3  A    between atoms: O_4  and  C_5
REMARK    4  A    between atoms: C_5  and  C_6
REMARK    5  A    between atoms: C_6  and  N_7
REMARK    6  A    between atoms: C_6  and  C_16
REMARK    7  A    between atoms: C_8  and  C_10
REMARK    8  A    between atoms: C_10  and  N_11
REMARK    9  A    between atoms: C_10  and  C_12
REMARK   10  A    between atoms: C_12  and  C_13
REMARK   11  A    between atoms: C_13  and  O_15
REMARK   12  A    between atoms: C_16  and  C_17
REMARK   13  A    between atoms: C_16  and  C_18
REMARK                            x       y       z     vdW  Elec       q    Type
REMARK                         _______ _______ _______ _____ _____    ______ ____
ROOT
ATOM      1  N   UNL     1       5.082   5.085  18.218  0.00  0.00    +0.000 N 
ATOM      2  C   UNL     1       6.354   5.359  18.686  0.00  0.00    +0.000 C 
ATOM      3  O   UNL     1       6.672   5.331  19.868  0.00  0.00    +0.000 OA
ATOM      4  H   UNL     1       4.980   4.987  17.213  0.00  0.00    +0.000 HD
ENDROOT
BRANCH   1   5
ATOM      5  C   UNL     1       3.939   4.865  19.100  0.00  0.00    +0.000 C 
BRANCH   5   6
ATOM      6  C   UNL     1       2.732   5.750  18.683  0.00  0.00    +0.000 C 
ATOM      7  C   UNL     1       3.191   7.035  17.981  0.00  0.00    +0.000 C 
ATOM      8  C   UNL     1       1.716   5.016  17.803  0.00  0.00    +0.000 C 
ENDBRANCH   5   6
BRANCH   5   9
ATOM      9  C   UNL     1       3.599   3.364  19.189  0.00  0.00    +0.000 C 
BRANCH   9  10
ATOM     10  O   UNL     1       3.657   2.892  20.545  0.00  0.00    +0.000 OA
BRANCH  10  12
ATOM     11  C   UNL     1       1.359   2.508  20.279  0.00  0.00    +0.000 C 
ATOM     12  C   UNL     1       2.469   2.882  21.211  0.00  0.00    +0.000 C 
ATOM     13  O   UNL     1       2.314   3.163  22.390  0.00  0.00    +0.000 OA
ENDBRANCH  10  12
ENDBRANCH   9  10
ENDBRANCH   5   9
ENDBRANCH   1   5
BRANCH   2  14
ATOM     14  C   UNL     1       7.347   5.697  17.558  0.00  0.00    +0.000 C 
BRANCH  14  15
ATOM     15  N   UNL     1       6.937   6.992  16.958  0.00  0.00    +0.000 NA
ATOM     16  H   UNL     1       5.930   7.112  17.086  0.00  0.00    +0.000 HD
ATOM     17  H   UNL     1       7.084   6.957  15.948  0.00  0.00    +0.000 HD
ENDBRANCH  14  15
BRANCH  14  18
ATOM     18  C   UNL     1       7.375   4.577  16.522  0.00  0.00    +0.000 C 
BRANCH  18  19
ATOM     19  C   UNL     1       6.770   5.047  15.221  0.00  0.00    +0.000 C 
ATOM     20  O   UNL     1       5.566   5.064  15.007  0.00  0.00    +0.000 OA
BRANCH  19  21
ATOM     21  O   UNL     1       7.676   5.418  14.293  0.00  0.00    +0.000 OA
ATOM     22  H   UNL     1       7.635   6.368  14.062  0.00  0.00    +0.000 HD
ENDBRANCH  19  21
ENDBRANCH  18  19
ENDBRANCH  14  18
ENDBRANCH   2  14
TORSDOF 10
ENDMDL
MODEL 5
REMARK VINA RESULT:      -6.4      1.736      2.396
REMARK  Name = 
REMARK  13 active torsions:
REMARK  status: ('A' for Active; 'I' for Inactive)
REMARK    1  A    between atoms: C_1  and  C_2
REMARK    2  A    between atoms: C_2  and  O_4
REMARK    3  A    between atoms: O_4  and  C_5
REMARK    4  A    between atoms: C_5  and  C_6
REMARK    5  A    between atoms: C_6  and  N_7
REMARK    6  A    between atoms: C_6  and  C_16
REMARK    7  A    between atoms: C_8  and  C_10
REMARK    8  A    between atoms: C_10  and  N_11
REMARK    9  A    between atoms: C_10  and  C_12
REMARK   10  A    between atoms: C_12  and  C_13
REMARK   11  A    between atoms: C_13  and  O_15
REMARK   12  A    between atoms: C_16  and  C_17
REMARK   13  A    between atoms: C_16  and  C_18
REMARK                            x       y       z     vdW  Elec       q    Type
REMARK                         _______ _______ _______ _____ _____    ______ ____
ROOT
ATOM      1  N   UNL     1       3.149   4.648  18.457  0.00  0.00    +0.000 N 
ATOM      2  C   UNL     1       1.812   4.321  18.327  0.00  0.00    +0.000 C 
ATOM      3  O   UNL     1       1.240   4.182  17.254  0.00  0.00    +0.000 OA
ATOM      4  H   UNL     1       3.544   4.581  19.390  0.00  0.00    +0.000 HD
ENDROOT
BRANCH   1   5
ATOM      5  C   UNL     1       3.997   4.999  17.321  0.00  0.00    +0.000 C 
BRANCH   5   6
ATOM      6  C   UNL     1       4.375   6.505  17.350  0.00  0.00    +0.000 C 
ATOM      7  C   UNL     1       4.977   6.962  16.014  0.00  0.00    +0.000 C 
ATOM      8  C   UNL     1       3.205   7.419  17.727  0.00  0.00    +0.000 C 
ENDBRANCH   5   6
BRANCH   5   9
ATOM      9  C   UNL     1       5.218   4.061  17.240  0.00  0.00    +0.000 C 
BRANCH   9  10
ATOM     10  O   UNL     1       6.131   4.292  18.326  0.00  0.00    +0.000 OA
BRANCH  10  12
ATOM     11  C   UNL     1       7.756   5.922  18.772  0.00  0.00    +0.000 C 
ATOM     12  C   UNL     1       7.371   4.722  17.964  0.00  0.00    +0.000 C 
ATOM     13  O   UNL     1       8.067   4.227  17.090  0.00  0.00    +0.000 OA
ENDBRANCH  10  12
ENDBRANCH   9  10
ENDBRANCH   5   9
ENDBRANCH   1   5
BRANCH   2  14
ATOM     14  C   UNL     1       1.106   4.137  19.684  0.00  0.00    +0.000 C 
BRANCH  14  15
ATOM     15  N   UNL     1       1.627   5.169  20.616  0.00  0.00    +0.000 NA
ATOM     16  H   UNL     1       0.864   5.799  20.873  0.00  0.00    +0.000 HD
ATOM     17  H   UNL     1       2.311   5.749  20.129  0.00  0.00    +0.000 HD
ENDBRANCH  14  15
BRANCH  14  18
ATOM     18  C   UNL     1       1.339   2.725  20.215  0.00  0.00    +0.000 C 
BRANCH  18  19
ATOM     19  C   UNL     1       2.599   2.675  21.045  0.00  0.00    +0.000 C 
ATOM     20  O   UNL     1       3.707   2.459  20.572  0.00  0.00    +0.000 OA
BRANCH  19  21
ATOM     21  O   UNL     1       2.399   2.858  22.366  0.00  0.00    +0.000 OA
ATOM     22  H   UNL     1       2.278   3.795  22.619  0.00  0.00    +0.000 HD
ENDBRANCH  19  21
ENDBRANCH  18  19
ENDBRANCH  14  18
ENDBRANCH   2  14
TORSDOF 10
ENDMDL
MODEL 6
REMARK VINA RESULT:      -6.4      2.222      3.696
REMARK  Name = 
REMARK  13 active torsions:
REMARK  status: ('A' for Active; 'I' for Inactive)
REMARK    1  A    between atoms: C_1  and  C_2
REMARK    2  A    between atoms: C_2  and  O_4
REMARK    3  A    between atoms: O_4  and  C_5
REMARK    4  A    between atoms: C_5  and  C_6
REMARK    5  A    between atoms: C_6  and  N_7
REMARK    6  A    between atoms: C_6  and  C_16
REMARK    7  A    between atoms: C_8  and  C_10
REMARK    8  A    between atoms: C_10  and  N_11
REMARK    9  A    between atoms: C_10  and  C_12
REMARK   10  A    between atoms: C_12  and  C_13
REMARK   11  A    between atoms: C_13  and  O_15
REMARK   12  A    between atoms: C_16  and  C_17
REMARK   13  A    between atoms: C_16  and  C_18
REMARK                            x       y       z     vdW  Elec       q    Type
REMARK                         _______ _______ _______ _____ _____    ______ ____
ROOT
ATOM      1  N   UNL     1       5.296   5.199  17.989  0.00  0.00    +0.000 N 
ATOM      2  C   UNL     1       4.070   5.172  18.627  0.00  0.00    +0.000 C 
ATOM      3  O   UNL     1       3.252   6.082  18.584  0.00  0.00    +0.000 OA
ATOM      4  H   UNL     1       5.817   4.328  17.970  0.00  0.00    +0.000 HD
ENDROOT
BRANCH   1   5
ATOM      5  C   UNL     1       5.810   6.381  17.302  0.00  0.00    +0.000 C 
BRANCH   5   6
ATOM      6  C   UNL     1       7.322   6.584  17.594  0.00  0.00    +0.000 C 
ATOM      7  C   UNL     1       7.704   8.070  17.582  0.00  0.00    +0.000 C 
ATOM      8  C   UNL     1       7.780   5.944  18.907  0.00  0.00    +0.000 C 
ENDBRANCH   5   6
BRANCH   5   9
ATOM      9  C   UNL     1       5.477   6.326  15.797  0.00  0.00    +0.000 C 
BRANCH   9  10
ATOM     10  O   UNL     1       6.457   5.567  15.070  0.00  0.00    +0.000 OA
BRANCH  10  12
ATOM     11  C   UNL     1       6.253   3.907  13.426  0.00  0.00    +0.000 C 
ATOM     12  C   UNL     1       6.154   4.253  14.880  0.00  0.00    +0.000 C 
ATOM     13  O   UNL     1       5.820   3.467  15.754  0.00  0.00    +0.000 OA
ENDBRANCH  10  12
ENDBRANCH   9  10
ENDBRANCH   5   9
ENDBRANCH   1   5
BRANCH   2  14
ATOM     14  C   UNL     1       3.827   3.862  19.400  0.00  0.00    +0.000 C 
BRANCH  14  15
ATOM     15  N   UNL     1       4.354   2.741  18.582  0.00  0.00    +0.000 NA
ATOM     16  H   UNL     1       5.183   3.060  18.077  0.00  0.00    +0.000 HD
ATOM     17  H   UNL     1       3.671   2.497  17.863  0.00  0.00    +0.000 HD
ENDBRANCH  14  15
BRANCH  14  18
ATOM     18  C   UNL     1       2.340   3.692  19.701  0.00  0.00    +0.000 C 
BRANCH  18  19
ATOM     19  C   UNL     1       1.655   2.955  18.576  0.00  0.00    +0.000 C 
ATOM     20  O   UNL     1       1.240   3.506  17.566  0.00  0.00    +0.000 OA
BRANCH  19  21
ATOM     21  O   UNL     1       1.506   1.631  18.792  0.00  0.00    +0.000 OA
ATOM     22  H   UNL     1       2.299   1.205  19.174  0.00  0.00    +0.000 HD
ENDBRANCH  19  21
ENDBRANCH  18  19
ENDBRANCH  14  18
ENDBRANCH   2  14
TORSDOF 10
ENDMDL
MODEL 7
REMARK VINA RESULT:      -6.3      2.083      3.364
REMARK  Name = 
REMARK  13 active torsions:
REMARK  status: ('A' for Active; 'I' for Inactive)
REMARK    1  A    between atoms: C_1  and  C_2
REMARK    2  A    between atoms: C_2  and  O_4
REMARK    3  A    between atoms: O_4  and  C_5
REMARK    4  A    between atoms: C_5  and  C_6
REMARK    5  A    between atoms: C_6  and  N_7
REMARK    6  A    between atoms: C_6  and  C_16
REMARK    7  A    between atoms: C_8  and  C_10
REMARK    8  A    between atoms: C_10  and  N_11
REMARK    9  A    between atoms: C_10  and  C_12
REMARK   10  A    between atoms: C_12  and  C_13
REMARK   11  A    between atoms: C_13  and  O_15
REMARK   12  A    between atoms: C_16  and  C_17
REMARK   13  A    between atoms: C_16  and  C_18
REMARK                            x       y       z     vdW  Elec       q    Type
REMARK                         _______ _______ _______ _____ _____    ______ ____
ROOT
ATOM      1  N   UNL     1       5.679   4.175  18.823  0.00  0.00    +0.000 N 
ATOM      2  C   UNL     1       4.423   3.600  18.782  0.00  0.00    +0.000 C 
ATOM      3  O   UNL     1       3.620   3.768  17.873  0.00  0.00    +0.000 OA
ATOM      4  H   UNL     1       6.309   3.838  19.545  0.00  0.00    +0.000 HD
ENDROOT
BRANCH   1   5
ATOM      5  C   UNL     1       6.137   5.160  17.848  0.00  0.00    +0.000 C 
BRANCH   5   6
ATOM      6  C   UNL     1       7.001   6.259  18.526  0.00  0.00    +0.000 C 
ATOM      7  C   UNL     1       8.082   5.649  19.428  0.00  0.00    +0.000 C 
ATOM      8  C   UNL     1       7.646   7.226  17.530  0.00  0.00    +0.000 C 
ENDBRANCH   5   6
BRANCH   5   9
ATOM      9  C   UNL     1       6.840   4.471  16.662  0.00  0.00    +0.000 C 
BRANCH   9  10
ATOM     10  O   UNL     1       6.072   4.594  15.453  0.00  0.00    +0.000 OA
BRANCH  10  12
ATOM     11  C   UNL     1       6.300   3.784  13.264  0.00  0.00    +0.000 C 
ATOM     12  C   UNL     1       6.800   4.731  14.310  0.00  0.00    +0.000 C 
ATOM     13  O   UNL     1       7.745   5.490  14.157  0.00  0.00    +0.000 OA
ENDBRANCH  10  12
ENDBRANCH   9  10
ENDBRANCH   5   9
ENDBRANCH   1   5
BRANCH   2  14
ATOM     14  C   UNL     1       4.132   2.707  20.003  0.00  0.00    +0.000 C 
BRANCH  14  15
ATOM     15  N   UNL     1       5.026   1.523  19.929  0.00  0.00    +0.000 NA
ATOM     16  H   UNL     1       4.846   0.921  20.735  0.00  0.00    +0.000 HD
ATOM     17  H   UNL     1       5.996   1.826  20.023  0.00  0.00    +0.000 HD
ENDBRANCH  14  15
BRANCH  14  18
ATOM     18  C   UNL     1       2.660   2.304  20.027  0.00  0.00    +0.000 C 
BRANCH  18  19
ATOM     19  C   UNL     1       1.894   3.168  21.000  0.00  0.00    +0.000 C 
ATOM     20  O   UNL     1       0.950   3.873  20.673  0.00  0.00    +0.000 OA
BRANCH  19  21
ATOM     21  O   UNL     1       2.362   3.124  22.265  0.00  0.00    +0.000 OA
ATOM     22  H   UNL     1       1.844   2.540  22.854  0.00  0.00    +0.000 HD
ENDBRANCH  19  21
ENDBRANCH  18  19
ENDBRANCH  14  18
ENDBRANCH   2  14
TORSDOF 10
ENDMDL
MODEL 8
REMARK VINA RESULT:      -6.3      1.889      2.449
REMARK  Name = 
REMARK  13 active torsions:
REMARK  status: ('A' for Active; 'I' for Inactive)
REMARK    1  A    between atoms: C_1  and  C_2
REMARK    2  A    between atoms: C_2  and  O_4
REMARK    3  A    between atoms: O_4  and  C_5
REMARK    4  A    between atoms: C_5  and  C_6
REMARK    5  A    between atoms: C_6  and  N_7
REMARK    6  A    between atoms: C_6  and  C_16
REMARK    7  A    between atoms: C_8  and  C_10
REMARK    8  A    between atoms: C_10  and  N_11
REMARK    9  A    between atoms: C_10  and  C_12
REMARK   10  A    between atoms: C_12  and  C_13
REMARK   11  A    between atoms: C_13  and  O_15
REMARK   12  A    between atoms: C_16  and  C_17
REMARK   13  A    between atoms: C_16  and  C_18
REMARK                            x       y       z     vdW  Elec       q    Type
REMARK                         _______ _______ _______ _____ _____    ______ ____
ROOT
ATOM      1  N   UNL     1       3.551   4.372  18.324  0.00  0.00    +0.000 N 
ATOM      2  C   UNL     1       2.813   3.273  17.926  0.00  0.00    +0.000 C 
ATOM      3  O   UNL     1       2.280   3.165  16.829  0.00  0.00    +0.000 OA
ATOM      4  H   UNL     1       4.071   4.280  19.191  0.00  0.00    +0.000 HD
ENDROOT
BRANCH   1   5
ATOM      5  C   UNL     1       3.661   5.590  17.526  0.00  0.00    +0.000 C 
BRANCH   5   6
ATOM      6  C   UNL     1       3.408   6.853  18.395  0.00  0.00    +0.000 C 
ATOM      7  C   UNL     1       2.738   7.970  17.584  0.00  0.00    +0.000 C 
ATOM      8  C   UNL     1       2.589   6.569  19.657  0.00  0.00    +0.000 C 
ENDBRANCH   5   6
BRANCH   5   9
ATOM      9  C   UNL     1       5.001   5.626  16.765  0.00  0.00    +0.000 C 
BRANCH   9  10
ATOM     10  O   UNL     1       5.897   4.604  17.231  0.00  0.00    +0.000 OA
BRANCH  10  12
ATOM     11  C   UNL     1       7.304   6.448  17.572  0.00  0.00    +0.000 C 
ATOM     12  C   UNL     1       7.203   4.974  17.333  0.00  0.00    +0.000 C 
ATOM     13  O   UNL     1       8.164   4.228  17.219  0.00  0.00    +0.000 OA
ENDBRANCH  10  12
ENDBRANCH   9  10
ENDBRANCH   5   9
ENDBRANCH   1   5
BRANCH   2  14
ATOM     14  C   UNL     1       2.736   2.180  19.008  0.00  0.00    +0.000 C 
BRANCH  14  15
ATOM     15  N   UNL     1       1.403   1.533  18.912  0.00  0.00    +0.000 NA
ATOM     16  H   UNL     1       0.991   1.483  19.847  0.00  0.00    +0.000 HD
ATOM     17  H   UNL     1       1.518   0.564  18.611  0.00  0.00    +0.000 HD
ENDBRANCH  14  15
BRANCH  14  18
ATOM     18  C   UNL     1       2.975   2.782  20.389  0.00  0.00    +0.000 C 
BRANCH  18  19
ATOM     19  C   UNL     1       1.660   3.048  21.083  0.00  0.00    +0.000 C 
ATOM     20  O   UNL     1       0.847   3.873  20.690  0.00  0.00    +0.000 OA
BRANCH  19  21
ATOM     21  O   UNL     1       1.468   2.317  22.201  0.00  0.00    +0.000 OA
ATOM     22  H   UNL     1       0.526   2.205  22.439  0.00  0.00    +0.000 HD
ENDBRANCH  19  21
ENDBRANCH  18  19
ENDBRANCH  14  18
ENDBRANCH   2  14
TORSDOF 10
ENDMDL
MODEL 9
REMARK VINA RESULT:      -6.2      2.489      6.093
REMARK  Name = 
REMARK  13 active torsions:
REMARK  status: ('A' for Active; 'I' for Inactive)
REMARK    1  A    between atoms: C_1  and  C_2
REMARK    2  A    between atoms: C_2  and  O_4
REMARK    3  A    between atoms: O_4  and  C_5
REMARK    4  A    between atoms: C_5  and  C_6
REMARK    5  A    between atoms: C_6  and  N_7
REMARK    6  A    between atoms: C_6  and  C_16
REMARK    7  A    between atoms: C_8  and  C_10
REMARK    8  A    between atoms: C_10  and  N_11
REMARK    9  A    between atoms: C_10  and  C_12
REMARK   10  A    between atoms: C_12  and  C_13
REMARK   11  A    between atoms: C_13  and  O_15
REMARK   12  A    between atoms: C_16  and  C_17
REMARK   13  A    between atoms: C_16  and  C_18
REMARK                            x       y       z     vdW  Elec       q    Type
REMARK                         _______ _______ _______ _____ _____    ______ ____
ROOT
ATOM      1  N   UNL     1       5.240   4.213  18.106  0.00  0.00    +0.000 N 
ATOM      2  C   UNL     1       6.372   4.838  18.595  0.00  0.00    +0.000 C 
ATOM      3  O   UNL     1       6.487   5.255  19.740  0.00  0.00    +0.000 OA
ATOM      4  H   UNL     1       5.321   3.775  17.194  0.00  0.00    +0.000 HD
ENDROOT
BRANCH   1   5
ATOM      5  C   UNL     1       4.000   4.101  18.869  0.00  0.00    +0.000 C 
BRANCH   5   6
ATOM      6  C   UNL     1       3.119   5.369  18.694  0.00  0.00    +0.000 C 
ATOM      7  C   UNL     1       1.950   5.116  17.733  0.00  0.00    +0.000 C 
ATOM      8  C   UNL     1       2.588   5.928  20.017  0.00  0.00    +0.000 C 
ENDBRANCH   5   6
BRANCH   5   9
ATOM      9  C   UNL     1       3.264   2.790  18.527  0.00  0.00    +0.000 C 
BRANCH   9  10
ATOM     10  O   UNL     1       2.813   2.116  19.714  0.00  0.00    +0.000 OA
BRANCH  10  12
ATOM     11  C   UNL     1       1.513   2.664  21.587  0.00  0.00    +0.000 C 
ATOM     12  C   UNL     1       1.546   2.417  20.111  0.00  0.00    +0.000 C 
ATOM     13  O   UNL     1       0.564   2.456  19.384  0.00  0.00    +0.000 OA
ENDBRANCH  10  12
ENDBRANCH   9  10
ENDBRANCH   5   9
ENDBRANCH   1   5
BRANCH   2  14
ATOM     14  C   UNL     1       7.493   4.953  17.544  0.00  0.00    +0.000 C 
BRANCH  14  15
ATOM     15  N   UNL     1       7.753   6.396  17.306  0.00  0.00    +0.000 NA
ATOM     16  H   UNL     1       6.968   6.939  17.671  0.00  0.00    +0.000 HD
ATOM     17  H   UNL     1       7.768   6.575  16.301  0.00  0.00    +0.000 HD
ENDBRANCH  14  15
BRANCH  14  18
ATOM     18  C   UNL     1       7.093   4.231  16.261  0.00  0.00    +0.000 C 
BRANCH  18  19
ATOM     19  C   UNL     1       6.875   5.224  15.144  0.00  0.00    +0.000 C 
ATOM     20  O   UNL     1       7.714   5.471  14.290  0.00  0.00    +0.000 OA
BRANCH  19  21
ATOM     21  O   UNL     1       5.678   5.847  15.185  0.00  0.00    +0.000 OA
ATOM     22  H   UNL     1       5.394   6.207  14.321  0.00  0.00    +0.000 HD
ENDBRANCH  19  21
ENDBRANCH  18  19
ENDBRANCH  14  18
ENDBRANCH   2  14
TORSDOF 10
ENDMDL
