MODEL 1
REMARK VINA RESULT:      -8.6      0.000      0.000
REMARK  Name = 
REMARK  4 active torsions:
REMARK  status: ('A' for Active; 'I' for Inactive)
REMARK    1  A    between atoms: C_2  and  C_19
REMARK    2  A    between atoms: N_3  and  C_4
REMARK    3  A    between atoms: N_7  and  S_8
REMARK    4  A    between atoms: S_8  and  C_11
REMARK                            x       y       z     vdW  Elec       q    Type
REMARK                         _______ _______ _______ _____ _____    ______ ____
ROOT
ATOM      1  C   UNL     1       8.023   7.050  18.595  0.00  0.00    +0.000 A 
ATOM      2  C   UNL     1       7.909   5.797  19.242  0.00  0.00    +0.000 A 
ATOM      3  N   UNL     1       7.066   4.965  18.622  0.00  0.00    +0.000 NA
ATOM      4  N   UNL     1       6.688   5.666  17.521  0.00  0.00    +0.000 N 
ATOM      5  C   UNL     1       7.179   6.956  17.512  0.00  0.00    +0.000 A 
ENDROOT
BRANCH   1   8
ATOM      6  O   UNL     1       7.633   9.724  17.661  0.00  0.00    +0.000 OA
ATOM      7  C   UNL     1       8.540   9.425  18.435  0.00  0.00    +0.000 C 
ATOM      8  N   UNL     1       8.791   8.156  18.922  0.00  0.00    +0.000 N 
ATOM      9  H   UNL     1       9.570   8.057  19.570  0.00  0.00    +0.000 HD
BRANCH   7  10
ATOM     10  C   UNL     1       9.475  10.487  18.919  0.00  0.00    +0.000 A 
ATOM     11  C   UNL     1      10.348  11.085  18.014  0.00  0.00    +0.000 A 
ATOM     12  C   UNL     1      11.241  12.039  18.488  0.00  0.00    +0.000 A 
ATOM     13  C   UNL     1      11.237  12.354  19.842  0.00  0.00    +0.000 A 
ATOM     14  C   UNL     1      10.324  11.714  20.670  0.00  0.00    +0.000 A 
ATOM     15  N   UNL     1       9.432  10.788  20.247  0.00  0.00    +0.000 NA
ENDBRANCH   7  10
ENDBRANCH   1   8
BRANCH   4  16
ATOM     16  S   UNL     1       5.692   5.026  16.257  0.00  0.00    +0.000 S 
ATOM     17  O   UNL     1       5.295   6.170  15.452  0.00  0.00    +0.000 OA
ATOM     18  O   UNL     1       6.425   3.910  15.692  0.00  0.00    +0.000 OA
BRANCH  16  19
ATOM     19  C   UNL     1       4.262   4.394  17.059  0.00  0.00    +0.000 A 
ATOM     20  C   UNL     1       3.272   5.252  17.542  0.00  0.00    +0.000 A 
ATOM     21  C   UNL     1       2.128   4.706  18.121  0.00  0.00    +0.000 A 
ATOM     22  C   UNL     1       2.026   3.326  18.182  0.00  0.00    +0.000 A 
ATOM     23 CL   UNL     1       0.654   2.576  18.882  0.00  0.00    +0.000 Cl
ATOM     24  N   UNL     1       2.960   2.473  17.708  0.00  0.00    +0.000 NA
ATOM     25  C   UNL     1       4.062   3.025  17.142  0.00  0.00    +0.000 A 
ENDBRANCH  16  19
ENDBRANCH   4  16
TORSDOF 4
ENDMDL
MODEL 2
REMARK VINA RESULT:      -8.5      0.820      1.398
REMARK  Name = 
REMARK  4 active torsions:
REMARK  status: ('A' for Active; 'I' for Inactive)
REMARK    1  A    between atoms: C_2  and  C_19
REMARK    2  A    between atoms: N_3  and  C_4
REMARK    3  A    between atoms: N_7  and  S_8
REMARK    4  A    between atoms: S_8  and  C_11
REMARK                            x       y       z     vdW  Elec       q    Type
REMARK                         _______ _______ _______ _____ _____    ______ ____
ROOT
ATOM      1  C   UNL     1       8.021   7.072  18.564  0.00  0.00    +0.000 A 
ATOM      2  C   UNL     1       7.908   5.811  19.198  0.00  0.00    +0.000 A 
ATOM      3  N   UNL     1       7.062   4.987  18.573  0.00  0.00    +0.000 NA
ATOM      4  N   UNL     1       6.680   5.701  17.481  0.00  0.00    +0.000 N 
ATOM      5  C   UNL     1       7.173   6.990  17.484  0.00  0.00    +0.000 A 
ENDROOT
BRANCH   1   8
ATOM      6  O   UNL     1       7.643   9.752  17.645  0.00  0.00    +0.000 OA
ATOM      7  C   UNL     1       8.545   9.445  18.420  0.00  0.00    +0.000 C 
ATOM      8  N   UNL     1       8.791   8.172  18.900  0.00  0.00    +0.000 N 
ATOM      9  H   UNL     1       9.568   8.068  19.550  0.00  0.00    +0.000 HD
BRANCH   7  10
ATOM     10  C   UNL     1       9.483  10.501  18.913  0.00  0.00    +0.000 A 
ATOM     11  C   UNL     1       9.513  10.800  20.273  0.00  0.00    +0.000 A 
ATOM     12  C   UNL     1      10.357  11.814  20.709  0.00  0.00    +0.000 A 
ATOM     13  C   UNL     1      11.133  12.494  19.777  0.00  0.00    +0.000 A 
ATOM     14  C   UNL     1      11.046  12.122  18.443  0.00  0.00    +0.000 A 
ATOM     15  N   UNL     1      10.245  11.135  17.978  0.00  0.00    +0.000 NA
ENDBRANCH   7  10
ENDBRANCH   1   8
BRANCH   4  16
ATOM     16  S   UNL     1       5.678   5.075  16.213  0.00  0.00    +0.000 S 
ATOM     17  O   UNL     1       5.267   6.230  15.432  0.00  0.00    +0.000 OA
ATOM     18  O   UNL     1       6.415   3.974  15.624  0.00  0.00    +0.000 OA
BRANCH  16  19
ATOM     19  C   UNL     1       4.259   4.420  17.016  0.00  0.00    +0.000 A 
ATOM     20  C   UNL     1       4.055   3.041  17.101  0.00  0.00    +0.000 A 
ATOM     21  C   UNL     1       2.946   2.563  17.794  0.00  0.00    +0.000 A 
ATOM     22  C   UNL     1       2.096   3.489  18.378  0.00  0.00    +0.000 A 
ATOM     23 CL   UNL     1       0.707   2.983  19.245  0.00  0.00    +0.000 Cl
ATOM     24  N   UNL     1       2.278   4.826  18.325  0.00  0.00    +0.000 NA
ATOM     25  C   UNL     1       3.368   5.270  17.651  0.00  0.00    +0.000 A 
ENDBRANCH  16  19
ENDBRANCH   4  16
TORSDOF 4
ENDMDL
MODEL 3
REMARK VINA RESULT:      -8.2      5.270      7.301
REMARK  Name = 
REMARK  4 active torsions:
REMARK  status: ('A' for Active; 'I' for Inactive)
REMARK    1  A    between atoms: C_2  and  C_19
REMARK    2  A    between atoms: N_3  and  C_4
REMARK    3  A    between atoms: N_7  and  S_8
REMARK    4  A    between atoms: S_8  and  C_11
REMARK                            x       y       z     vdW  Elec       q    Type
REMARK                         _______ _______ _______ _____ _____    ______ ____
ROOT
ATOM      1  C   UNL     1       2.668   7.304  19.210  0.00  0.00    +0.000 A 
ATOM      2  C   UNL     1       2.959   7.626  17.863  0.00  0.00    +0.000 A 
ATOM      3  N   UNL     1       3.730   6.714  17.263  0.00  0.00    +0.000 NA
ATOM      4  N   UNL     1       3.878   5.755  18.216  0.00  0.00    +0.000 N 
ATOM      5  C   UNL     1       3.321   6.112  19.427  0.00  0.00    +0.000 A 
ENDROOT
BRANCH   1   8
ATOM      6  O   UNL     1       1.089   9.640  18.737  0.00  0.00    +0.000 OA
ATOM      7  C   UNL     1       1.160   9.109  19.843  0.00  0.00    +0.000 C 
ATOM      8  N   UNL     1       1.906   7.985  20.145  0.00  0.00    +0.000 N 
ATOM      9  H   UNL     1       1.858   7.645  21.104  0.00  0.00    +0.000 HD
BRANCH   7  10
ATOM     10  C   UNL     1       0.394   9.688  20.989  0.00  0.00    +0.000 A 
ATOM     11  C   UNL     1       0.344   8.991  22.193  0.00  0.00    +0.000 A 
ATOM     12  C   UNL     1      -0.409   9.522  23.234  0.00  0.00    +0.000 A 
ATOM     13  C   UNL     1      -1.086  10.719  23.036  0.00  0.00    +0.000 A 
ATOM     14  C   UNL     1      -0.971  11.351  21.805  0.00  0.00    +0.000 A 
ATOM     15  N   UNL     1      -0.241  10.873  20.769  0.00  0.00    +0.000 NA
ENDBRANCH   7  10
ENDBRANCH   1   8
BRANCH   4  16
ATOM     16  S   UNL     1       4.681   4.242  17.954  0.00  0.00    +0.000 S 
ATOM     17  O   UNL     1       5.612   4.095  19.061  0.00  0.00    +0.000 OA
ATOM     18  O   UNL     1       3.635   3.271  17.698  0.00  0.00    +0.000 OA
BRANCH  16  19
ATOM     19  C   UNL     1       5.610   4.452  16.477  0.00  0.00    +0.000 A 
ATOM     20  C   UNL     1       5.133   3.971  15.256  0.00  0.00    +0.000 A 
ATOM     21  C   UNL     1       5.875   4.208  14.101  0.00  0.00    +0.000 A 
ATOM     22  C   UNL     1       7.056   4.922  14.222  0.00  0.00    +0.000 A 
ATOM     23 CL   UNL     1       8.029   5.253  12.850  0.00  0.00    +0.000 Cl
ATOM     24  N   UNL     1       7.531   5.412  15.388  0.00  0.00    +0.000 NA
ATOM     25  C   UNL     1       6.790   5.177  16.499  0.00  0.00    +0.000 A 
ENDBRANCH  16  19
ENDBRANCH   4  16
TORSDOF 4
ENDMDL
MODEL 4
REMARK VINA RESULT:      -8.2      5.225      7.270
REMARK  Name = 
REMARK  4 active torsions:
REMARK  status: ('A' for Active; 'I' for Inactive)
REMARK    1  A    between atoms: C_2  and  C_19
REMARK    2  A    between atoms: N_3  and  C_4
REMARK    3  A    between atoms: N_7  and  S_8
REMARK    4  A    between atoms: S_8  and  C_11
REMARK                            x       y       z     vdW  Elec       q    Type
REMARK                         _______ _______ _______ _____ _____    ______ ____
ROOT
ATOM      1  C   UNL     1       2.567   7.184  19.296  0.00  0.00    +0.000 A 
ATOM      2  C   UNL     1       2.727   7.389  17.905  0.00  0.00    +0.000 A 
ATOM      3  N   UNL     1       3.580   6.526  17.344  0.00  0.00    +0.000 NA
ATOM      4  N   UNL     1       3.918   5.708  18.376  0.00  0.00    +0.000 N 
ATOM      5  C   UNL     1       3.393   6.121  19.583  0.00  0.00    +0.000 A 
ENDROOT
BRANCH   1   8
ATOM      6  O   UNL     1       1.411   9.777  18.957  0.00  0.00    +0.000 OA
ATOM      7  C   UNL     1       1.244   9.112  19.977  0.00  0.00    +0.000 C 
ATOM      8  N   UNL     1       1.776   7.857  20.212  0.00  0.00    +0.000 N 
ATOM      9  H   UNL     1       1.541   7.416  21.099  0.00  0.00    +0.000 HD
BRANCH   7  10
ATOM     10  C   UNL     1       0.404   9.662  21.085  0.00  0.00    +0.000 A 
ATOM     11  C   UNL     1      -0.381  10.787  20.846  0.00  0.00    +0.000 A 
ATOM     12  C   UNL     1      -1.123  11.312  21.899  0.00  0.00    +0.000 A 
ATOM     13  C   UNL     1      -1.049  10.702  23.146  0.00  0.00    +0.000 A 
ATOM     14  C   UNL     1      -0.248   9.578  23.290  0.00  0.00    +0.000 A 
ATOM     15  N   UNL     1       0.481   9.030  22.289  0.00  0.00    +0.000 NA
ENDBRANCH   7  10
ENDBRANCH   1   8
BRANCH   4  16
ATOM     16  S   UNL     1       4.908   4.296  18.211  0.00  0.00    +0.000 S 
ATOM     17  O   UNL     1       5.883   4.371  19.287  0.00  0.00    +0.000 OA
ATOM     18  O   UNL     1       3.995   3.177  18.080  0.00  0.00    +0.000 OA
BRANCH  16  19
ATOM     19  C   UNL     1       5.757   4.492  16.684  0.00  0.00    +0.000 A 
ATOM     20  C   UNL     1       5.258   3.930  15.508  0.00  0.00    +0.000 A 
ATOM     21  C   UNL     1       5.933   4.157  14.311  0.00  0.00    +0.000 A 
ATOM     22  C   UNL     1       7.072   4.944  14.347  0.00  0.00    +0.000 A 
ATOM     23 CL   UNL     1       7.962   5.269  12.918  0.00  0.00    +0.000 Cl
ATOM     24  N   UNL     1       7.567   5.514  15.467  0.00  0.00    +0.000 NA
ATOM     25  C   UNL     1       6.891   5.286  16.620  0.00  0.00    +0.000 A 
ENDBRANCH  16  19
ENDBRANCH   4  16
TORSDOF 4
ENDMDL
MODEL 5
REMARK VINA RESULT:      -8.0      4.931      7.278
REMARK  Name = 
REMARK  4 active torsions:
REMARK  status: ('A' for Active; 'I' for Inactive)
REMARK    1  A    between atoms: C_2  and  C_19
REMARK    2  A    between atoms: N_3  and  C_4
REMARK    3  A    between atoms: N_7  and  S_8
REMARK    4  A    between atoms: S_8  and  C_11
REMARK                            x       y       z     vdW  Elec       q    Type
REMARK                         _______ _______ _______ _____ _____    ______ ____
ROOT
ATOM      1  C   UNL     1       1.818   5.725  20.508  0.00  0.00    +0.000 A 
ATOM      2  C   UNL     1       1.266   4.422  20.524  0.00  0.00    +0.000 A 
ATOM      3  N   UNL     1       2.039   3.521  19.910  0.00  0.00    +0.000 NA
ATOM      4  N   UNL     1       3.137   4.240  19.557  0.00  0.00    +0.000 N 
ATOM      5  C   UNL     1       3.006   5.587  19.828  0.00  0.00    +0.000 A 
ENDROOT
BRANCH   1   8
ATOM      6  O   UNL     1       1.841   8.292  19.248  0.00  0.00    +0.000 OA
ATOM      7  C   UNL     1       1.369   8.115  20.369  0.00  0.00    +0.000 C 
ATOM      8  N   UNL     1       1.329   6.907  21.040  0.00  0.00    +0.000 N 
ATOM      9  H   UNL     1       0.893   6.906  21.961  0.00  0.00    +0.000 HD
BRANCH   7  10
ATOM     10  C   UNL     1       0.775   9.271  21.109  0.00  0.00    +0.000 A 
ATOM     11  C   UNL     1       0.122   9.040  22.316  0.00  0.00    +0.000 A 
ATOM     12  C   UNL     1      -0.462  10.119  22.970  0.00  0.00    +0.000 A 
ATOM     13  C   UNL     1      -0.379  11.382  22.394  0.00  0.00    +0.000 A 
ATOM     14  C   UNL     1       0.302  11.521  21.193  0.00  0.00    +0.000 A 
ATOM     15  N   UNL     1       0.892  10.499  20.530  0.00  0.00    +0.000 NA
ENDBRANCH   7  10
ENDBRANCH   1   8
BRANCH   4  16
ATOM     16  S   UNL     1       4.557   3.555  18.838  0.00  0.00    +0.000 S 
ATOM     17  O   UNL     1       5.228   2.831  19.906  0.00  0.00    +0.000 OA
ATOM     18  O   UNL     1       4.115   2.895  17.625  0.00  0.00    +0.000 OA
BRANCH  16  19
ATOM     19  C   UNL     1       5.562   4.924  18.385  0.00  0.00    +0.000 A 
ATOM     20  C   UNL     1       5.194   5.767  17.335  0.00  0.00    +0.000 A 
ATOM     21  C   UNL     1       5.990   6.873  17.045  0.00  0.00    +0.000 A 
ATOM     22  C   UNL     1       7.114   7.086  17.827  0.00  0.00    +0.000 A 
ATOM     23 CL   UNL     1       8.148   8.421  17.533  0.00  0.00    +0.000 Cl
ATOM     24  N   UNL     1       7.484   6.297  18.858  0.00  0.00    +0.000 NA
ATOM     25  C   UNL     1       6.691   5.230  19.127  0.00  0.00    +0.000 A 
ENDBRANCH  16  19
ENDBRANCH   4  16
TORSDOF 4
ENDMDL
MODEL 6
REMARK VINA RESULT:      -8.0      5.025      6.907
REMARK  Name = 
REMARK  4 active torsions:
REMARK  status: ('A' for Active; 'I' for Inactive)
REMARK    1  A    between atoms: C_2  and  C_19
REMARK    2  A    between atoms: N_3  and  C_4
REMARK    3  A    between atoms: N_7  and  S_8
REMARK    4  A    between atoms: S_8  and  C_11
REMARK                            x       y       z     vdW  Elec       q    Type
REMARK                         _______ _______ _______ _____ _____    ______ ____
ROOT
ATOM      1  C   UNL     1       2.516   6.934  19.012  0.00  0.00    +0.000 A 
ATOM      2  C   UNL     1       2.036   5.771  19.661  0.00  0.00    +0.000 A 
ATOM      3  N   UNL     1       2.940   4.787  19.705  0.00  0.00    +0.000 NA
ATOM      4  N   UNL     1       4.041   5.351  19.142  0.00  0.00    +0.000 N 
ATOM      5  C   UNL     1       3.801   6.613  18.639  0.00  0.00    +0.000 A 
ENDROOT
BRANCH   1   8
ATOM      6  O   UNL     1       1.356   8.651  20.982  0.00  0.00    +0.000 OA
ATOM      7  C   UNL     1       1.355   8.930  19.785  0.00  0.00    +0.000 C 
ATOM      8  N   UNL     1       1.891   8.147  18.779  0.00  0.00    +0.000 N 
ATOM      9  H   UNL     1       1.831   8.512  17.830  0.00  0.00    +0.000 HD
BRANCH   7  10
ATOM     10  C   UNL     1       0.736  10.213  19.328  0.00  0.00    +0.000 A 
ATOM     11  C   UNL     1      -0.572  10.202  18.852  0.00  0.00    +0.000 A 
ATOM     12  C   UNL     1      -1.118  11.394  18.390  0.00  0.00    +0.000 A 
ATOM     13  C   UNL     1      -0.341  12.547  18.414  0.00  0.00    +0.000 A 
ATOM     14  C   UNL     1       0.950  12.466  18.917  0.00  0.00    +0.000 A 
ATOM     15  N   UNL     1       1.516  11.328  19.384  0.00  0.00    +0.000 NA
ENDBRANCH   7  10
ENDBRANCH   1   8
BRANCH   4  16
ATOM     16  S   UNL     1       5.589   4.577  19.052  0.00  0.00    +0.000 S 
ATOM     17  O   UNL     1       6.502   5.438  19.785  0.00  0.00    +0.000 OA
ATOM     18  O   UNL     1       5.371   3.194  19.429  0.00  0.00    +0.000 OA
BRANCH  16  19
ATOM     19  C   UNL     1       6.038   4.618  17.353  0.00  0.00    +0.000 A 
ATOM     20  C   UNL     1       5.229   4.022  16.383  0.00  0.00    +0.000 A 
ATOM     21  C   UNL     1       5.594   4.127  15.043  0.00  0.00    +0.000 A 
ATOM     22  C   UNL     1       6.746   4.831  14.736  0.00  0.00    +0.000 A 
ATOM     23 CL   UNL     1       7.266   5.003  13.111  0.00  0.00    +0.000 Cl
ATOM     24  N   UNL     1       7.537   5.431  15.652  0.00  0.00    +0.000 NA
ATOM     25  C   UNL     1       7.160   5.323  16.950  0.00  0.00    +0.000 A 
ENDBRANCH  16  19
ENDBRANCH   4  16
TORSDOF 4
ENDMDL
MODEL 7
REMARK VINA RESULT:      -8.0      4.942      7.300
REMARK  Name = 
REMARK  4 active torsions:
REMARK  status: ('A' for Active; 'I' for Inactive)
REMARK    1  A    between atoms: C_2  and  C_19
REMARK    2  A    between atoms: N_3  and  C_4
REMARK    3  A    between atoms: N_7  and  S_8
REMARK    4  A    between atoms: S_8  and  C_11
REMARK                            x       y       z     vdW  Elec       q    Type
REMARK                         _______ _______ _______ _____ _____    ______ ____
ROOT
ATOM      1  C   UNL     1       1.972   5.821  20.512  0.00  0.00    +0.000 A 
ATOM      2  C   UNL     1       1.539   4.482  20.656  0.00  0.00    +0.000 A 
ATOM      3  N   UNL     1       2.312   3.610  20.002  0.00  0.00    +0.000 NA
ATOM      4  N   UNL     1       3.298   4.391  19.489  0.00  0.00    +0.000 N 
ATOM      5  C   UNL     1       3.084   5.737  19.706  0.00  0.00    +0.000 A 
ENDROOT
BRANCH   1   8
ATOM      6  O   UNL     1       1.805   8.352  19.192  0.00  0.00    +0.000 OA
ATOM      7  C   UNL     1       1.393   8.180  20.337  0.00  0.00    +0.000 C 
ATOM      8  N   UNL     1       1.447   6.990  21.038  0.00  0.00    +0.000 N 
ATOM      9  H   UNL     1       1.053   6.990  21.977  0.00  0.00    +0.000 HD
BRANCH   7  10
ATOM     10  C   UNL     1       0.775   9.324  21.076  0.00  0.00    +0.000 A 
ATOM     11  C   UNL     1       0.121   9.078  22.281  0.00  0.00    +0.000 A 
ATOM     12  C   UNL     1      -0.487  10.145  22.933  0.00  0.00    +0.000 A 
ATOM     13  C   UNL     1      -0.426  11.410  22.360  0.00  0.00    +0.000 A 
ATOM     14  C   UNL     1       0.257  11.564  21.162  0.00  0.00    +0.000 A 
ATOM     15  N   UNL     1       0.870  10.554  20.500  0.00  0.00    +0.000 NA
ENDBRANCH   7  10
ENDBRANCH   1   8
BRANCH   4  16
ATOM     16  S   UNL     1       4.682   3.780  18.645  0.00  0.00    +0.000 S 
ATOM     17  O   UNL     1       5.344   2.880  19.576  0.00  0.00    +0.000 OA
ATOM     18  O   UNL     1       4.199   3.327  17.354  0.00  0.00    +0.000 OA
BRANCH  16  19
ATOM     19  C   UNL     1       5.727   5.169  18.384  0.00  0.00    +0.000 A 
ATOM     20  C   UNL     1       6.869   5.364  19.163  0.00  0.00    +0.000 A 
ATOM     21  C   UNL     1       7.699   6.448  18.885  0.00  0.00    +0.000 A 
ATOM     22  C   UNL     1       7.350   7.281  17.836  0.00  0.00    +0.000 A 
ATOM     23 CL   UNL     1       8.316   8.639  17.432  0.00  0.00    +0.000 Cl
ATOM     24  N   UNL     1       6.261   7.107  17.056  0.00  0.00    +0.000 NA
ATOM     25  C   UNL     1       5.470   6.042  17.339  0.00  0.00    +0.000 A 
ENDBRANCH  16  19
ENDBRANCH   4  16
TORSDOF 4
ENDMDL
MODEL 8
REMARK VINA RESULT:      -7.9      5.179      7.103
REMARK  Name = 
REMARK  4 active torsions:
REMARK  status: ('A' for Active; 'I' for Inactive)
REMARK    1  A    between atoms: C_2  and  C_19
REMARK    2  A    between atoms: N_3  and  C_4
REMARK    3  A    between atoms: N_7  and  S_8
REMARK    4  A    between atoms: S_8  and  C_11
REMARK                            x       y       z     vdW  Elec       q    Type
REMARK                         _______ _______ _______ _____ _____    ______ ____
ROOT
ATOM      1  C   UNL     1       2.343   6.233  19.865  0.00  0.00    +0.000 A 
ATOM      2  C   UNL     1       1.840   5.172  19.076  0.00  0.00    +0.000 A 
ATOM      3  N   UNL     1       2.801   4.372  18.602  0.00  0.00    +0.000 NA
ATOM      4  N   UNL     1       3.932   4.884  19.154  0.00  0.00    +0.000 N 
ATOM      5  C   UNL     1       3.707   6.051  19.855  0.00  0.00    +0.000 A 
ENDROOT
BRANCH   1   8
ATOM      6  O   UNL     1       1.818   8.858  18.861  0.00  0.00    +0.000 OA
ATOM      7  C   UNL     1       1.449   8.495  19.976  0.00  0.00    +0.000 C 
ATOM      8  N   UNL     1       1.673   7.247  20.528  0.00  0.00    +0.000 N 
ATOM      9  H   UNL     1       1.295   7.081  21.459  0.00  0.00    +0.000 HD
BRANCH   7  10
ATOM     10  C   UNL     1       0.692   9.447  20.847  0.00  0.00    +0.000 A 
ATOM     11  C   UNL     1       0.253   9.019  22.097  0.00  0.00    +0.000 A 
ATOM     12  C   UNL     1      -0.487   9.902  22.876  0.00  0.00    +0.000 A 
ATOM     13  C   UNL     1      -0.766  11.170  22.379  0.00  0.00    +0.000 A 
ATOM     14  C   UNL     1      -0.279  11.514  21.126  0.00  0.00    +0.000 A 
ATOM     15  N   UNL     1       0.453  10.689  20.340  0.00  0.00    +0.000 NA
ENDBRANCH   7  10
ENDBRANCH   1   8
BRANCH   4  16
ATOM     16  S   UNL     1       5.500   4.162  19.000  0.00  0.00    +0.000 S 
ATOM     17  O   UNL     1       6.393   4.990  19.793  0.00  0.00    +0.000 OA
ATOM     18  O   UNL     1       5.321   2.749  19.272  0.00  0.00    +0.000 OA
BRANCH  16  19
ATOM     19  C   UNL     1       5.938   4.344  17.308  0.00  0.00    +0.000 A 
ATOM     20  C   UNL     1       4.969   4.271  16.304  0.00  0.00    +0.000 A 
ATOM     21  C   UNL     1       5.351   4.477  14.981  0.00  0.00    +0.000 A 
ATOM     22  C   UNL     1       6.684   4.754  14.724  0.00  0.00    +0.000 A 
ATOM     23 CL   UNL     1       7.236   5.016  13.123  0.00  0.00    +0.000 Cl
ATOM     24  N   UNL     1       7.638   4.847  15.676  0.00  0.00    +0.000 NA
ATOM     25  C   UNL     1       7.243   4.650  16.959  0.00  0.00    +0.000 A 
ENDBRANCH  16  19
ENDBRANCH   4  16
TORSDOF 4
ENDMDL
MODEL 9
REMARK VINA RESULT:      -7.8      4.943      6.919
REMARK  Name = 
REMARK  4 active torsions:
REMARK  status: ('A' for Active; 'I' for Inactive)
REMARK    1  A    between atoms: C_2  and  C_19
REMARK    2  A    between atoms: N_3  and  C_4
REMARK    3  A    between atoms: N_7  and  S_8
REMARK    4  A    between atoms: S_8  and  C_11
REMARK                            x       y       z     vdW  Elec       q    Type
REMARK                         _______ _______ _______ _____ _____    ______ ____
ROOT
ATOM      1  C   UNL     1       2.419   6.696  19.226  0.00  0.00    +0.000 A 
ATOM      2  C   UNL     1       1.910   5.410  18.929  0.00  0.00    +0.000 A 
ATOM      3  N   UNL     1       2.870   4.509  18.697  0.00  0.00    +0.000 NA
ATOM      4  N   UNL     1       4.014   5.208  18.920  0.00  0.00    +0.000 N 
ATOM      5  C   UNL     1       3.786   6.548  19.161  0.00  0.00    +0.000 A 
ENDROOT
BRANCH   1   8
ATOM      6  O   UNL     1       2.065   8.939  17.488  0.00  0.00    +0.000 OA
ATOM      7  C   UNL     1       1.614   8.916  18.631  0.00  0.00    +0.000 C 
ATOM      8  N   UNL     1       1.752   7.872  19.526  0.00  0.00    +0.000 N 
ATOM      9  H   UNL     1       1.312   7.985  20.437  0.00  0.00    +0.000 HD
BRANCH   7  10
ATOM     10  C   UNL     1       0.845  10.093  19.143  0.00  0.00    +0.000 A 
ATOM     11  C   UNL     1       1.121  10.580  20.418  0.00  0.00    +0.000 A 
ATOM     12  C   UNL     1       0.367  11.646  20.896  0.00  0.00    +0.000 A 
ATOM     13  C   UNL     1      -0.633  12.180  20.091  0.00  0.00    +0.000 A 
ATOM     14  C   UNL     1      -0.830  11.638  18.829  0.00  0.00    +0.000 A 
ATOM     15  N   UNL     1      -0.112  10.607  18.322  0.00  0.00    +0.000 NA
ENDBRANCH   7  10
ENDBRANCH   1   8
BRANCH   4  16
ATOM     16  S   UNL     1       5.599   4.508  18.903  0.00  0.00    +0.000 S 
ATOM     17  O   UNL     1       6.433   5.405  19.686  0.00  0.00    +0.000 OA
ATOM     18  O   UNL     1       5.427   3.114  19.261  0.00  0.00    +0.000 OA
BRANCH  16  19
ATOM     19  C   UNL     1       6.128   4.584  17.229  0.00  0.00    +0.000 A 
ATOM     20  C   UNL     1       5.485   3.839  16.239  0.00  0.00    +0.000 A 
ATOM     21  C   UNL     1       5.901   3.971  14.916  0.00  0.00    +0.000 A 
ATOM     22  C   UNL     1       6.937   4.851  14.646  0.00  0.00    +0.000 A 
ATOM     23 CL   UNL     1       7.510   5.069  13.045  0.00  0.00    +0.000 Cl
ATOM     24  N   UNL     1       7.565   5.596  15.581  0.00  0.00    +0.000 NA
ATOM     25  C   UNL     1       7.140   5.456  16.861  0.00  0.00    +0.000 A 
ENDBRANCH  16  19
ENDBRANCH   4  16
TORSDOF 4
ENDMDL
