MODEL 1
REMARK VINA RESULT:      -7.2      0.000      0.000
REMARK  Name = 
REMARK  3 active torsions:
REMARK  status: ('A' for Active; 'I' for Inactive)
REMARK    1  A    between atoms: C_1  and  C_2
REMARK    2  A    between atoms: C_5  and  N_6
REMARK    3  A    between atoms: C_7  and  C_9
REMARK                            x       y       z     vdW  Elec       q    Type
REMARK                         _______ _______ _______ _____ _____    ______ ____
ROOT
ATOM      1  N   UNL     1       2.296   8.551  17.582  0.00  0.00    +0.000 N 
ATOM      2  C   UNL     1       2.638   7.483  18.401  0.00  0.00    +0.000 C 
ATOM      3  O   UNL     1       2.312   7.342  19.578  0.00  0.00    +0.000 OA
ATOM      4  H   UNL     1       2.582   8.525  16.612  0.00  0.00    +0.000 HD
ENDROOT
BRANCH   2   5
ATOM      5  C   UNL     1       3.462   6.390  17.817  0.00  0.00    +0.000 A 
ATOM      6  C   UNL     1       3.083   5.032  17.843  0.00  0.00    +0.000 A 
ATOM      7  C   UNL     1       3.861   4.071  17.180  0.00  0.00    +0.000 A 
ATOM      8  C   UNL     1       4.996   4.495  16.517  0.00  0.00    +0.000 A 
ATOM      9  C   UNL     1       5.367   5.817  16.496  0.00  0.00    +0.000 A 
ATOM     10  C   UNL     1       4.625   6.783  17.130  0.00  0.00    +0.000 A 
ATOM     11  O   UNL     1       6.501   6.032  15.779  0.00  0.00    +0.000 OA
ATOM     12  C   UNL     1       6.834   4.685  15.391  0.00  0.00    +0.000 C 
ATOM     13  O   UNL     1       5.852   3.711  15.809  0.00  0.00    +0.000 OA
ENDBRANCH   2   5
BRANCH   1  18
ATOM     14  C   UNL     1      -0.941  13.044  19.179  0.00  0.00    +0.000 C 
ATOM     15  C   UNL     1      -0.123  11.856  18.760  0.00  0.00    +0.000 A 
ATOM     16  C   UNL     1       1.269  11.951  18.798  0.00  0.00    +0.000 A 
ATOM     17  C   UNL     1       2.069  10.874  18.410  0.00  0.00    +0.000 A 
ATOM     18  C   UNL     1       1.513   9.669  17.977  0.00  0.00    +0.000 A 
ATOM     19  C   UNL     1       0.118   9.564  17.939  0.00  0.00    +0.000 A 
ATOM     20  C   UNL     1      -0.689  10.649  18.325  0.00  0.00    +0.000 A 
ATOM     21 CL   UNL     1      -2.405  10.449  18.246  0.00  0.00    +0.000 Cl
ENDBRANCH   1  18
TORSDOF 2
ENDMDL
MODEL 2
REMARK VINA RESULT:      -7.2      2.241      2.290
REMARK  Name = 
REMARK  3 active torsions:
REMARK  status: ('A' for Active; 'I' for Inactive)
REMARK    1  A    between atoms: C_1  and  C_2
REMARK    2  A    between atoms: C_5  and  N_6
REMARK    3  A    between atoms: C_7  and  C_9
REMARK                            x       y       z     vdW  Elec       q    Type
REMARK                         _______ _______ _______ _____ _____    ______ ____
ROOT
ATOM      1  N   UNL     1       2.157   7.639  19.329  0.00  0.00    +0.000 N 
ATOM      2  C   UNL     1       2.737   7.715  18.069  0.00  0.00    +0.000 C 
ATOM      3  O   UNL     1       2.658   8.666  17.294  0.00  0.00    +0.000 OA
ATOM      4  H   UNL     1       2.340   6.821  19.895  0.00  0.00    +0.000 HD
ENDROOT
BRANCH   2   5
ATOM      5  C   UNL     1       3.546   6.557  17.601  0.00  0.00    +0.000 A 
ATOM      6  C   UNL     1       3.170   5.213  17.802  0.00  0.00    +0.000 A 
ATOM      7  C   UNL     1       3.931   4.177  17.240  0.00  0.00    +0.000 A 
ATOM      8  C   UNL     1       5.046   4.515  16.498  0.00  0.00    +0.000 A 
ATOM      9  C   UNL     1       5.415   5.824  16.306  0.00  0.00    +0.000 A 
ATOM     10  C   UNL     1       4.689   6.862  16.839  0.00  0.00    +0.000 A 
ATOM     11  O   UNL     1       6.528   5.948  15.537  0.00  0.00    +0.000 OA
ATOM     12  C   UNL     1       6.852   4.563  15.307  0.00  0.00    +0.000 C 
ATOM     13  O   UNL     1       5.883   3.649  15.867  0.00  0.00    +0.000 OA
ENDBRANCH   2   5
BRANCH   1  18
ATOM     14  C   UNL     1      -1.050  11.726  21.824  0.00  0.00    +0.000 C 
ATOM     15  C   UNL     1      -0.208  10.649  21.201  0.00  0.00    +0.000 A 
ATOM     16  C   UNL     1       0.044  10.700  19.830  0.00  0.00    +0.000 A 
ATOM     17  C   UNL     1       0.815   9.717  19.208  0.00  0.00    +0.000 A 
ATOM     18  C   UNL     1       1.363   8.654  19.928  0.00  0.00    +0.000 A 
ATOM     19  C   UNL     1       1.117   8.595  21.303  0.00  0.00    +0.000 A 
ATOM     20  C   UNL     1       0.338   9.583  21.932  0.00  0.00    +0.000 A 
ATOM     21 CL   UNL     1       0.072   9.443  23.634  0.00  0.00    +0.000 Cl
ENDBRANCH   1  18
TORSDOF 2
ENDMDL
MODEL 3
REMARK VINA RESULT:      -7.2      3.273      7.871
REMARK  Name = 
REMARK  3 active torsions:
REMARK  status: ('A' for Active; 'I' for Inactive)
REMARK    1  A    between atoms: C_1  and  C_2
REMARK    2  A    between atoms: C_5  and  N_6
REMARK    3  A    between atoms: C_7  and  C_9
REMARK                            x       y       z     vdW  Elec       q    Type
REMARK                         _______ _______ _______ _____ _____    ______ ____
ROOT
ATOM      1  N   UNL     1       2.317   7.607  18.891  0.00  0.00    +0.000 N 
ATOM      2  C   UNL     1       1.811   8.801  18.394  0.00  0.00    +0.000 C 
ATOM      3  O   UNL     1       1.968   9.233  17.254  0.00  0.00    +0.000 OA
ATOM      4  H   UNL     1       2.073   7.336  19.834  0.00  0.00    +0.000 HD
ENDROOT
BRANCH   2   5
ATOM      5  C   UNL     1       0.990   9.646  19.304  0.00  0.00    +0.000 A 
ATOM      6  C   UNL     1       0.268  10.777  18.873  0.00  0.00    +0.000 A 
ATOM      7  C   UNL     1      -0.568  11.462  19.768  0.00  0.00    +0.000 A 
ATOM      8  C   UNL     1      -0.654  10.998  21.066  0.00  0.00    +0.000 A 
ATOM      9  C   UNL     1       0.053   9.898  21.486  0.00  0.00    +0.000 A 
ATOM     10  C   UNL     1       0.876   9.202  20.634  0.00  0.00    +0.000 A 
ATOM     11  O   UNL     1      -0.178   9.592  22.790  0.00  0.00    +0.000 OA
ATOM     12  C   UNL     1      -1.075  10.658  23.161  0.00  0.00    +0.000 C 
ATOM     13  O   UNL     1      -1.424  11.521  22.056  0.00  0.00    +0.000 OA
ENDBRANCH   2   5
BRANCH   1  18
ATOM     14  C   UNL     1       5.489   3.817  15.927  0.00  0.00    +0.000 C 
ATOM     15  C   UNL     1       4.641   4.782  16.705  0.00  0.00    +0.000 A 
ATOM     16  C   UNL     1       5.029   6.121  16.763  0.00  0.00    +0.000 A 
ATOM     17  C   UNL     1       4.275   7.053  17.480  0.00  0.00    +0.000 A 
ATOM     18  C   UNL     1       3.111   6.685  18.157  0.00  0.00    +0.000 A 
ATOM     19  C   UNL     1       2.713   5.346  18.101  0.00  0.00    +0.000 A 
ATOM     20  C   UNL     1       3.473   4.405  17.383  0.00  0.00    +0.000 A 
ATOM     21 CL   UNL     1       2.923   2.766  17.363  0.00  0.00    +0.000 Cl
ENDBRANCH   1  18
TORSDOF 2
ENDMDL
MODEL 4
REMARK VINA RESULT:      -7.2      2.297      2.338
REMARK  Name = 
REMARK  3 active torsions:
REMARK  status: ('A' for Active; 'I' for Inactive)
REMARK    1  A    between atoms: C_1  and  C_2
REMARK    2  A    between atoms: C_5  and  N_6
REMARK    3  A    between atoms: C_7  and  C_9
REMARK                            x       y       z     vdW  Elec       q    Type
REMARK                         _______ _______ _______ _____ _____    ______ ____
ROOT
ATOM      1  N   UNL     1       2.040   7.891  19.548  0.00  0.00    +0.000 N 
ATOM      2  C   UNL     1       2.230   6.523  19.700  0.00  0.00    +0.000 C 
ATOM      3  O   UNL     1       1.746   5.822  20.586  0.00  0.00    +0.000 OA
ATOM      4  H   UNL     1       2.450   8.347  18.744  0.00  0.00    +0.000 HD
ENDROOT
BRANCH   2   5
ATOM      5  C   UNL     1       3.080   5.819  18.702  0.00  0.00    +0.000 A 
ATOM      6  C   UNL     1       3.082   4.420  18.532  0.00  0.00    +0.000 A 
ATOM      7  C   UNL     1       3.833   3.837  17.500  0.00  0.00    +0.000 A 
ATOM      8  C   UNL     1       4.560   4.670  16.672  0.00  0.00    +0.000 A 
ATOM      9  C   UNL     1       4.561   6.032  16.841  0.00  0.00    +0.000 A 
ATOM     10  C   UNL     1       3.834   6.635  17.838  0.00  0.00    +0.000 A 
ATOM     11  O   UNL     1       5.324   6.675  15.918  0.00  0.00    +0.000 OA
ATOM     12  C   UNL     1       5.848   5.556  15.176  0.00  0.00    +0.000 C 
ATOM     13  O   UNL     1       5.323   4.283  15.615  0.00  0.00    +0.000 OA
ENDBRANCH   2   5
BRANCH   1  18
ATOM     14  C   UNL     1      -1.174  11.239  22.964  0.00  0.00    +0.000 C 
ATOM     15  C   UNL     1      -0.351  10.378  22.049  0.00  0.00    +0.000 A 
ATOM     16  C   UNL     1       0.531   9.453  22.609  0.00  0.00    +0.000 A 
ATOM     17  C   UNL     1       1.321   8.637  21.797  0.00  0.00    +0.000 A 
ATOM     18  C   UNL     1       1.256   8.710  20.405  0.00  0.00    +0.000 A 
ATOM     19  C   UNL     1       0.372   9.632  19.834  0.00  0.00    +0.000 A 
ATOM     20  C   UNL     1      -0.421  10.458  20.650  0.00  0.00    +0.000 A 
ATOM     21 CL   UNL     1      -1.487  11.578  19.876  0.00  0.00    +0.000 Cl
ENDBRANCH   1  18
TORSDOF 2
ENDMDL
MODEL 5
REMARK VINA RESULT:      -7.2      1.267      1.657
REMARK  Name = 
REMARK  3 active torsions:
REMARK  status: ('A' for Active; 'I' for Inactive)
REMARK    1  A    between atoms: C_1  and  C_2
REMARK    2  A    between atoms: C_5  and  N_6
REMARK    3  A    between atoms: C_7  and  C_9
REMARK                            x       y       z     vdW  Elec       q    Type
REMARK                         _______ _______ _______ _____ _____    ______ ____
ROOT
ATOM      1  N   UNL     1       2.296   8.548  17.588  0.00  0.00    +0.000 N 
ATOM      2  C   UNL     1       2.604   7.458  18.392  0.00  0.00    +0.000 C 
ATOM      3  O   UNL     1       2.247   7.297  19.558  0.00  0.00    +0.000 OA
ATOM      4  H   UNL     1       2.606   8.538  16.626  0.00  0.00    +0.000 HD
ENDROOT
BRANCH   2   5
ATOM      5  C   UNL     1       3.426   6.365  17.805  0.00  0.00    +0.000 A 
ATOM      6  C   UNL     1       3.066   5.004  17.863  0.00  0.00    +0.000 A 
ATOM      7  C   UNL     1       3.839   4.041  17.196  0.00  0.00    +0.000 A 
ATOM      8  C   UNL     1       4.950   4.469  16.496  0.00  0.00    +0.000 A 
ATOM      9  C   UNL     1       5.303   5.794  16.443  0.00  0.00    +0.000 A 
ATOM     10  C   UNL     1       4.566   6.762  17.081  0.00  0.00    +0.000 A 
ATOM     11  O   UNL     1       6.416   6.012  15.693  0.00  0.00    +0.000 OA
ATOM     12  C   UNL     1       6.756   4.662  15.318  0.00  0.00    +0.000 C 
ATOM     13  O   UNL     1       5.798   3.683  15.778  0.00  0.00    +0.000 OA
ENDBRANCH   2   5
BRANCH   1  18
ATOM     14  C   UNL     1      -0.793  13.133  19.214  0.00  0.00    +0.000 C 
ATOM     15  C   UNL     1       0.038  11.956  18.790  0.00  0.00    +0.000 A 
ATOM     16  C   UNL     1      -0.604  10.754  18.487  0.00  0.00    +0.000 A 
ATOM     17  C   UNL     1       0.128   9.632  18.095  0.00  0.00    +0.000 A 
ATOM     18  C   UNL     1       1.520   9.668  17.989  0.00  0.00    +0.000 A 
ATOM     19  C   UNL     1       2.171  10.869  18.289  0.00  0.00    +0.000 A 
ATOM     20  C   UNL     1       1.436  11.999  18.687  0.00  0.00    +0.000 A 
ATOM     21 CL   UNL     1       2.309  13.448  19.047  0.00  0.00    +0.000 Cl
ENDBRANCH   1  18
TORSDOF 2
ENDMDL
MODEL 6
REMARK VINA RESULT:      -7.1      6.515      7.648
REMARK  Name = 
REMARK  3 active torsions:
REMARK  status: ('A' for Active; 'I' for Inactive)
REMARK    1  A    between atoms: C_1  and  C_2
REMARK    2  A    between atoms: C_5  and  N_6
REMARK    3  A    between atoms: C_7  and  C_9
REMARK                            x       y       z     vdW  Elec       q    Type
REMARK                         _______ _______ _______ _____ _____    ______ ____
ROOT
ATOM      1  N   UNL     1       9.177   9.325  19.138  0.00  0.00    +0.000 N 
ATOM      2  C   UNL     1       8.228   9.068  18.158  0.00  0.00    +0.000 C 
ATOM      3  O   UNL     1       7.733   9.897  17.396  0.00  0.00    +0.000 OA
ATOM      4  H   UNL     1       9.546   8.546  19.667  0.00  0.00    +0.000 HD
ENDROOT
BRANCH   2   5
ATOM      5  C   UNL     1       7.762   7.665  17.985  0.00  0.00    +0.000 A 
ATOM      6  C   UNL     1       8.146   6.608  18.835  0.00  0.00    +0.000 A 
ATOM      7  C   UNL     1       7.584   5.333  18.672  0.00  0.00    +0.000 A 
ATOM      8  C   UNL     1       6.658   5.153  17.663  0.00  0.00    +0.000 A 
ATOM      9  C   UNL     1       6.288   6.181  16.833  0.00  0.00    +0.000 A 
ATOM     10  C   UNL     1       6.815   7.442  16.968  0.00  0.00    +0.000 A 
ATOM     11  O   UNL     1       5.356   5.806  15.917  0.00  0.00    +0.000 OA
ATOM     12  C   UNL     1       5.218   4.407  16.231  0.00  0.00    +0.000 C 
ATOM     13  O   UNL     1       6.000   3.998  17.375  0.00  0.00    +0.000 OA
ENDBRANCH   2   5
BRANCH   1  18
ATOM     14  C   UNL     1      11.444  14.507  20.244  0.00  0.00    +0.000 C 
ATOM     15  C   UNL     1      10.862  13.159  19.926  0.00  0.00    +0.000 A 
ATOM     16  C   UNL     1      10.139  12.489  20.914  0.00  0.00    +0.000 A 
ATOM     17  C   UNL     1       9.586  11.232  20.665  0.00  0.00    +0.000 A 
ATOM     18  C   UNL     1       9.731  10.602  19.428  0.00  0.00    +0.000 A 
ATOM     19  C   UNL     1      10.452  11.267  18.431  0.00  0.00    +0.000 A 
ATOM     20  C   UNL     1      11.013  12.532  18.681  0.00  0.00    +0.000 A 
ATOM     21 CL   UNL     1      11.896  13.292  17.403  0.00  0.00    +0.000 Cl
ENDBRANCH   1  18
TORSDOF 2
ENDMDL
MODEL 7
REMARK VINA RESULT:      -7.0      3.409      7.955
REMARK  Name = 
REMARK  3 active torsions:
REMARK  status: ('A' for Active; 'I' for Inactive)
REMARK    1  A    between atoms: C_1  and  C_2
REMARK    2  A    between atoms: C_5  and  N_6
REMARK    3  A    between atoms: C_7  and  C_9
REMARK                            x       y       z     vdW  Elec       q    Type
REMARK                         _______ _______ _______ _____ _____    ______ ____
ROOT
ATOM      1  N   UNL     1       2.536   7.236  18.897  0.00  0.00    +0.000 N 
ATOM      2  C   UNL     1       2.041   8.439  18.412  0.00  0.00    +0.000 C 
ATOM      3  O   UNL     1       2.209   8.885  17.278  0.00  0.00    +0.000 OA
ATOM      4  H   UNL     1       2.283   6.954  19.835  0.00  0.00    +0.000 HD
ENDROOT
BRANCH   2   5
ATOM      5  C   UNL     1       1.218   9.277  19.326  0.00  0.00    +0.000 A 
ATOM      6  C   UNL     1       0.487  10.405  18.901  0.00  0.00    +0.000 A 
ATOM      7  C   UNL     1      -0.349  11.083  19.801  0.00  0.00    +0.000 A 
ATOM      8  C   UNL     1      -0.426  10.615  21.098  0.00  0.00    +0.000 A 
ATOM      9  C   UNL     1       0.288   9.519  21.513  0.00  0.00    +0.000 A 
ATOM     10  C   UNL     1       1.113   8.830  20.656  0.00  0.00    +0.000 A 
ATOM     11  O   UNL     1       0.064   9.209  22.817  0.00  0.00    +0.000 OA
ATOM     12  C   UNL     1      -0.837  10.268  23.194  0.00  0.00    +0.000 C 
ATOM     13  O   UNL     1      -1.196  11.132  22.093  0.00  0.00    +0.000 OA
ENDBRANCH   2   5
BRANCH   1  18
ATOM     14  C   UNL     1       5.814   3.562  15.902  0.00  0.00    +0.000 C 
ATOM     15  C   UNL     1       4.984   4.538  16.685  0.00  0.00    +0.000 A 
ATOM     16  C   UNL     1       3.679   4.186  17.031  0.00  0.00    +0.000 A 
ATOM     17  C   UNL     1       2.869   5.064  17.753  0.00  0.00    +0.000 A 
ATOM     18  C   UNL     1       3.330   6.318  18.157  0.00  0.00    +0.000 A 
ATOM     19  C   UNL     1       4.638   6.680  17.816  0.00  0.00    +0.000 A 
ATOM     20  C   UNL     1       5.454   5.798  17.086  0.00  0.00    +0.000 A 
ATOM     21 CL   UNL     1       7.058   6.314  16.697  0.00  0.00    +0.000 Cl
ENDBRANCH   1  18
TORSDOF 2
ENDMDL
MODEL 8
REMARK VINA RESULT:      -7.0      1.821      1.919
REMARK  Name = 
REMARK  3 active torsions:
REMARK  status: ('A' for Active; 'I' for Inactive)
REMARK    1  A    between atoms: C_1  and  C_2
REMARK    2  A    between atoms: C_5  and  N_6
REMARK    3  A    between atoms: C_7  and  C_9
REMARK                            x       y       z     vdW  Elec       q    Type
REMARK                         _______ _______ _______ _____ _____    ______ ____
ROOT
ATOM      1  N   UNL     1       2.455   7.770  18.313  0.00  0.00    +0.000 N 
ATOM      2  C   UNL     1       2.636   6.448  18.698  0.00  0.00    +0.000 C 
ATOM      3  O   UNL     1       2.081   5.889  19.643  0.00  0.00    +0.000 OA
ATOM      4  H   UNL     1       2.931   8.099  17.484  0.00  0.00    +0.000 HD
ENDROOT
BRANCH   2   5
ATOM      5  C   UNL     1       3.571   5.608  17.901  0.00  0.00    +0.000 A 
ATOM      6  C   UNL     1       3.424   4.215  17.744  0.00  0.00    +0.000 A 
ATOM      7  C   UNL     1       4.285   3.507  16.892  0.00  0.00    +0.000 A 
ATOM      8  C   UNL     1       5.268   4.213  16.227  0.00  0.00    +0.000 A 
ATOM      9  C   UNL     1       5.414   5.568  16.383  0.00  0.00    +0.000 A 
ATOM     10  C   UNL     1       4.585   6.292  17.206  0.00  0.00    +0.000 A 
ATOM     11  O   UNL     1       6.427   6.078  15.633  0.00  0.00    +0.000 OA
ATOM     12  C   UNL     1       6.939   4.877  15.022  0.00  0.00    +0.000 C 
ATOM     13  O   UNL     1       6.172   3.697  15.352  0.00  0.00    +0.000 OA
ENDBRANCH   2   5
BRANCH   1  18
ATOM     14  C   UNL     1      -1.000  11.521  20.997  0.00  0.00    +0.000 C 
ATOM     15  C   UNL     1      -0.091  10.532  20.325  0.00  0.00    +0.000 A 
ATOM     16  C   UNL     1       0.065  10.596  18.940  0.00  0.00    +0.000 A 
ATOM     17  C   UNL     1       0.895   9.693  18.272  0.00  0.00    +0.000 A 
ATOM     18  C   UNL     1       1.598   8.702  18.959  0.00  0.00    +0.000 A 
ATOM     19  C   UNL     1       1.450   8.632  20.348  0.00  0.00    +0.000 A 
ATOM     20  C   UNL     1       0.612   9.539  21.022  0.00  0.00    +0.000 A 
ATOM     21 CL   UNL     1       0.473   9.389  22.739  0.00  0.00    +0.000 Cl
ENDBRANCH   1  18
TORSDOF 2
ENDMDL
MODEL 9
REMARK VINA RESULT:      -7.0      2.007      2.062
REMARK  Name = 
REMARK  3 active torsions:
REMARK  status: ('A' for Active; 'I' for Inactive)
REMARK    1  A    between atoms: C_1  and  C_2
REMARK    2  A    between atoms: C_5  and  N_6
REMARK    3  A    between atoms: C_7  and  C_9
REMARK                            x       y       z     vdW  Elec       q    Type
REMARK                         _______ _______ _______ _____ _____    ______ ____
ROOT
ATOM      1  N   UNL     1       2.211   7.469  19.533  0.00  0.00    +0.000 N 
ATOM      2  C   UNL     1       2.732   7.614  18.254  0.00  0.00    +0.000 C 
ATOM      3  O   UNL     1       2.611   8.602  17.532  0.00  0.00    +0.000 OA
ATOM      4  H   UNL     1       2.426   6.626  20.048  0.00  0.00    +0.000 HD
ENDROOT
BRANCH   2   5
ATOM      5  C   UNL     1       3.527   6.488  17.690  0.00  0.00    +0.000 A 
ATOM      6  C   UNL     1       3.137   5.137  17.787  0.00  0.00    +0.000 A 
ATOM      7  C   UNL     1       3.884   4.141  17.141  0.00  0.00    +0.000 A 
ATOM      8  C   UNL     1       4.999   4.525  16.422  0.00  0.00    +0.000 A 
ATOM      9  C   UNL     1       5.380   5.840  16.331  0.00  0.00    +0.000 A 
ATOM     10  C   UNL     1       4.669   6.841  16.948  0.00  0.00    +0.000 A 
ATOM     11  O   UNL     1       6.491   6.014  15.567  0.00  0.00    +0.000 OA
ATOM     12  C   UNL     1       6.798   4.648  15.226  0.00  0.00    +0.000 C 
ATOM     13  O   UNL     1       5.823   3.702  15.719  0.00  0.00    +0.000 OA
ENDBRANCH   2   5
BRANCH   1  18
ATOM     14  C   UNL     1      -0.945  11.455  22.247  0.00  0.00    +0.000 C 
ATOM     15  C   UNL     1      -0.133  10.427  21.513  0.00  0.00    +0.000 A 
ATOM     16  C   UNL     1       0.562   9.467  22.250  0.00  0.00    +0.000 A 
ATOM     17  C   UNL     1       1.335   8.497  21.609  0.00  0.00    +0.000 A 
ATOM     18  C   UNL     1       1.439   8.446  20.218  0.00  0.00    +0.000 A 
ATOM     19  C   UNL     1       0.743   9.402  19.472  0.00  0.00    +0.000 A 
ATOM     20  C   UNL     1      -0.033  10.383  20.114  0.00  0.00    +0.000 A 
ATOM     21 CL   UNL     1      -0.860  11.537  19.127  0.00  0.00    +0.000 Cl
ENDBRANCH   1  18
TORSDOF 2
ENDMDL
