MODEL 1
REMARK VINA RESULT:      -7.2      0.000      0.000
REMARK  Name = 
REMARK  13 active torsions:
REMARK  status: ('A' for Active; 'I' for Inactive)
REMARK    1  A    between atoms: C_1  and  C_2
REMARK    2  A    between atoms: C_2  and  O_3
REMARK    3  A    between atoms: O_3  and  C_4
REMARK    4  A    between atoms: C_4  and  C_5
REMARK    5  A    between atoms: C_4  and  C_16
REMARK    6  A    between atoms: C_6  and  C_7
REMARK    7  A    between atoms: C_10  and  C_11
REMARK    8  A    between atoms: C_16  and  C_17
REMARK    9  A    between atoms: C_16  and  C_18
REMARK   10  A    between atoms: C_16  and  C_19
REMARK   11  A    between atoms: C_24  and  C_25
REMARK   12  A    between atoms: C_25  and  C_26
REMARK   13  A    between atoms: C_26  and  O_28
REMARK                            x       y       z     vdW  Elec       q    Type
REMARK                         _______ _______ _______ _____ _____    ______ ____
ROOT
ATOM      1  C   UNL     1       6.752   6.427  17.340  0.00  0.00    +0.000 C 
ENDROOT
BRANCH   1   2
ATOM      2  C   UNL     1       5.957   5.999  16.035  0.00  0.00    +0.000 C 
ATOM      3  C   UNL     1       5.030   7.159  15.610  0.00  0.00    +0.000 C 
ATOM      4  C   UNL     1       7.030   5.721  14.954  0.00  0.00    +0.000 C 
BRANCH   2   5
ATOM      5  C   UNL     1       5.120   4.715  16.325  0.00  0.00    +0.000 C 
ATOM      6  O   UNL     1       5.008   3.844  15.454  0.00  0.00    +0.000 OA
ATOM      7  N   UNL     1       4.503   4.516  17.561  0.00  0.00    +0.000 N 
ATOM      8  C   UNL     1       3.977   3.181  17.877  0.00  0.00    +0.000 C 
ATOM      9  C   UNL     1       2.460   3.204  18.054  0.00  0.00    +0.000 C 
ATOM     10  C   UNL     1       1.995   4.271  19.066  0.00  0.00    +0.000 C 
ATOM     11  C   UNL     1       2.615   5.626  18.676  0.00  0.00    +0.000 C 
ATOM     12  C   UNL     1       4.137   5.533  18.542  0.00  0.00    +0.000 C 
BRANCH  10  13
ATOM     13  C   UNL     1       2.341   3.932  20.530  0.00  0.00    +0.000 C 
BRANCH  13  14
ATOM     14  C   UNL     1       1.346   3.002  21.188  0.00  0.00    +0.000 C 
ATOM     15  O   UNL     1       1.489   2.499  22.289  0.00  0.00    +0.000 OA
BRANCH  14  16
ATOM     16  O   UNL     1       0.276   2.744  20.406  0.00  0.00    +0.000 OA
ATOM     17  H   UNL     1      -0.576   3.044  20.767  0.00  0.00    +0.000 HD
ENDBRANCH  14  16
ENDBRANCH  13  14
ENDBRANCH  10  13
ENDBRANCH   2   5
ENDBRANCH   1   2
BRANCH   1  18
ATOM     18  C   UNL     1       7.166   7.879  17.411  0.00  0.00    +0.000 C 
ATOM     19  C   UNL     1       8.124   8.341  18.231  0.00  0.00    +0.000 C 
BRANCH  19  20
ATOM     20  C   UNL     1       8.545   9.735  18.171  0.00  0.00    +0.000 A 
ATOM     21  C   UNL     1       9.663  10.168  18.889  0.00  0.00    +0.000 A 
ATOM     22  C   UNL     1      10.025  11.518  18.874  0.00  0.00    +0.000 A 
ATOM     23  C   UNL     1       9.268  12.439  18.138  0.00  0.00    +0.000 A 
ATOM     24  C   UNL     1       8.152  12.004  17.416  0.00  0.00    +0.000 A 
ATOM     25  C   UNL     1       7.795  10.654  17.430  0.00  0.00    +0.000 A 
BRANCH  23  26
ATOM     26  C   UNL     1       9.632  13.883  18.159  0.00  0.00    +0.000 C 
ATOM     27  N   UNL     1      10.177  14.488  17.151  0.00  0.00    +0.000 NA
ATOM     28  N   UNL     1       9.382  14.644  19.261  0.00  0.00    +0.000 N 
ATOM     29  H   UNL     1      10.371  13.840  16.385  0.00  0.00    +0.000 HD
ATOM     30  H   UNL     1       8.535  14.424  19.772  0.00  0.00    +0.000 HD
ATOM     31  H   UNL     1       9.461  15.632  19.039  0.00  0.00    +0.000 HD
ENDBRANCH  23  26
ENDBRANCH  19  20
ENDBRANCH   1  18
BRANCH   1  32
ATOM     32  O   UNL     1       7.970   5.640  17.387  0.00  0.00    +0.000 OA
BRANCH  32  34
ATOM     33  C   UNL     1       7.729   5.316  19.741  0.00  0.00    +0.000 C 
ATOM     34  C   UNL     1       7.999   4.643  18.408  0.00  0.00    +0.000 C 
ENDBRANCH  32  34
ENDBRANCH   1  32
TORSDOF 10
ENDMDL
MODEL 2
REMARK VINA RESULT:      -7.0      4.322      7.373
REMARK  Name = 
REMARK  13 active torsions:
REMARK  status: ('A' for Active; 'I' for Inactive)
REMARK    1  A    between atoms: C_1  and  C_2
REMARK    2  A    between atoms: C_2  and  O_3
REMARK    3  A    between atoms: O_3  and  C_4
REMARK    4  A    between atoms: C_4  and  C_5
REMARK    5  A    between atoms: C_4  and  C_16
REMARK    6  A    between atoms: C_6  and  C_7
REMARK    7  A    between atoms: C_10  and  C_11
REMARK    8  A    between atoms: C_16  and  C_17
REMARK    9  A    between atoms: C_16  and  C_18
REMARK   10  A    between atoms: C_16  and  C_19
REMARK   11  A    between atoms: C_24  and  C_25
REMARK   12  A    between atoms: C_25  and  C_26
REMARK   13  A    between atoms: C_26  and  O_28
REMARK                            x       y       z     vdW  Elec       q    Type
REMARK                         _______ _______ _______ _____ _____    ______ ____
ROOT
ATOM      1  C   UNL     1       2.821   3.876  18.491  0.00  0.00    +0.000 C 
ENDROOT
BRANCH   1   2
ATOM      2  C   UNL     1       4.099   3.264  19.205  0.00  0.00    +0.000 C 
ATOM      3  C   UNL     1       3.892   3.316  20.734  0.00  0.00    +0.000 C 
ATOM      4  C   UNL     1       4.205   1.801  18.708  0.00  0.00    +0.000 C 
BRANCH   2   5
ATOM      5  C   UNL     1       5.368   4.077  18.801  0.00  0.00    +0.000 C 
ATOM      6  O   UNL     1       5.950   4.767  19.646  0.00  0.00    +0.000 OA
ATOM      7  N   UNL     1       5.875   4.031  17.501  0.00  0.00    +0.000 N 
ATOM      8  C   UNL     1       7.216   4.576  17.251  0.00  0.00    +0.000 C 
ATOM      9  C   UNL     1       7.165   5.774  16.303  0.00  0.00    +0.000 C 
ATOM     10  C   UNL     1       6.404   5.466  14.997  0.00  0.00    +0.000 C 
ATOM     11  C   UNL     1       5.028   4.874  15.354  0.00  0.00    +0.000 C 
ATOM     12  C   UNL     1       5.158   3.665  16.284  0.00  0.00    +0.000 C 
BRANCH  10  13
ATOM     13  C   UNL     1       7.160   4.516  14.046  0.00  0.00    +0.000 C 
BRANCH  13  14
ATOM     14  C   UNL     1       7.786   5.217  12.861  0.00  0.00    +0.000 C 
ATOM     15  O   UNL     1       7.416   5.093  11.706  0.00  0.00    +0.000 OA
BRANCH  14  16
ATOM     16  O   UNL     1       8.844   5.982  13.206  0.00  0.00    +0.000 OA
ATOM     17  H   UNL     1       9.557   5.509  13.668  0.00  0.00    +0.000 HD
ENDBRANCH  14  16
ENDBRANCH  13  14
ENDBRANCH  10  13
ENDBRANCH   2   5
ENDBRANCH   1   2
BRANCH   1  18
ATOM     18  C   UNL     1       2.405   5.254  18.956  0.00  0.00    +0.000 C 
ATOM     19  C   UNL     1       2.661   6.380  18.269  0.00  0.00    +0.000 C 
BRANCH  19  20
ATOM     20  C   UNL     1       2.138   7.662  18.725  0.00  0.00    +0.000 A 
ATOM     21  C   UNL     1       1.694   7.817  20.041  0.00  0.00    +0.000 A 
ATOM     22  C   UNL     1       1.139   9.031  20.454  0.00  0.00    +0.000 A 
ATOM     23  C   UNL     1       1.029  10.096  19.550  0.00  0.00    +0.000 A 
ATOM     24  C   UNL     1       1.479   9.942  18.234  0.00  0.00    +0.000 A 
ATOM     25  C   UNL     1       2.036   8.728  17.826  0.00  0.00    +0.000 A 
BRANCH  23  26
ATOM     26  C   UNL     1       0.399  11.374  19.982  0.00  0.00    +0.000 C 
ATOM     27  N   UNL     1       1.049  12.493  20.054  0.00  0.00    +0.000 NA
ATOM     28  N   UNL     1      -0.924  11.418  20.308  0.00  0.00    +0.000 N 
ATOM     29  H   UNL     1       2.039  12.365  19.837  0.00  0.00    +0.000 HD
ATOM     30  H   UNL     1      -1.536  10.817  19.770  0.00  0.00    +0.000 HD
ATOM     31  H   UNL     1      -1.250  12.379  20.346  0.00  0.00    +0.000 HD
ENDBRANCH  23  26
ENDBRANCH  19  20
ENDBRANCH   1  18
BRANCH   1  32
ATOM     32  O   UNL     1       1.704   2.989  18.757  0.00  0.00    +0.000 OA
BRANCH  32  34
ATOM     33  C   UNL     1       0.839   2.855  20.980  0.00  0.00    +0.000 C 
ATOM     34  C   UNL     1       0.707   3.527  19.625  0.00  0.00    +0.000 C 
ENDBRANCH  32  34
ENDBRANCH   1  32
TORSDOF 10
ENDMDL
MODEL 3
REMARK VINA RESULT:      -7.0      0.757      1.254
REMARK  Name = 
REMARK  13 active torsions:
REMARK  status: ('A' for Active; 'I' for Inactive)
REMARK    1  A    between atoms: C_1  and  C_2
REMARK    2  A    between atoms: C_2  and  O_3
REMARK    3  A    between atoms: O_3  and  C_4
REMARK    4  A    between atoms: C_4  and  C_5
REMARK    5  A    between atoms: C_4  and  C_16
REMARK    6  A    between atoms: C_6  and  C_7
REMARK    7  A    between atoms: C_10  and  C_11
REMARK    8  A    between atoms: C_16  and  C_17
REMARK    9  A    between atoms: C_16  and  C_18
REMARK   10  A    between atoms: C_16  and  C_19
REMARK   11  A    between atoms: C_24  and  C_25
REMARK   12  A    between atoms: C_25  and  C_26
REMARK   13  A    between atoms: C_26  and  O_28
REMARK                            x       y       z     vdW  Elec       q    Type
REMARK                         _______ _______ _______ _____ _____    ______ ____
ROOT
ATOM      1  C   UNL     1       6.436   6.620  17.513  0.00  0.00    +0.000 C 
ENDROOT
BRANCH   1   2
ATOM      2  C   UNL     1       5.153   6.421  16.602  0.00  0.00    +0.000 C 
ATOM      3  C   UNL     1       3.974   7.206  17.219  0.00  0.00    +0.000 C 
ATOM      4  C   UNL     1       5.527   6.985  15.210  0.00  0.00    +0.000 C 
BRANCH   2   5
ATOM      5  C   UNL     1       4.804   4.904  16.508  0.00  0.00    +0.000 C 
ATOM      6  O   UNL     1       5.045   4.281  15.467  0.00  0.00    +0.000 OA
ATOM      7  N   UNL     1       4.235   4.222  17.585  0.00  0.00    +0.000 N 
ATOM      8  C   UNL     1       4.194   2.754  17.545  0.00  0.00    +0.000 C 
ATOM      9  C   UNL     1       2.758   2.234  17.527  0.00  0.00    +0.000 C 
ATOM     10  C   UNL     1       1.901   2.814  18.671  0.00  0.00    +0.000 C 
ATOM     11  C   UNL     1       2.026   4.349  18.656  0.00  0.00    +0.000 C 
ATOM     12  C   UNL     1       3.490   4.795  18.702  0.00  0.00    +0.000 C 
BRANCH  10  13
ATOM     13  C   UNL     1       2.272   2.265  20.064  0.00  0.00    +0.000 C 
BRANCH  13  14
ATOM     14  C   UNL     1       1.361   2.751  21.169  0.00  0.00    +0.000 C 
ATOM     15  O   UNL     1       1.507   2.495  22.352  0.00  0.00    +0.000 OA
BRANCH  14  16
ATOM     16  O   UNL     1       0.323   3.481  20.708  0.00  0.00    +0.000 OA
ATOM     17  H   UNL     1       0.493   3.951  19.873  0.00  0.00    +0.000 HD
ENDBRANCH  14  16
ENDBRANCH  13  14
ENDBRANCH  10  13
ENDBRANCH   2   5
ENDBRANCH   1   2
BRANCH   1  18
ATOM     18  C   UNL     1       6.965   8.034  17.605  0.00  0.00    +0.000 C 
ATOM     19  C   UNL     1       8.048   8.379  18.321  0.00  0.00    +0.000 C 
BRANCH  19  20
ATOM     20  C   UNL     1       8.562   9.742  18.279  0.00  0.00    +0.000 A 
ATOM     21  C   UNL     1       7.913  10.720  17.521  0.00  0.00    +0.000 A 
ATOM     22  C   UNL     1       8.445  12.009  17.438  0.00  0.00    +0.000 A 
ATOM     23  C   UNL     1       9.630  12.324  18.115  0.00  0.00    +0.000 A 
ATOM     24  C   UNL     1      10.277  11.346  18.879  0.00  0.00    +0.000 A 
ATOM     25  C   UNL     1       9.740  10.060  18.963  0.00  0.00    +0.000 A 
BRANCH  23  26
ATOM     26  C   UNL     1      10.217  13.687  17.990  0.00  0.00    +0.000 C 
ATOM     27  N   UNL     1      10.642  14.172  16.866  0.00  0.00    +0.000 NA
ATOM     28  N   UNL     1      10.313  14.502  19.078  0.00  0.00    +0.000 N 
ATOM     29  H   UNL     1      10.575  13.484  16.113  0.00  0.00    +0.000 HD
ATOM     30  H   UNL     1       9.559  14.438  19.752  0.00  0.00    +0.000 HD
ATOM     31  H   UNL     1      10.504  15.458  18.792  0.00  0.00    +0.000 HD
ENDBRANCH  23  26
ENDBRANCH  19  20
ENDBRANCH   1  18
BRANCH   1  32
ATOM     32  O   UNL     1       7.501   5.809  16.951  0.00  0.00    +0.000 OA
BRANCH  32  34
ATOM     33  C   UNL     1       7.451   4.923  19.169  0.00  0.00    +0.000 C 
ATOM     34  C   UNL     1       7.858   4.667  17.729  0.00  0.00    +0.000 C 
ENDBRANCH  32  34
ENDBRANCH   1  32
TORSDOF 10
ENDMDL
MODEL 4
REMARK VINA RESULT:      -6.9      7.602     10.065
REMARK  Name = 
REMARK  13 active torsions:
REMARK  status: ('A' for Active; 'I' for Inactive)
REMARK    1  A    between atoms: C_1  and  C_2
REMARK    2  A    between atoms: C_2  and  O_3
REMARK    3  A    between atoms: O_3  and  C_4
REMARK    4  A    between atoms: C_4  and  C_5
REMARK    5  A    between atoms: C_4  and  C_16
REMARK    6  A    between atoms: C_6  and  C_7
REMARK    7  A    between atoms: C_10  and  C_11
REMARK    8  A    between atoms: C_16  and  C_17
REMARK    9  A    between atoms: C_16  and  C_18
REMARK   10  A    between atoms: C_16  and  C_19
REMARK   11  A    between atoms: C_24  and  C_25
REMARK   12  A    between atoms: C_25  and  C_26
REMARK   13  A    between atoms: C_26  and  O_28
REMARK                            x       y       z     vdW  Elec       q    Type
REMARK                         _______ _______ _______ _____ _____    ______ ____
ROOT
ATOM      1  C   UNL     1       0.154  10.289  19.192  0.00  0.00    +0.000 C 
ENDROOT
BRANCH   1   2
ATOM      2  C   UNL     1       0.750  11.721  19.529  0.00  0.00    +0.000 C 
ATOM      3  C   UNL     1       1.523  11.640  20.864  0.00  0.00    +0.000 C 
ATOM      4  C   UNL     1       1.700  12.074  18.358  0.00  0.00    +0.000 C 
BRANCH   2   5
ATOM      5  C   UNL     1      -0.407  12.761  19.634  0.00  0.00    +0.000 C 
ATOM      6  O   UNL     1      -0.423  13.741  18.880  0.00  0.00    +0.000 OA
ATOM      7  N   UNL     1      -1.443  12.603  20.556  0.00  0.00    +0.000 N 
ATOM      8  C   UNL     1      -2.640  13.444  20.419  0.00  0.00    +0.000 C 
ATOM      9  C   UNL     1      -2.819  14.365  21.625  0.00  0.00    +0.000 C 
ATOM     10  C   UNL     1      -2.788  13.602  22.966  0.00  0.00    +0.000 C 
ATOM     11  C   UNL     1      -1.521  12.728  23.009  0.00  0.00    +0.000 C 
ATOM     12  C   UNL     1      -1.422  11.815  21.785  0.00  0.00    +0.000 C 
BRANCH  10  13
ATOM     13  C   UNL     1      -4.039  12.735  23.215  0.00  0.00    +0.000 C 
BRANCH  13  14
ATOM     14  C   UNL     1      -5.151  13.468  23.933  0.00  0.00    +0.000 C 
ATOM     15  O   UNL     1      -5.404  14.652  23.795  0.00  0.00    +0.000 OA
BRANCH  14  16
ATOM     16  O   UNL     1      -5.829  12.676  24.791  0.00  0.00    +0.000 OA
ATOM     17  H   UNL     1      -5.286  12.269  25.488  0.00  0.00    +0.000 HD
ENDBRANCH  14  16
ENDBRANCH  13  14
ENDBRANCH  10  13
ENDBRANCH   2   5
ENDBRANCH   1   2
BRANCH   1  18
ATOM     18  C   UNL     1       1.123   9.133  19.295  0.00  0.00    +0.000 C 
ATOM     19  C   UNL     1       1.632   8.491  18.230  0.00  0.00    +0.000 C 
BRANCH  19  20
ATOM     20  C   UNL     1       2.642   7.454  18.401  0.00  0.00    +0.000 A 
ATOM     21  C   UNL     1       3.689   7.329  17.485  0.00  0.00    +0.000 A 
ATOM     22  C   UNL     1       4.619   6.295  17.622  0.00  0.00    +0.000 A 
ATOM     23  C   UNL     1       4.505   5.383  18.679  0.00  0.00    +0.000 A 
ATOM     24  C   UNL     1       3.459   5.512  19.600  0.00  0.00    +0.000 A 
ATOM     25  C   UNL     1       2.533   6.549  19.462  0.00  0.00    +0.000 A 
BRANCH  23  26
ATOM     26  C   UNL     1       5.473   4.258  18.797  0.00  0.00    +0.000 C 
ATOM     27  N   UNL     1       5.186   3.138  19.382  0.00  0.00    +0.000 NA
ATOM     28  N   UNL     1       6.723   4.362  18.264  0.00  0.00    +0.000 N 
ATOM     29  H   UNL     1       4.249   3.159  19.791  0.00  0.00    +0.000 HD
ATOM     30  H   UNL     1       6.796   4.880  17.397  0.00  0.00    +0.000 HD
ATOM     31  H   UNL     1       7.167   3.449  18.215  0.00  0.00    +0.000 HD
ENDBRANCH  23  26
ENDBRANCH  19  20
ENDBRANCH   1  18
BRANCH   1  32
ATOM     32  O   UNL     1      -0.314  10.324  17.819  0.00  0.00    +0.000 OA
BRANCH  32  34
ATOM     33  C   UNL     1      -2.360  11.185  16.936  0.00  0.00    +0.000 C 
ATOM     34  C   UNL     1      -1.698  10.021  17.651  0.00  0.00    +0.000 C 
ENDBRANCH  32  34
ENDBRANCH   1  32
TORSDOF 10
ENDMDL
MODEL 5
REMARK VINA RESULT:      -6.9      4.187      7.251
REMARK  Name = 
REMARK  13 active torsions:
REMARK  status: ('A' for Active; 'I' for Inactive)
REMARK    1  A    between atoms: C_1  and  C_2
REMARK    2  A    between atoms: C_2  and  O_3
REMARK    3  A    between atoms: O_3  and  C_4
REMARK    4  A    between atoms: C_4  and  C_5
REMARK    5  A    between atoms: C_4  and  C_16
REMARK    6  A    between atoms: C_6  and  C_7
REMARK    7  A    between atoms: C_10  and  C_11
REMARK    8  A    between atoms: C_16  and  C_17
REMARK    9  A    between atoms: C_16  and  C_18
REMARK   10  A    between atoms: C_16  and  C_19
REMARK   11  A    between atoms: C_24  and  C_25
REMARK   12  A    between atoms: C_25  and  C_26
REMARK   13  A    between atoms: C_26  and  O_28
REMARK                            x       y       z     vdW  Elec       q    Type
REMARK                         _______ _______ _______ _____ _____    ______ ____
ROOT
ATOM      1  C   UNL     1       2.277   3.869  19.548  0.00  0.00    +0.000 C 
ENDROOT
BRANCH   1   2
ATOM      2  C   UNL     1       3.211   3.260  18.419  0.00  0.00    +0.000 C 
ATOM      3  C   UNL     1       3.429   1.758  18.705  0.00  0.00    +0.000 C 
ATOM      4  C   UNL     1       2.457   3.468  17.083  0.00  0.00    +0.000 C 
BRANCH   2   5
ATOM      5  C   UNL     1       4.578   4.012  18.404  0.00  0.00    +0.000 C 
ATOM      6  O   UNL     1       4.966   4.602  19.419  0.00  0.00    +0.000 OA
ATOM      7  N   UNL     1       5.387   4.022  17.267  0.00  0.00    +0.000 N 
ATOM      8  C   UNL     1       6.773   4.492  17.395  0.00  0.00    +0.000 C 
ATOM      9  C   UNL     1       7.015   5.753  16.566  0.00  0.00    +0.000 C 
ATOM     10  C   UNL     1       6.586   5.587  15.093  0.00  0.00    +0.000 C 
ATOM     11  C   UNL     1       5.138   5.064  15.055  0.00  0.00    +0.000 C 
ATOM     12  C   UNL     1       4.977   3.788  15.886  0.00  0.00    +0.000 C 
BRANCH  10  13
ATOM     13  C   UNL     1       7.507   4.656  14.279  0.00  0.00    +0.000 C 
BRANCH  13  14
ATOM     14  C   UNL     1       8.077   5.303  13.036  0.00  0.00    +0.000 C 
ATOM     15  O   UNL     1       8.954   6.150  13.034  0.00  0.00    +0.000 OA
BRANCH  14  16
ATOM     16  O   UNL     1       7.482   4.872  11.904  0.00  0.00    +0.000 OA
ATOM     17  H   UNL     1       6.550   5.131  11.807  0.00  0.00    +0.000 HD
ENDBRANCH  14  16
ENDBRANCH  13  14
ENDBRANCH  10  13
ENDBRANCH   2   5
ENDBRANCH   1   2
BRANCH   1  18
ATOM     18  C   UNL     1       1.806   5.287  19.316  0.00  0.00    +0.000 C 
ATOM     19  C   UNL     1       2.333   6.357  19.935  0.00  0.00    +0.000 C 
BRANCH  19  20
ATOM     20  C   UNL     1       1.901   7.704  19.585  0.00  0.00    +0.000 A 
ATOM     21  C   UNL     1       2.175   8.229  18.319  0.00  0.00    +0.000 A 
ATOM     22  C   UNL     1       1.811   9.542  18.012  0.00  0.00    +0.000 A 
ATOM     23  C   UNL     1       1.168  10.336  18.971  0.00  0.00    +0.000 A 
ATOM     24  C   UNL     1       0.888   9.808  20.236  0.00  0.00    +0.000 A 
ATOM     25  C   UNL     1       1.251   8.494  20.539  0.00  0.00    +0.000 A 
BRANCH  23  26
ATOM     26  C   UNL     1       0.820  11.748  18.653  0.00  0.00    +0.000 C 
ATOM     27  N   UNL     1       1.640  12.563  18.069  0.00  0.00    +0.000 NA
ATOM     28  N   UNL     1      -0.414  12.241  18.956  0.00  0.00    +0.000 N 
ATOM     29  H   UNL     1       2.554  12.130  17.918  0.00  0.00    +0.000 HD
ATOM     30  H   UNL     1      -1.188  11.595  18.864  0.00  0.00    +0.000 HD
ATOM     31  H   UNL     1      -0.576  13.119  18.472  0.00  0.00    +0.000 HD
ENDBRANCH  23  26
ENDBRANCH  19  20
ENDBRANCH   1  18
BRANCH   1  32
ATOM     32  O   UNL     1       3.035   3.875  20.786  0.00  0.00    +0.000 OA
BRANCH  32  34
ATOM     33  C   UNL     1       1.067   2.668  21.399  0.00  0.00    +0.000 C 
ATOM     34  C   UNL     1       2.412   3.190  21.871  0.00  0.00    +0.000 C 
ENDBRANCH  32  34
ENDBRANCH   1  32
TORSDOF 10
ENDMDL
MODEL 6
REMARK VINA RESULT:      -6.8      7.136     10.551
REMARK  Name = 
REMARK  13 active torsions:
REMARK  status: ('A' for Active; 'I' for Inactive)
REMARK    1  A    between atoms: C_1  and  C_2
REMARK    2  A    between atoms: C_2  and  O_3
REMARK    3  A    between atoms: O_3  and  C_4
REMARK    4  A    between atoms: C_4  and  C_5
REMARK    5  A    between atoms: C_4  and  C_16
REMARK    6  A    between atoms: C_6  and  C_7
REMARK    7  A    between atoms: C_10  and  C_11
REMARK    8  A    between atoms: C_16  and  C_17
REMARK    9  A    between atoms: C_16  and  C_18
REMARK   10  A    between atoms: C_16  and  C_19
REMARK   11  A    between atoms: C_24  and  C_25
REMARK   12  A    between atoms: C_25  and  C_26
REMARK   13  A    between atoms: C_26  and  O_28
REMARK                            x       y       z     vdW  Elec       q    Type
REMARK                         _______ _______ _______ _____ _____    ______ ____
ROOT
ATOM      1  C   UNL     1       1.107   9.514  20.402  0.00  0.00    +0.000 C 
ENDROOT
BRANCH   1   2
ATOM      2  C   UNL     1       0.564  10.102  19.032  0.00  0.00    +0.000 C 
ATOM      3  C   UNL     1       1.091   9.232  17.869  0.00  0.00    +0.000 C 
ATOM      4  C   UNL     1      -0.980  10.034  19.120  0.00  0.00    +0.000 C 
BRANCH   2   5
ATOM      5  C   UNL     1       1.043  11.577  18.866  0.00  0.00    +0.000 C 
ATOM      6  O   UNL     1       2.157  11.811  18.384  0.00  0.00    +0.000 OA
ATOM      7  N   UNL     1       0.230  12.649  19.236  0.00  0.00    +0.000 N 
ATOM      8  C   UNL     1       0.605  14.000  18.798  0.00  0.00    +0.000 C 
ATOM      9  C   UNL     1       0.925  14.906  19.986  0.00  0.00    +0.000 C 
ATOM     10  C   UNL     1      -0.201  14.923  21.041  0.00  0.00    +0.000 C 
ATOM     11  C   UNL     1      -0.549  13.471  21.418  0.00  0.00    +0.000 C 
ATOM     12  C   UNL     1      -0.882  12.632  20.181  0.00  0.00    +0.000 C 
BRANCH  10  13
ATOM     13  C   UNL     1      -1.470  15.670  20.582  0.00  0.00    +0.000 C 
BRANCH  13  14
ATOM     14  C   UNL     1      -1.188  17.023  19.966  0.00  0.00    +0.000 C 
ATOM     15  O   UNL     1      -0.731  17.979  20.569  0.00  0.00    +0.000 OA
BRANCH  14  16
ATOM     16  O   UNL     1      -1.533  17.084  18.662  0.00  0.00    +0.000 OA
ATOM     17  H   UNL     1      -1.777  17.971  18.345  0.00  0.00    +0.000 HD
ENDBRANCH  14  16
ENDBRANCH  13  14
ENDBRANCH  10  13
ENDBRANCH   2   5
ENDBRANCH   1   2
BRANCH   1  18
ATOM     18  C   UNL     1       1.870   8.212  20.302  0.00  0.00    +0.000 C 
ATOM     19  C   UNL     1       1.328   7.010  20.555  0.00  0.00    +0.000 C 
BRANCH  19  20
ATOM     20  C   UNL     1       2.094   5.789  20.337  0.00  0.00    +0.000 A 
ATOM     21  C   UNL     1       3.232   5.804  19.527  0.00  0.00    +0.000 A 
ATOM     22  C   UNL     1       3.926   4.618  19.274  0.00  0.00    +0.000 A 
ATOM     23  C   UNL     1       3.483   3.412  19.833  0.00  0.00    +0.000 A 
ATOM     24  C   UNL     1       2.347   3.399  20.649  0.00  0.00    +0.000 A 
ATOM     25  C   UNL     1       1.657   4.586  20.902  0.00  0.00    +0.000 A 
BRANCH  23  26
ATOM     26  C   UNL     1       4.202   2.144  19.527  0.00  0.00    +0.000 C 
ATOM     27  N   UNL     1       5.154   1.675  20.270  0.00  0.00    +0.000 NA
ATOM     28  N   UNL     1       3.860   1.401  18.437  0.00  0.00    +0.000 N 
ATOM     29  H   UNL     1       5.377   2.311  21.038  0.00  0.00    +0.000 HD
ATOM     30  H   UNL     1       2.877   1.387  18.197  0.00  0.00    +0.000 HD
ATOM     31  H   UNL     1       4.264   0.471  18.498  0.00  0.00    +0.000 HD
ENDBRANCH  23  26
ENDBRANCH  19  20
ENDBRANCH   1  18
BRANCH   1  32
ATOM     32  O   UNL     1      -0.041   9.263  21.254  0.00  0.00    +0.000 OA
BRANCH  32  34
ATOM     33  C   UNL     1      -0.979  10.364  23.155  0.00  0.00    +0.000 C 
ATOM     34  C   UNL     1       0.176   9.524  22.640  0.00  0.00    +0.000 C 
ENDBRANCH  32  34
ENDBRANCH   1  32
TORSDOF 10
ENDMDL
MODEL 7
REMARK VINA RESULT:      -6.8      6.833      9.712
REMARK  Name = 
REMARK  13 active torsions:
REMARK  status: ('A' for Active; 'I' for Inactive)
REMARK    1  A    between atoms: C_1  and  C_2
REMARK    2  A    between atoms: C_2  and  O_3
REMARK    3  A    between atoms: O_3  and  C_4
REMARK    4  A    between atoms: C_4  and  C_5
REMARK    5  A    between atoms: C_4  and  C_16
REMARK    6  A    between atoms: C_6  and  C_7
REMARK    7  A    between atoms: C_10  and  C_11
REMARK    8  A    between atoms: C_16  and  C_17
REMARK    9  A    between atoms: C_16  and  C_18
REMARK   10  A    between atoms: C_16  and  C_19
REMARK   11  A    between atoms: C_24  and  C_25
REMARK   12  A    between atoms: C_25  and  C_26
REMARK   13  A    between atoms: C_26  and  O_28
REMARK                            x       y       z     vdW  Elec       q    Type
REMARK                         _______ _______ _______ _____ _____    ______ ____
ROOT
ATOM      1  C   UNL     1       0.369  11.305  19.743  0.00  0.00    +0.000 C 
ENDROOT
BRANCH   1   2
ATOM      2  C   UNL     1      -0.547  11.584  21.008  0.00  0.00    +0.000 C 
ATOM      3  C   UNL     1      -0.535  10.338  21.921  0.00  0.00    +0.000 C 
ATOM      4  C   UNL     1       0.079  12.805  21.727  0.00  0.00    +0.000 C 
BRANCH   2   5
ATOM      5  C   UNL     1      -2.001  11.904  20.545  0.00  0.00    +0.000 C 
ATOM      6  O   UNL     1      -2.846  12.263  21.374  0.00  0.00    +0.000 OA
ATOM      7  N   UNL     1      -2.372  11.810  19.203  0.00  0.00    +0.000 N 
ATOM      8  C   UNL     1      -3.655  12.391  18.785  0.00  0.00    +0.000 C 
ATOM      9  C   UNL     1      -4.614  11.320  18.268  0.00  0.00    +0.000 C 
ATOM     10  C   UNL     1      -3.984  10.440  17.169  0.00  0.00    +0.000 C 
ATOM     11  C   UNL     1      -2.635   9.899  17.679  0.00  0.00    +0.000 C 
ATOM     12  C   UNL     1      -1.719  11.029  18.157  0.00  0.00    +0.000 C 
BRANCH  10  13
ATOM     13  C   UNL     1      -3.788  11.170  15.825  0.00  0.00    +0.000 C 
BRANCH  13  14
ATOM     14  C   UNL     1      -3.540  10.238  14.659  0.00  0.00    +0.000 C 
ATOM     15  O   UNL     1      -2.438   9.930  14.239  0.00  0.00    +0.000 OA
BRANCH  14  16
ATOM     16  O   UNL     1      -4.682   9.800  14.089  0.00  0.00    +0.000 OA
ATOM     17  H   UNL     1      -5.484   9.938  14.621  0.00  0.00    +0.000 HD
ENDBRANCH  14  16
ENDBRANCH  13  14
ENDBRANCH  10  13
ENDBRANCH   2   5
ENDBRANCH   1   2
BRANCH   1  18
ATOM     18  C   UNL     1       1.067   9.964  19.721  0.00  0.00    +0.000 C 
ATOM     19  C   UNL     1       1.480   9.358  18.595  0.00  0.00    +0.000 C 
BRANCH  19  20
ATOM     20  C   UNL     1       2.240   8.116  18.656  0.00  0.00    +0.000 A 
ATOM     21  C   UNL     1       2.120   7.267  19.759  0.00  0.00    +0.000 A 
ATOM     22  C   UNL     1       2.896   6.108  19.838  0.00  0.00    +0.000 A 
ATOM     23  C   UNL     1       3.796   5.794  18.811  0.00  0.00    +0.000 A 
ATOM     24  C   UNL     1       3.911   6.642  17.703  0.00  0.00    +0.000 A 
ATOM     25  C   UNL     1       3.131   7.797  17.626  0.00  0.00    +0.000 A 
BRANCH  23  26
ATOM     26  C   UNL     1       4.652   4.580  18.919  0.00  0.00    +0.000 C 
ATOM     27  N   UNL     1       5.913   4.630  19.212  0.00  0.00    +0.000 NA
ATOM     28  N   UNL     1       4.121   3.340  18.726  0.00  0.00    +0.000 N 
ATOM     29  H   UNL     1       6.240   5.595  19.297  0.00  0.00    +0.000 HD
ATOM     30  H   UNL     1       3.172   3.205  19.052  0.00  0.00    +0.000 HD
ATOM     31  H   UNL     1       4.758   2.623  19.064  0.00  0.00    +0.000 HD
ENDBRANCH  23  26
ENDBRANCH  19  20
ENDBRANCH   1  18
BRANCH   1  32
ATOM     32  O   UNL     1       1.407  12.319  19.723  0.00  0.00    +0.000 OA
BRANCH  32  34
ATOM     33  C   UNL     1       2.982  13.366  18.264  0.00  0.00    +0.000 C 
ATOM     34  C   UNL     1       1.518  13.036  18.493  0.00  0.00    +0.000 C 
ENDBRANCH  32  34
ENDBRANCH   1  32
TORSDOF 10
ENDMDL
MODEL 8
REMARK VINA RESULT:      -6.8      7.699     10.097
REMARK  Name = 
REMARK  13 active torsions:
REMARK  status: ('A' for Active; 'I' for Inactive)
REMARK    1  A    between atoms: C_1  and  C_2
REMARK    2  A    between atoms: C_2  and  O_3
REMARK    3  A    between atoms: O_3  and  C_4
REMARK    4  A    between atoms: C_4  and  C_5
REMARK    5  A    between atoms: C_4  and  C_16
REMARK    6  A    between atoms: C_6  and  C_7
REMARK    7  A    between atoms: C_10  and  C_11
REMARK    8  A    between atoms: C_16  and  C_17
REMARK    9  A    between atoms: C_16  and  C_18
REMARK   10  A    between atoms: C_16  and  C_19
REMARK   11  A    between atoms: C_24  and  C_25
REMARK   12  A    between atoms: C_25  and  C_26
REMARK   13  A    between atoms: C_26  and  O_28
REMARK                            x       y       z     vdW  Elec       q    Type
REMARK                         _______ _______ _______ _____ _____    ______ ____
ROOT
ATOM      1  C   UNL     1      -0.001  10.436  19.230  0.00  0.00    +0.000 C 
ENDROOT
BRANCH   1   2
ATOM      2  C   UNL     1       0.609  11.860  19.573  0.00  0.00    +0.000 C 
ATOM      3  C   UNL     1       1.444  11.750  20.867  0.00  0.00    +0.000 C 
ATOM      4  C   UNL     1       1.500  12.244  18.366  0.00  0.00    +0.000 C 
BRANCH   2   5
ATOM      5  C   UNL     1      -0.543  12.895  19.758  0.00  0.00    +0.000 C 
ATOM      6  O   UNL     1      -0.598  13.892  19.028  0.00  0.00    +0.000 OA
ATOM      7  N   UNL     1      -1.532  12.714  20.727  0.00  0.00    +0.000 N 
ATOM      8  C   UNL     1      -2.736  13.554  20.668  0.00  0.00    +0.000 C 
ATOM      9  C   UNL     1      -2.856  14.447  21.902  0.00  0.00    +0.000 C 
ATOM     10  C   UNL     1      -2.758  13.655  23.221  0.00  0.00    +0.000 C 
ATOM     11  C   UNL     1      -1.489  12.784  23.183  0.00  0.00    +0.000 C 
ATOM     12  C   UNL     1      -1.450  11.899  21.935  0.00  0.00    +0.000 C 
BRANCH  10  13
ATOM     13  C   UNL     1      -3.994  12.779  23.513  0.00  0.00    +0.000 C 
BRANCH  13  14
ATOM     14  C   UNL     1      -5.294  13.552  23.528  0.00  0.00    +0.000 C 
ATOM     15  O   UNL     1      -6.249  13.319  22.807  0.00  0.00    +0.000 OA
BRANCH  14  16
ATOM     16  O   UNL     1      -5.284  14.573  24.411  0.00  0.00    +0.000 OA
ATOM     17  H   UNL     1      -4.419  14.999  24.535  0.00  0.00    +0.000 HD
ENDBRANCH  14  16
ENDBRANCH  13  14
ENDBRANCH  10  13
ENDBRANCH   2   5
ENDBRANCH   1   2
BRANCH   1  18
ATOM     18  C   UNL     1       0.961   9.272  19.313  0.00  0.00    +0.000 C 
ATOM     19  C   UNL     1       1.494   8.669  18.238  0.00  0.00    +0.000 C 
BRANCH  19  20
ATOM     20  C   UNL     1       2.496   7.622  18.395  0.00  0.00    +0.000 A 
ATOM     21  C   UNL     1       2.428   6.734  19.471  0.00  0.00    +0.000 A 
ATOM     22  C   UNL     1       3.424   5.770  19.648  0.00  0.00    +0.000 A 
ATOM     23  C   UNL     1       4.493   5.692  18.745  0.00  0.00    +0.000 A 
ATOM     24  C   UNL     1       4.558   6.578  17.664  0.00  0.00    +0.000 A 
ATOM     25  C   UNL     1       3.558   7.537  17.489  0.00  0.00    +0.000 A 
BRANCH  23  26
ATOM     26  C   UNL     1       5.575   4.692  18.961  0.00  0.00    +0.000 C 
ATOM     27  N   UNL     1       6.811   5.023  19.165  0.00  0.00    +0.000 NA
ATOM     28  N   UNL     1       5.294   3.359  18.971  0.00  0.00    +0.000 N 
ATOM     29  H   UNL     1       6.944   6.034  19.099  0.00  0.00    +0.000 HD
ATOM     30  H   UNL     1       4.401   3.094  19.370  0.00  0.00    +0.000 HD
ATOM     31  H   UNL     1       6.070   2.833  19.361  0.00  0.00    +0.000 HD
ENDBRANCH  23  26
ENDBRANCH  19  20
ENDBRANCH   1  18
BRANCH   1  32
ATOM     32  O   UNL     1      -0.483  10.485  17.862  0.00  0.00    +0.000 OA
BRANCH  32  34
ATOM     33  C   UNL     1      -2.295   9.800  16.465  0.00  0.00    +0.000 C 
ATOM     34  C   UNL     1      -1.903  10.540  17.731  0.00  0.00    +0.000 C 
ENDBRANCH  32  34
ENDBRANCH   1  32
TORSDOF 10
ENDMDL
MODEL 9
REMARK VINA RESULT:      -6.8      6.896     10.373
REMARK  Name = 
REMARK  13 active torsions:
REMARK  status: ('A' for Active; 'I' for Inactive)
REMARK    1  A    between atoms: C_1  and  C_2
REMARK    2  A    between atoms: C_2  and  O_3
REMARK    3  A    between atoms: O_3  and  C_4
REMARK    4  A    between atoms: C_4  and  C_5
REMARK    5  A    between atoms: C_4  and  C_16
REMARK    6  A    between atoms: C_6  and  C_7
REMARK    7  A    between atoms: C_10  and  C_11
REMARK    8  A    between atoms: C_16  and  C_17
REMARK    9  A    between atoms: C_16  and  C_18
REMARK   10  A    between atoms: C_16  and  C_19
REMARK   11  A    between atoms: C_24  and  C_25
REMARK   12  A    between atoms: C_25  and  C_26
REMARK   13  A    between atoms: C_26  and  O_28
REMARK                            x       y       z     vdW  Elec       q    Type
REMARK                         _______ _______ _______ _____ _____    ______ ____
ROOT
ATOM      1  C   UNL     1       1.204   9.486  20.327  0.00  0.00    +0.000 C 
ENDROOT
BRANCH   1   2
ATOM      2  C   UNL     1       0.662  10.134  18.984  0.00  0.00    +0.000 C 
ATOM      3  C   UNL     1       1.092   9.251  17.792  0.00  0.00    +0.000 C 
ATOM      4  C   UNL     1      -0.880  10.171  19.120  0.00  0.00    +0.000 C 
BRANCH   2   5
ATOM      5  C   UNL     1       1.236  11.576  18.826  0.00  0.00    +0.000 C 
ATOM      6  O   UNL     1       2.295  11.752  18.213  0.00  0.00    +0.000 OA
ATOM      7  N   UNL     1       0.568  12.684  19.350  0.00  0.00    +0.000 N 
ATOM      8  C   UNL     1       0.995  14.025  18.930  0.00  0.00    +0.000 C 
ATOM      9  C   UNL     1       1.538  14.834  20.107  0.00  0.00    +0.000 C 
ATOM     10  C   UNL     1       0.561  14.877  21.300  0.00  0.00    +0.000 C 
ATOM     11  C   UNL     1       0.145  13.436  21.651  0.00  0.00    +0.000 C 
ATOM     12  C   UNL     1      -0.412  12.697  20.432  0.00  0.00    +0.000 C 
BRANCH  10  13
ATOM     13  C   UNL     1      -0.690  15.743  21.048  0.00  0.00    +0.000 C 
BRANCH  13  14
ATOM     14  C   UNL     1      -1.529  15.971  22.286  0.00  0.00    +0.000 C 
ATOM     15  O   UNL     1      -2.713  15.695  22.383  0.00  0.00    +0.000 OA
BRANCH  14  16
ATOM     16  O   UNL     1      -0.837  16.558  23.285  0.00  0.00    +0.000 OA
ATOM     17  H   UNL     1      -0.312  17.333  23.019  0.00  0.00    +0.000 HD
ENDBRANCH  14  16
ENDBRANCH  13  14
ENDBRANCH  10  13
ENDBRANCH   2   5
ENDBRANCH   1   2
BRANCH   1  18
ATOM     18  C   UNL     1       1.915   8.161  20.177  0.00  0.00    +0.000 C 
ATOM     19  C   UNL     1       1.405   6.990  20.593  0.00  0.00    +0.000 C 
BRANCH  19  20
ATOM     20  C   UNL     1       2.100   5.738  20.321  0.00  0.00    +0.000 A 
ATOM     21  C   UNL     1       3.282   5.733  19.577  0.00  0.00    +0.000 A 
ATOM     22  C   UNL     1       3.910   4.523  19.269  0.00  0.00    +0.000 A 
ATOM     23  C   UNL     1       3.357   3.313  19.708  0.00  0.00    +0.000 A 
ATOM     24  C   UNL     1       2.176   3.319  20.458  0.00  0.00    +0.000 A 
ATOM     25  C   UNL     1       1.552   4.530  20.766  0.00  0.00    +0.000 A 
BRANCH  23  26
ATOM     26  C   UNL     1       4.006   2.024  19.342  0.00  0.00    +0.000 C 
ATOM     27  N   UNL     1       3.621   1.299  18.340  0.00  0.00    +0.000 NA
ATOM     28  N   UNL     1       5.070   1.558  20.055  0.00  0.00    +0.000 N 
ATOM     29  H   UNL     1       2.794   1.695  17.887  0.00  0.00    +0.000 HD
ATOM     30  H   UNL     1       5.711   2.258  20.408  0.00  0.00    +0.000 HD
ATOM     31  H   UNL     1       5.540   0.813  19.549  0.00  0.00    +0.000 HD
ENDBRANCH  23  26
ENDBRANCH  19  20
ENDBRANCH   1  18
BRANCH   1  32
ATOM     32  O   UNL     1       0.062   9.254  21.192  0.00  0.00    +0.000 OA
BRANCH  32  34
ATOM     33  C   UNL     1      -0.991  10.239  23.096  0.00  0.00    +0.000 C 
ATOM     34  C   UNL     1       0.272   9.588  22.563  0.00  0.00    +0.000 C 
ENDBRANCH  32  34
ENDBRANCH   1  32
TORSDOF 10
ENDMDL
