MODEL 1
REMARK VINA RESULT:     -10.3      0.000      0.000
REMARK  Name = 
REMARK  4 active torsions:
REMARK  status: ('A' for Active; 'I' for Inactive)
REMARK    1  A    between atoms: N_3  and  C_4
REMARK    2  A    between atoms: N_12  and  C_13
REMARK    3  A    between atoms: C_18  and  C_19
REMARK    4  A    between atoms: C_25  and  C_26
REMARK                            x       y       z     vdW  Elec       q    Type
REMARK                         _______ _______ _______ _____ _____    ______ ____
ROOT
ATOM      1  C   UNL     1       6.416   6.776  17.100  0.00  0.00    +0.000 A 
ATOM      2  C   UNL     1       7.101   5.628  16.670  0.00  0.00    +0.000 A 
ATOM      3  C   UNL     1       6.552   4.355  16.769  0.00  0.00    +0.000 A 
ATOM      4  C   UNL     1       5.296   4.175  17.338  0.00  0.00    +0.000 A 
ATOM      5  C   UNL     1       4.588   5.285  17.850  0.00  0.00    +0.000 A 
ATOM      6  C   UNL     1       3.329   5.429  18.550  0.00  0.00    +0.000 A 
ATOM      7  C   UNL     1       3.194   6.788  18.869  0.00  0.00    +0.000 A 
ATOM      8  N   UNL     1       4.213   7.429  18.190  0.00  0.00    +0.000 N 
ATOM      9  C   UNL     1       5.150   6.555  17.694  0.00  0.00    +0.000 A 
ATOM     10  H   UNL     1       4.291   8.431  18.131  0.00  0.00    +0.000 HD
ENDROOT
BRANCH   7  11
ATOM     11  C   UNL     1       2.175   7.504  19.635  0.00  0.00    +0.000 C 
ATOM     12  O   UNL     1       1.762   7.090  20.717  0.00  0.00    +0.000 OA
ATOM     13  N   UNL     1       1.622   8.684  19.127  0.00  0.00    +0.000 N 
ATOM     14  C   UNL     1       1.918   9.355  17.859  0.00  0.00    +0.000 C 
ATOM     15  C   UNL     1       2.061  10.871  18.030  0.00  0.00    +0.000 C 
ATOM     16  O   UNL     1       0.947  11.435  18.730  0.00  0.00    +0.000 OA
ATOM     17  C   UNL     1       0.827  10.841  20.032  0.00  0.00    +0.000 C 
ATOM     18  C   UNL     1       0.560   9.340  19.907  0.00  0.00    +0.000 C 
ENDBRANCH   7  11
BRANCH   1  22
ATOM     19  O   UNL     1       8.492   8.040  18.727  0.00  0.00    +0.000 OA
ATOM     20  C   UNL     1       7.908   8.644  17.838  0.00  0.00    +0.000 C 
ATOM     21  N   UNL     1       8.108   9.988  17.572  0.00  0.00    +0.000 N 
ATOM     22  N   UNL     1       6.959   8.083  16.995  0.00  0.00    +0.000 N 
ATOM     23  H   UNL     1       7.444  10.454  16.968  0.00  0.00    +0.000 HD
ATOM     24  H   UNL     1       6.692   8.627  16.191  0.00  0.00    +0.000 HD
BRANCH  21  25
ATOM     25  C   UNL     1       8.964  10.854  18.299  0.00  0.00    +0.000 A 
ATOM     26  C   UNL     1       9.772  10.448  19.372  0.00  0.00    +0.000 A 
ATOM     27  C   UNL     1      10.533  11.380  20.082  0.00  0.00    +0.000 A 
ATOM     28  C   UNL     1      10.509  12.720  19.705  0.00  0.00    +0.000 A 
ATOM     29  F   UNL     1      11.219  13.611  20.408  0.00  0.00    +0.000 F 
ATOM     30  C   UNL     1       9.749  13.142  18.628  0.00  0.00    +0.000 A 
ATOM     31  C   UNL     1       8.990  12.207  17.930  0.00  0.00    +0.000 A 
ATOM     32  F   UNL     1       8.241  12.617  16.895  0.00  0.00    +0.000 F 
ENDBRANCH  21  25
ENDBRANCH   1  22
BRANCH   6  33
ATOM     33  C   UNL     1       2.412   4.345  18.947  0.00  0.00    +0.000 A 
ATOM     34  C   UNL     1       2.430   3.831  20.254  0.00  0.00    +0.000 A 
ATOM     35  C   UNL     1       1.601   2.764  20.626  0.00  0.00    +0.000 A 
ATOM     36  C   UNL     1       0.695   2.232  19.715  0.00  0.00    +0.000 A 
ATOM     37  C   UNL     1       0.658   2.730  18.420  0.00  0.00    +0.000 A 
ATOM     38  C   UNL     1       1.544   3.740  18.031  0.00  0.00    +0.000 A 
ENDBRANCH   6  33
TORSDOF 4
ENDMDL
MODEL 2
REMARK VINA RESULT:      -9.5      0.928      1.100
REMARK  Name = 
REMARK  4 active torsions:
REMARK  status: ('A' for Active; 'I' for Inactive)
REMARK    1  A    between atoms: N_3  and  C_4
REMARK    2  A    between atoms: N_12  and  C_13
REMARK    3  A    between atoms: C_18  and  C_19
REMARK    4  A    between atoms: C_25  and  C_26
REMARK                            x       y       z     vdW  Elec       q    Type
REMARK                         _______ _______ _______ _____ _____    ______ ____
ROOT
ATOM      1  C   UNL     1       6.478   6.788  17.240  0.00  0.00    +0.000 A 
ATOM      2  C   UNL     1       7.156   5.637  16.808  0.00  0.00    +0.000 A 
ATOM      3  C   UNL     1       6.584   4.372  16.870  0.00  0.00    +0.000 A 
ATOM      4  C   UNL     1       5.310   4.202  17.402  0.00  0.00    +0.000 A 
ATOM      5  C   UNL     1       4.607   5.314  17.914  0.00  0.00    +0.000 A 
ATOM      6  C   UNL     1       3.332   5.466  18.582  0.00  0.00    +0.000 A 
ATOM      7  C   UNL     1       3.209   6.823  18.922  0.00  0.00    +0.000 A 
ATOM      8  N   UNL     1       4.257   7.458  18.281  0.00  0.00    +0.000 N 
ATOM      9  C   UNL     1       5.192   6.577  17.796  0.00  0.00    +0.000 A 
ATOM     10  H   UNL     1       4.352   8.460  18.242  0.00  0.00    +0.000 HD
ENDROOT
BRANCH   7  11
ATOM     11  C   UNL     1       2.182   7.542  19.673  0.00  0.00    +0.000 C 
ATOM     12  O   UNL     1       1.784   7.152  20.769  0.00  0.00    +0.000 OA
ATOM     13  N   UNL     1       1.603   8.695  19.133  0.00  0.00    +0.000 N 
ATOM     14  C   UNL     1       1.878   9.333  17.843  0.00  0.00    +0.000 C 
ATOM     15  C   UNL     1       1.993  10.856  17.967  0.00  0.00    +0.000 C 
ATOM     16  O   UNL     1       0.872  11.419  18.658  0.00  0.00    +0.000 OA
ATOM     17  C   UNL     1       0.772  10.863  19.978  0.00  0.00    +0.000 C 
ATOM     18  C   UNL     1       0.533   9.354  19.900  0.00  0.00    +0.000 C 
ENDBRANCH   7  11
BRANCH   1  22
ATOM     19  O   UNL     1       8.875   7.819  18.560  0.00  0.00    +0.000 OA
ATOM     20  C   UNL     1       8.158   8.531  17.871  0.00  0.00    +0.000 C 
ATOM     21  N   UNL     1       8.359   9.892  17.717  0.00  0.00    +0.000 N 
ATOM     22  N   UNL     1       7.044   8.087  17.172  0.00  0.00    +0.000 N 
ATOM     23  H   UNL     1       7.613  10.436  17.306  0.00  0.00    +0.000 HD
ATOM     24  H   UNL     1       6.652   8.724  16.498  0.00  0.00    +0.000 HD
BRANCH  21  25
ATOM     25  C   UNL     1       9.373  10.654  18.353  0.00  0.00    +0.000 A 
ATOM     26  C   UNL     1      10.437  11.272  17.679  0.00  0.00    +0.000 A 
ATOM     27  C   UNL     1      11.434  11.944  18.389  0.00  0.00    +0.000 A 
ATOM     28  C   UNL     1      11.358  12.024  19.776  0.00  0.00    +0.000 A 
ATOM     29  F   UNL     1      12.332  12.646  20.452  0.00  0.00    +0.000 F 
ATOM     30  C   UNL     1      10.300  11.454  20.465  0.00  0.00    +0.000 A 
ATOM     31  C   UNL     1       9.314  10.782  19.749  0.00  0.00    +0.000 A 
ATOM     32  F   UNL     1       8.296  10.216  20.415  0.00  0.00    +0.000 F 
ENDBRANCH  21  25
ENDBRANCH   1  22
BRANCH   6  33
ATOM     33  C   UNL     1       2.388   4.391  18.935  0.00  0.00    +0.000 A 
ATOM     34  C   UNL     1       2.347   3.869  20.239  0.00  0.00    +0.000 A 
ATOM     35  C   UNL     1       1.493   2.809  20.571  0.00  0.00    +0.000 A 
ATOM     36  C   UNL     1       0.617   2.294  19.621  0.00  0.00    +0.000 A 
ATOM     37  C   UNL     1       0.637   2.801  18.329  0.00  0.00    +0.000 A 
ATOM     38  C   UNL     1       1.549   3.802  17.982  0.00  0.00    +0.000 A 
ENDBRANCH   6  33
TORSDOF 4
ENDMDL
MODEL 3
REMARK VINA RESULT:      -9.4      4.515      9.213
REMARK  Name = 
REMARK  4 active torsions:
REMARK  status: ('A' for Active; 'I' for Inactive)
REMARK    1  A    between atoms: N_3  and  C_4
REMARK    2  A    between atoms: N_12  and  C_13
REMARK    3  A    between atoms: C_18  and  C_19
REMARK    4  A    between atoms: C_25  and  C_26
REMARK                            x       y       z     vdW  Elec       q    Type
REMARK                         _______ _______ _______ _____ _____    ______ ____
ROOT
ATOM      1  C   UNL     1       0.218  10.161  18.845  0.00  0.00    +0.000 A 
ATOM      2  C   UNL     1      -1.077   9.966  18.339  0.00  0.00    +0.000 A 
ATOM      3  C   UNL     1      -1.933  11.024  18.061  0.00  0.00    +0.000 A 
ATOM      4  C   UNL     1      -1.534  12.334  18.310  0.00  0.00    +0.000 A 
ATOM      5  C   UNL     1      -0.268  12.589  18.881  0.00  0.00    +0.000 A 
ATOM      6  C   UNL     1       0.404  13.793  19.321  0.00  0.00    +0.000 A 
ATOM      7  C   UNL     1       1.630  13.395  19.876  0.00  0.00    +0.000 A 
ATOM      8  N   UNL     1       1.756  12.054  19.567  0.00  0.00    +0.000 N 
ATOM      9  C   UNL     1       0.584  11.504  19.107  0.00  0.00    +0.000 A 
ATOM     10  H   UNL     1       2.599  11.528  19.731  0.00  0.00    +0.000 HD
ENDROOT
BRANCH   7  11
ATOM     11  C   UNL     1       2.681  14.160  20.546  0.00  0.00    +0.000 C 
ATOM     12  O   UNL     1       2.765  14.217  21.771  0.00  0.00    +0.000 OA
ATOM     13  N   UNL     1       3.611  14.877  19.787  0.00  0.00    +0.000 N 
ATOM     14  C   UNL     1       3.699  14.997  18.329  0.00  0.00    +0.000 C 
ATOM     15  C   UNL     1       5.139  14.858  17.826  0.00  0.00    +0.000 C 
ATOM     16  O   UNL     1       6.034  15.729  18.527  0.00  0.00    +0.000 OA
ATOM     17  C   UNL     1       6.014  15.434  19.932  0.00  0.00    +0.000 C 
ATOM     18  C   UNL     1       4.616  15.678  20.505  0.00  0.00    +0.000 C 
ENDBRANCH   7  11
BRANCH   1  22
ATOM     19  O   UNL     1       2.162   8.882  17.075  0.00  0.00    +0.000 OA
ATOM     20  C   UNL     1       1.971   8.490  18.218  0.00  0.00    +0.000 C 
ATOM     21  N   UNL     1       2.584   7.369  18.751  0.00  0.00    +0.000 N 
ATOM     22  N   UNL     1       1.108   9.091  19.123  0.00  0.00    +0.000 N 
ATOM     23  H   UNL     1       2.218   6.998  19.618  0.00  0.00    +0.000 HD
ATOM     24  H   UNL     1       1.179   8.791  20.081  0.00  0.00    +0.000 HD
BRANCH  21  25
ATOM     25  C   UNL     1       3.468   6.503  18.058  0.00  0.00    +0.000 A 
ATOM     26  C   UNL     1       4.687   6.907  17.493  0.00  0.00    +0.000 A 
ATOM     27  C   UNL     1       5.466   6.006  16.764  0.00  0.00    +0.000 A 
ATOM     28  C   UNL     1       5.042   4.689  16.617  0.00  0.00    +0.000 A 
ATOM     29  F   UNL     1       5.780   3.838  15.893  0.00  0.00    +0.000 F 
ATOM     30  C   UNL     1       3.860   4.254  17.194  0.00  0.00    +0.000 A 
ATOM     31  C   UNL     1       3.088   5.160  17.914  0.00  0.00    +0.000 A 
ATOM     32  F   UNL     1       1.936   4.745  18.461  0.00  0.00    +0.000 F 
ENDBRANCH  21  25
ENDBRANCH   1  22
BRANCH   6  33
ATOM     33  C   UNL     1      -0.135  15.164  19.290  0.00  0.00    +0.000 A 
ATOM     34  C   UNL     1      -0.944  15.642  20.334  0.00  0.00    +0.000 A 
ATOM     35  C   UNL     1      -1.507  16.925  20.289  0.00  0.00    +0.000 A 
ATOM     36  C   UNL     1      -1.220  17.776  19.227  0.00  0.00    +0.000 A 
ATOM     37  C   UNL     1      -0.417  17.325  18.188  0.00  0.00    +0.000 A 
ATOM     38  C   UNL     1       0.075  16.016  18.200  0.00  0.00    +0.000 A 
ENDBRANCH   6  33
TORSDOF 4
ENDMDL
MODEL 4
REMARK VINA RESULT:      -9.2      4.810      9.696
REMARK  Name = 
REMARK  4 active torsions:
REMARK  status: ('A' for Active; 'I' for Inactive)
REMARK    1  A    between atoms: N_3  and  C_4
REMARK    2  A    between atoms: N_12  and  C_13
REMARK    3  A    between atoms: C_18  and  C_19
REMARK    4  A    between atoms: C_25  and  C_26
REMARK                            x       y       z     vdW  Elec       q    Type
REMARK                         _______ _______ _______ _____ _____    ______ ____
ROOT
ATOM      1  C   UNL     1       0.467   9.999  21.946  0.00  0.00    +0.000 A 
ATOM      2  C   UNL     1      -0.558  10.061  22.903  0.00  0.00    +0.000 A 
ATOM      3  C   UNL     1      -1.346  11.192  23.075  0.00  0.00    +0.000 A 
ATOM      4  C   UNL     1      -1.116  12.331  22.310  0.00  0.00    +0.000 A 
ATOM      5  C   UNL     1      -0.055  12.351  21.378  0.00  0.00    +0.000 A 
ATOM      6  C   UNL     1       0.485  13.370  20.503  0.00  0.00    +0.000 A 
ATOM      7  C   UNL     1       1.601  12.808  19.864  0.00  0.00    +0.000 A 
ATOM      8  N   UNL     1       1.570  11.464  20.184  0.00  0.00    +0.000 N 
ATOM      9  C   UNL     1       0.689  11.182  21.200  0.00  0.00    +0.000 A 
ATOM     10  H   UNL     1       2.181  10.783  19.762  0.00  0.00    +0.000 HD
ENDROOT
BRANCH   7  11
ATOM     11  C   UNL     1       2.578  13.385  18.942  0.00  0.00    +0.000 C 
ATOM     12  O   UNL     1       2.611  13.077  17.751  0.00  0.00    +0.000 OA
ATOM     13  N   UNL     1       3.528  14.296  19.414  0.00  0.00    +0.000 N 
ATOM     14  C   UNL     1       3.715  14.789  20.781  0.00  0.00    +0.000 C 
ATOM     15  C   UNL     1       3.954  16.302  20.820  0.00  0.00    +0.000 C 
ATOM     16  O   UNL     1       4.994  16.699  19.919  0.00  0.00    +0.000 OA
ATOM     17  C   UNL     1       4.656  16.327  18.575  0.00  0.00    +0.000 C 
ATOM     18  C   UNL     1       4.527  14.807  18.462  0.00  0.00    +0.000 C 
ENDBRANCH   7  11
BRANCH   1  22
ATOM     19  O   UNL     1       1.037   8.553  19.469  0.00  0.00    +0.000 OA
ATOM     20  C   UNL     1       1.458   8.172  20.552  0.00  0.00    +0.000 C 
ATOM     21  N   UNL     1       2.164   6.994  20.723  0.00  0.00    +0.000 N 
ATOM     22  N   UNL     1       1.272   8.847  21.751  0.00  0.00    +0.000 N 
ATOM     23  H   UNL     1       2.293   6.654  21.667  0.00  0.00    +0.000 HD
ATOM     24  H   UNL     1       1.823   8.533  22.534  0.00  0.00    +0.000 HD
BRANCH  21  25
ATOM     25  C   UNL     1       2.459   6.053  19.703  0.00  0.00    +0.000 A 
ATOM     26  C   UNL     1       3.435   6.243  18.713  0.00  0.00    +0.000 A 
ATOM     27  C   UNL     1       3.613   5.297  17.701  0.00  0.00    +0.000 A 
ATOM     28  C   UNL     1       2.834   4.144  17.689  0.00  0.00    +0.000 A 
ATOM     29  F   UNL     1       2.992   3.256  16.700  0.00  0.00    +0.000 F 
ATOM     30  C   UNL     1       1.889   3.915  18.675  0.00  0.00    +0.000 A 
ATOM     31  C   UNL     1       1.715   4.865  19.676  0.00  0.00    +0.000 A 
ATOM     32  F   UNL     1       0.789   4.652  20.623  0.00  0.00    +0.000 F 
ENDBRANCH  21  25
ENDBRANCH   1  22
BRANCH   6  33
ATOM     33  C   UNL     1       0.021  14.764  20.381  0.00  0.00    +0.000 A 
ATOM     34  C   UNL     1      -0.417  15.269  19.146  0.00  0.00    +0.000 A 
ATOM     35  C   UNL     1      -0.808  16.608  19.006  0.00  0.00    +0.000 A 
ATOM     36  C   UNL     1      -0.828  17.449  20.114  0.00  0.00    +0.000 A 
ATOM     37  C   UNL     1      -0.405  16.966  21.345  0.00  0.00    +0.000 A 
ATOM     38  C   UNL     1       0.061  15.653  21.461  0.00  0.00    +0.000 A 
ENDBRANCH   6  33
TORSDOF 4
ENDMDL
MODEL 5
REMARK VINA RESULT:      -9.2      4.507      9.651
REMARK  Name = 
REMARK  4 active torsions:
REMARK  status: ('A' for Active; 'I' for Inactive)
REMARK    1  A    between atoms: N_3  and  C_4
REMARK    2  A    between atoms: N_12  and  C_13
REMARK    3  A    between atoms: C_18  and  C_19
REMARK    4  A    between atoms: C_25  and  C_26
REMARK                            x       y       z     vdW  Elec       q    Type
REMARK                         _______ _______ _______ _____ _____    ______ ____
ROOT
ATOM      1  C   UNL     1       9.676  10.831  19.062  0.00  0.00    +0.000 A 
ATOM      2  C   UNL     1      10.100  11.505  17.906  0.00  0.00    +0.000 A 
ATOM      3  C   UNL     1      10.347  12.872  17.891  0.00  0.00    +0.000 A 
ATOM      4  C   UNL     1      10.145  13.634  19.038  0.00  0.00    +0.000 A 
ATOM      5  C   UNL     1       9.654  13.023  20.213  0.00  0.00    +0.000 A 
ATOM      6  C   UNL     1       9.276  13.527  21.516  0.00  0.00    +0.000 A 
ATOM      7  C   UNL     1       8.787  12.434  22.248  0.00  0.00    +0.000 A 
ATOM      8  N   UNL     1       9.079  11.319  21.486  0.00  0.00    +0.000 N 
ATOM      9  C   UNL     1       9.459  11.639  20.205  0.00  0.00    +0.000 A 
ATOM     10  H   UNL     1       8.955  10.377  21.818  0.00  0.00    +0.000 HD
ENDROOT
BRANCH   7  11
ATOM     11  C   UNL     1       8.194  12.353  23.582  0.00  0.00    +0.000 C 
ATOM     12  O   UNL     1       8.790  11.845  24.530  0.00  0.00    +0.000 OA
ATOM     13  N   UNL     1       6.901  12.841  23.801  0.00  0.00    +0.000 N 
ATOM     14  C   UNL     1       5.984  13.452  22.836  0.00  0.00    +0.000 C 
ATOM     15  C   UNL     1       5.293  14.694  23.406  0.00  0.00    +0.000 C 
ATOM     16  O   UNL     1       4.694  14.433  24.680  0.00  0.00    +0.000 OA
ATOM     17  C   UNL     1       5.690  13.997  25.617  0.00  0.00    +0.000 C 
ATOM     18  C   UNL     1       6.324  12.687  25.146  0.00  0.00    +0.000 C 
ENDBRANCH   7  11
BRANCH   1  22
ATOM     19  O   UNL     1       7.783   9.259  17.482  0.00  0.00    +0.000 OA
ATOM     20  C   UNL     1       8.475   8.753  18.354  0.00  0.00    +0.000 C 
ATOM     21  N   UNL     1       8.373   7.425  18.733  0.00  0.00    +0.000 N 
ATOM     22  N   UNL     1       9.431   9.434  19.095  0.00  0.00    +0.000 N 
ATOM     23  H   UNL     1       8.827   7.143  19.591  0.00  0.00    +0.000 HD
ATOM     24  H   UNL     1      10.059   8.870  19.645  0.00  0.00    +0.000 HD
BRANCH  21  25
ATOM     25  C   UNL     1       7.446   6.487  18.210  0.00  0.00    +0.000 A 
ATOM     26  C   UNL     1       7.041   6.441  16.868  0.00  0.00    +0.000 A 
ATOM     27  C   UNL     1       6.067   5.531  16.450  0.00  0.00    +0.000 A 
ATOM     28  C   UNL     1       5.513   4.644  17.368  0.00  0.00    +0.000 A 
ATOM     29  F   UNL     1       4.561   3.793  16.965  0.00  0.00    +0.000 F 
ATOM     30  C   UNL     1       5.920   4.644  18.691  0.00  0.00    +0.000 A 
ATOM     31  C   UNL     1       6.886   5.558  19.099  0.00  0.00    +0.000 A 
ATOM     32  F   UNL     1       7.271   5.569  20.385  0.00  0.00    +0.000 F 
ENDBRANCH  21  25
ENDBRANCH   1  22
BRANCH   6  33
ATOM     33  C   UNL     1       9.300  14.933  21.958  0.00  0.00    +0.000 A 
ATOM     34  C   UNL     1       8.439  15.881  21.383  0.00  0.00    +0.000 A 
ATOM     35  C   UNL     1       8.491  17.231  21.756  0.00  0.00    +0.000 A 
ATOM     36  C   UNL     1       9.363  17.646  22.757  0.00  0.00    +0.000 A 
ATOM     37  C   UNL     1      10.218  16.722  23.343  0.00  0.00    +0.000 A 
ATOM     38  C   UNL     1      10.218  15.392  22.909  0.00  0.00    +0.000 A 
ENDBRANCH   6  33
TORSDOF 4
ENDMDL
MODEL 6
REMARK VINA RESULT:      -9.1      1.256      1.636
REMARK  Name = 
REMARK  4 active torsions:
REMARK  status: ('A' for Active; 'I' for Inactive)
REMARK    1  A    between atoms: N_3  and  C_4
REMARK    2  A    between atoms: N_12  and  C_13
REMARK    3  A    between atoms: C_18  and  C_19
REMARK    4  A    between atoms: C_25  and  C_26
REMARK                            x       y       z     vdW  Elec       q    Type
REMARK                         _______ _______ _______ _____ _____    ______ ____
ROOT
ATOM      1  C   UNL     1       6.887   7.112  17.634  0.00  0.00    +0.000 A 
ATOM      2  C   UNL     1       7.635   5.953  17.898  0.00  0.00    +0.000 A 
ATOM      3  C   UNL     1       7.037   4.748  18.247  0.00  0.00    +0.000 A 
ATOM      4  C   UNL     1       5.655   4.662  18.379  0.00  0.00    +0.000 A 
ATOM      5  C   UNL     1       4.856   5.811  18.190  0.00  0.00    +0.000 A 
ATOM      6  C   UNL     1       3.439   6.072  18.320  0.00  0.00    +0.000 A 
ATOM      7  C   UNL     1       3.252   7.441  18.070  0.00  0.00    +0.000 A 
ATOM      8  N   UNL     1       4.469   7.898  17.600  0.00  0.00    +0.000 N 
ATOM      9  C   UNL     1       5.485   6.995  17.797  0.00  0.00    +0.000 A 
ATOM     10  H   UNL     1       4.601   8.821  17.220  0.00  0.00    +0.000 HD
ENDROOT
BRANCH   7  11
ATOM     11  C   UNL     1       2.058   8.281  18.137  0.00  0.00    +0.000 C 
ATOM     12  O   UNL     1       1.435   8.610  17.129  0.00  0.00    +0.000 OA
ATOM     13  N   UNL     1       1.609   8.756  19.373  0.00  0.00    +0.000 N 
ATOM     14  C   UNL     1       2.192   8.536  20.699  0.00  0.00    +0.000 C 
ATOM     15  C   UNL     1       1.125   8.210  21.750  0.00  0.00    +0.000 C 
ATOM     16  O   UNL     1       0.061   9.169  21.743  0.00  0.00    +0.000 OA
ATOM     17  C   UNL     1      -0.568   9.203  20.453  0.00  0.00    +0.000 C 
ATOM     18  C   UNL     1       0.435   9.645  19.386  0.00  0.00    +0.000 C 
ENDBRANCH   7  11
BRANCH   1  22
ATOM     19  O   UNL     1       8.734   8.789  19.159  0.00  0.00    +0.000 OA
ATOM     20  C   UNL     1       8.312   9.124  18.061  0.00  0.00    +0.000 C 
ATOM     21  N   UNL     1       8.594  10.347  17.477  0.00  0.00    +0.000 N 
ATOM     22  N   UNL     1       7.482   8.346  17.265  0.00  0.00    +0.000 N 
ATOM     23  H   UNL     1       8.044  10.625  16.675  0.00  0.00    +0.000 HD
ATOM     24  H   UNL     1       7.358   8.649  16.313  0.00  0.00    +0.000 HD
BRANCH  21  25
ATOM     25  C   UNL     1       9.359  11.387  18.066  0.00  0.00    +0.000 A 
ATOM     26  C   UNL     1      10.525  11.179  18.818  0.00  0.00    +0.000 A 
ATOM     27  C   UNL     1      11.180  12.253  19.425  0.00  0.00    +0.000 A 
ATOM     28  C   UNL     1      10.685  13.544  19.262  0.00  0.00    +0.000 A 
ATOM     29  F   UNL     1      11.302  14.565  19.871  0.00  0.00    +0.000 F 
ATOM     30  C   UNL     1       9.555  13.781  18.497  0.00  0.00    +0.000 A 
ATOM     31  C   UNL     1       8.908  12.704  17.900  0.00  0.00    +0.000 A 
ATOM     32  F   UNL     1       7.804  12.930  17.170  0.00  0.00    +0.000 F 
ENDBRANCH  21  25
ENDBRANCH   1  22
BRANCH   6  33
ATOM     33  C   UNL     1       2.400   5.113  18.736  0.00  0.00    +0.000 A 
ATOM     34  C   UNL     1       1.969   5.054  20.071  0.00  0.00    +0.000 A 
ATOM     35  C   UNL     1       1.023   4.109  20.489  0.00  0.00    +0.000 A 
ATOM     36  C   UNL     1       0.443   3.246  19.565  0.00  0.00    +0.000 A 
ATOM     37  C   UNL     1       0.850   3.293  18.239  0.00  0.00    +0.000 A 
ATOM     38  C   UNL     1       1.854   4.183  17.844  0.00  0.00    +0.000 A 
ENDBRANCH   6  33
TORSDOF 4
ENDMDL
MODEL 7
REMARK VINA RESULT:      -8.9      4.374      9.457
REMARK  Name = 
REMARK  4 active torsions:
REMARK  status: ('A' for Active; 'I' for Inactive)
REMARK    1  A    between atoms: N_3  and  C_4
REMARK    2  A    between atoms: N_12  and  C_13
REMARK    3  A    between atoms: C_18  and  C_19
REMARK    4  A    between atoms: C_25  and  C_26
REMARK                            x       y       z     vdW  Elec       q    Type
REMARK                         _______ _______ _______ _____ _____    ______ ____
ROOT
ATOM      1  C   UNL     1       9.553  10.567  18.984  0.00  0.00    +0.000 A 
ATOM      2  C   UNL     1       9.950  11.210  17.800  0.00  0.00    +0.000 A 
ATOM      3  C   UNL     1      10.185  12.578  17.742  0.00  0.00    +0.000 A 
ATOM      4  C   UNL     1      10.000  13.371  18.869  0.00  0.00    +0.000 A 
ATOM      5  C   UNL     1       9.537  12.791  20.071  0.00  0.00    +0.000 A 
ATOM      6  C   UNL     1       9.181  13.329  21.366  0.00  0.00    +0.000 A 
ATOM      7  C   UNL     1       8.714  12.255  22.139  0.00  0.00    +0.000 A 
ATOM      8  N   UNL     1       9.000  11.121  21.403  0.00  0.00    +0.000 N 
ATOM      9  C   UNL     1       9.353  11.406  20.107  0.00  0.00    +0.000 A 
ATOM     10  H   UNL     1       8.890  10.187  21.765  0.00  0.00    +0.000 HD
ENDROOT
BRANCH   7  11
ATOM     11  C   UNL     1       8.148  12.209  23.487  0.00  0.00    +0.000 C 
ATOM     12  O   UNL     1       8.756  11.708  24.432  0.00  0.00    +0.000 OA
ATOM     13  N   UNL     1       6.868  12.721  23.722  0.00  0.00    +0.000 N 
ATOM     14  C   UNL     1       5.941  13.329  22.765  0.00  0.00    +0.000 C 
ATOM     15  C   UNL     1       5.282  14.593  23.326  0.00  0.00    +0.000 C 
ATOM     16  O   UNL     1       4.706  14.364  24.617  0.00  0.00    +0.000 OA
ATOM     17  C   UNL     1       5.714  13.930  25.541  0.00  0.00    +0.000 C 
ATOM     18  C   UNL     1       6.317  12.601  25.082  0.00  0.00    +0.000 C 
ENDBRANCH   7  11
BRANCH   1  22
ATOM     19  O   UNL     1       7.488   8.973  17.663  0.00  0.00    +0.000 OA
ATOM     20  C   UNL     1       8.283   8.478  18.450  0.00  0.00    +0.000 C 
ATOM     21  N   UNL     1       8.233   7.154  18.852  0.00  0.00    +0.000 N 
ATOM     22  N   UNL     1       9.320   9.170  19.061  0.00  0.00    +0.000 N 
ATOM     23  H   UNL     1       8.789   6.883  19.652  0.00  0.00    +0.000 HD
ATOM     24  H   UNL     1      10.012   8.614  19.537  0.00  0.00    +0.000 HD
BRANCH  21  25
ATOM     25  C   UNL     1       7.253   6.208  18.457  0.00  0.00    +0.000 A 
ATOM     26  C   UNL     1       6.383   5.556  19.344  0.00  0.00    +0.000 A 
ATOM     27  C   UNL     1       5.494   4.583  18.881  0.00  0.00    +0.000 A 
ATOM     28  C   UNL     1       5.454   4.275  17.525  0.00  0.00    +0.000 A 
ATOM     29  F   UNL     1       4.619   3.321  17.093  0.00  0.00    +0.000 F 
ATOM     30  C   UNL     1       6.277   4.928  16.623  0.00  0.00    +0.000 A 
ATOM     31  C   UNL     1       7.162   5.892  17.094  0.00  0.00    +0.000 A 
ATOM     32  F   UNL     1       7.972   6.516  16.223  0.00  0.00    +0.000 F 
ENDBRANCH  21  25
ENDBRANCH   1  22
BRANCH   6  33
ATOM     33  C   UNL     1       9.202  14.748  21.767  0.00  0.00    +0.000 A 
ATOM     34  C   UNL     1      10.090  15.201  22.757  0.00  0.00    +0.000 A 
ATOM     35  C   UNL     1      10.080  16.535  23.186  0.00  0.00    +0.000 A 
ATOM     36  C   UNL     1       9.226  17.455  22.588  0.00  0.00    +0.000 A 
ATOM     37  C   UNL     1       8.346  17.028  21.602  0.00  0.00    +0.000 A 
ATOM     38  C   UNL     1       8.303  15.679  21.237  0.00  0.00    +0.000 A 
ENDBRANCH   6  33
TORSDOF 4
ENDMDL
MODEL 8
REMARK VINA RESULT:      -8.8      4.374      9.352
REMARK  Name = 
REMARK  4 active torsions:
REMARK  status: ('A' for Active; 'I' for Inactive)
REMARK    1  A    between atoms: N_3  and  C_4
REMARK    2  A    between atoms: N_12  and  C_13
REMARK    3  A    between atoms: C_18  and  C_19
REMARK    4  A    between atoms: C_25  and  C_26
REMARK                            x       y       z     vdW  Elec       q    Type
REMARK                         _______ _______ _______ _____ _____    ______ ____
ROOT
ATOM      1  C   UNL     1       0.443  10.472  18.918  0.00  0.00    +0.000 A 
ATOM      2  C   UNL     1      -0.865  10.388  18.414  0.00  0.00    +0.000 A 
ATOM      3  C   UNL     1      -1.624  11.516  18.128  0.00  0.00    +0.000 A 
ATOM      4  C   UNL     1      -1.111  12.787  18.366  0.00  0.00    +0.000 A 
ATOM      5  C   UNL     1       0.174  12.933  18.934  0.00  0.00    +0.000 A 
ATOM      6  C   UNL     1       0.950  14.076  19.364  0.00  0.00    +0.000 A 
ATOM      7  C   UNL     1       2.137  13.576  19.922  0.00  0.00    +0.000 A 
ATOM      8  N   UNL     1       2.143  12.227  19.624  0.00  0.00    +0.000 N 
ATOM      9  C   UNL     1       0.927  11.780  19.169  0.00  0.00    +0.000 A 
ATOM     10  H   UNL     1       2.937  11.629  19.792  0.00  0.00    +0.000 HD
ENDROOT
BRANCH   7  11
ATOM     11  C   UNL     1       3.252  14.251  20.585  0.00  0.00    +0.000 C 
ATOM     12  O   UNL     1       3.315  14.355  21.809  0.00  0.00    +0.000 OA
ATOM     13  N   UNL     1       4.273  14.824  19.820  0.00  0.00    +0.000 N 
ATOM     14  C   UNL     1       4.404  14.865  18.362  0.00  0.00    +0.000 C 
ATOM     15  C   UNL     1       5.831  14.544  17.904  0.00  0.00    +0.000 C 
ATOM     16  O   UNL     1       6.802  15.342  18.589  0.00  0.00    +0.000 OA
ATOM     17  C   UNL     1       6.719  15.118  20.005  0.00  0.00    +0.000 C 
ATOM     18  C   UNL     1       5.345  15.541  20.529  0.00  0.00    +0.000 C 
ENDBRANCH   7  11
BRANCH   1  22
ATOM     19  O   UNL     1       1.872   8.717  17.067  0.00  0.00    +0.000 OA
ATOM     20  C   UNL     1       1.844   8.502  18.271  0.00  0.00    +0.000 C 
ATOM     21  N   UNL     1       2.405   7.382  18.858  0.00  0.00    +0.000 N 
ATOM     22  N   UNL     1       1.234   9.330  19.204  0.00  0.00    +0.000 N 
ATOM     23  H   UNL     1       2.159   7.179  19.818  0.00  0.00    +0.000 HD
ATOM     24  H   UNL     1       1.441   9.145  20.172  0.00  0.00    +0.000 HD
BRANCH  21  25
ATOM     25  C   UNL     1       3.041   6.319  18.167  0.00  0.00    +0.000 A 
ATOM     26  C   UNL     1       2.494   5.035  18.018  0.00  0.00    +0.000 A 
ATOM     27  C   UNL     1       3.219   4.023  17.384  0.00  0.00    +0.000 A 
ATOM     28  C   UNL     1       4.484   4.297  16.874  0.00  0.00    +0.000 A 
ATOM     29  F   UNL     1       5.184   3.314  16.293  0.00  0.00    +0.000 F 
ATOM     30  C   UNL     1       5.034   5.564  16.977  0.00  0.00    +0.000 A 
ATOM     31  C   UNL     1       4.306   6.564  17.615  0.00  0.00    +0.000 A 
ATOM     32  F   UNL     1       4.843   7.789  17.729  0.00  0.00    +0.000 F 
ENDBRANCH  21  25
ENDBRANCH   1  22
BRANCH   6  33
ATOM     33  C   UNL     1       0.534  15.490  19.322  0.00  0.00    +0.000 A 
ATOM     34  C   UNL     1       1.174  16.402  18.467  0.00  0.00    +0.000 A 
ATOM     35  C   UNL     1       0.825  17.759  18.459  0.00  0.00    +0.000 A 
ATOM     36  C   UNL     1      -0.214  18.218  19.262  0.00  0.00    +0.000 A 
ATOM     37  C   UNL     1      -0.864  17.331  20.110  0.00  0.00    +0.000 A 
ATOM     38  C   UNL     1      -0.456  15.994  20.173  0.00  0.00    +0.000 A 
ENDBRANCH   6  33
TORSDOF 4
ENDMDL
MODEL 9
REMARK VINA RESULT:      -8.8      4.869      9.631
REMARK  Name = 
REMARK  4 active torsions:
REMARK  status: ('A' for Active; 'I' for Inactive)
REMARK    1  A    between atoms: N_3  and  C_4
REMARK    2  A    between atoms: N_12  and  C_13
REMARK    3  A    between atoms: C_18  and  C_19
REMARK    4  A    between atoms: C_25  and  C_26
REMARK                            x       y       z     vdW  Elec       q    Type
REMARK                         _______ _______ _______ _____ _____    ______ ____
ROOT
ATOM      1  C   UNL     1       0.262  10.404  19.274  0.00  0.00    +0.000 A 
ATOM      2  C   UNL     1      -0.881  10.132  18.504  0.00  0.00    +0.000 A 
ATOM      3  C   UNL     1      -1.673  11.139  17.968  0.00  0.00    +0.000 A 
ATOM      4  C   UNL     1      -1.368  12.475  18.209  0.00  0.00    +0.000 A 
ATOM      5  C   UNL     1      -0.270  12.810  19.031  0.00  0.00    +0.000 A 
ATOM      6  C   UNL     1       0.260  14.062  19.527  0.00  0.00    +0.000 A 
ATOM      7  C   UNL     1       1.336  13.744  20.370  0.00  0.00    +0.000 A 
ATOM      8  N   UNL     1       1.557  12.392  20.190  0.00  0.00    +0.000 N 
ATOM      9  C   UNL     1       0.531  11.773  19.518  0.00  0.00    +0.000 A 
ATOM     10  H   UNL     1       2.351  11.907  20.576  0.00  0.00    +0.000 HD
ENDROOT
BRANCH   7  11
ATOM     11  C   UNL     1       2.192  14.587  21.204  0.00  0.00    +0.000 C 
ATOM     12  O   UNL     1       1.971  14.755  22.402  0.00  0.00    +0.000 OA
ATOM     13  N   UNL     1       3.283  15.250  20.635  0.00  0.00    +0.000 N 
ATOM     14  C   UNL     1       3.728  15.240  19.239  0.00  0.00    +0.000 C 
ATOM     15  C   UNL     1       5.248  15.084  19.121  0.00  0.00    +0.000 C 
ATOM     16  O   UNL     1       5.944  16.032  19.938  0.00  0.00    +0.000 OA
ATOM     17  C   UNL     1       5.577  15.865  21.315  0.00  0.00    +0.000 C 
ATOM     18  C   UNL     1       4.083  16.132  21.502  0.00  0.00    +0.000 C 
ENDBRANCH   7  11
BRANCH   1  22
ATOM     19  O   UNL     1       1.592   8.190  17.904  0.00  0.00    +0.000 OA
ATOM     20  C   UNL     1       1.646   8.325  19.118  0.00  0.00    +0.000 C 
ATOM     21  N   UNL     1       2.259   7.414  19.960  0.00  0.00    +0.000 N 
ATOM     22  N   UNL     1       1.086   9.386  19.818  0.00  0.00    +0.000 N 
ATOM     23  H   UNL     1       2.080   7.492  20.952  0.00  0.00    +0.000 HD
ATOM     24  H   UNL     1       1.357   9.481  20.783  0.00  0.00    +0.000 HD
BRANCH  21  25
ATOM     25  C   UNL     1       2.865   6.196  19.557  0.00  0.00    +0.000 A 
ATOM     26  C   UNL     1       4.019   6.113  18.764  0.00  0.00    +0.000 A 
ATOM     27  C   UNL     1       4.509   4.872  18.351  0.00  0.00    +0.000 A 
ATOM     28  C   UNL     1       3.863   3.707  18.752  0.00  0.00    +0.000 A 
ATOM     29  F   UNL     1       4.323   2.522  18.329  0.00  0.00    +0.000 F 
ATOM     30  C   UNL     1       2.743   3.758  19.564  0.00  0.00    +0.000 A 
ATOM     31  C   UNL     1       2.258   4.999  19.966  0.00  0.00    +0.000 A 
ATOM     32  F   UNL     1       1.164   5.052  20.741  0.00  0.00    +0.000 F 
ENDBRANCH  21  25
ENDBRANCH   1  22
BRANCH   6  33
ATOM     33  C   UNL     1      -0.286  15.409  19.280  0.00  0.00    +0.000 A 
ATOM     34  C   UNL     1      -1.330  15.917  20.071  0.00  0.00    +0.000 A 
ATOM     35  C   UNL     1      -1.893  17.173  19.811  0.00  0.00    +0.000 A 
ATOM     36  C   UNL     1      -1.381  17.972  18.794  0.00  0.00    +0.000 A 
ATOM     37  C   UNL     1      -0.344  17.491  18.005  0.00  0.00    +0.000 A 
ATOM     38  C   UNL     1       0.159  16.204  18.218  0.00  0.00    +0.000 A 
ENDBRANCH   6  33
TORSDOF 4
ENDMDL
