MODEL 1
REMARK VINA RESULT:      -8.4      0.000      0.000
REMARK  Name = 
REMARK  5 active torsions:
REMARK  status: ('A' for Active; 'I' for Inactive)
REMARK    1  A    between atoms: C_1  and  C_2
REMARK    2  A    between atoms: N_4  and  C_5
REMARK    3  A    between atoms: C_7  and  C_8
REMARK    4  A    between atoms: N_15  and  C_16
REMARK    5  A    between atoms: C_16  and  C_17
REMARK                            x       y       z     vdW  Elec       q    Type
REMARK                         _______ _______ _______ _____ _____    ______ ____
ROOT
ATOM      1  C   UNL     1       5.675   6.156  17.308  0.00  0.00    +0.000 A 
ATOM      2  C   UNL     1       4.472   6.064  17.967  0.00  0.00    +0.000 A 
ATOM      3  C   UNL     1       4.093   4.695  17.943  0.00  0.00    +0.000 A 
ATOM      4  N   UNL     1       5.026   3.973  17.307  0.00  0.00    +0.000 NA
ATOM      5  N   UNL     1       5.955   4.868  16.907  0.00  0.00    +0.000 N 
ENDROOT
BRANCH   3   6
ATOM      6  C   UNL     1       2.882   4.092  18.509  0.00  0.00    +0.000 A 
ATOM      7  C   UNL     1       2.357   2.897  17.987  0.00  0.00    +0.000 A 
ATOM      8  C   UNL     1       1.206   2.323  18.536  0.00  0.00    +0.000 A 
ATOM      9  C   UNL     1       0.567   2.936  19.610  0.00  0.00    +0.000 A 
ATOM     10  C   UNL     1       1.072   4.123  20.135  0.00  0.00    +0.000 A 
ATOM     11  C   UNL     1       2.222   4.698  19.587  0.00  0.00    +0.000 A 
ENDBRANCH   3   6
BRANCH   1  15
ATOM     12  C   UNL     1       8.230   8.952  17.511  0.00  0.00    +0.000 C 
ATOM     13  C   UNL     1       7.609   7.633  17.845  0.00  0.00    +0.000 C 
ATOM     14  O   UNL     1       8.065   6.872  18.682  0.00  0.00    +0.000 OA
ATOM     15  N   UNL     1       6.423   7.311  17.085  0.00  0.00    +0.000 N 
ATOM     16  H   UNL     1       6.128   7.946  16.356  0.00  0.00    +0.000 HD
ENDBRANCH   1  15
BRANCH   5  17
ATOM     17  C   UNL     1       7.165   4.364  16.266  0.00  0.00    +0.000 C 
BRANCH  17  18
ATOM     18  C   UNL     1       7.096   4.444  14.759  0.00  0.00    +0.000 A 
ATOM     19  C   UNL     1       7.936   5.313  14.043  0.00  0.00    +0.000 A 
ATOM     20  C   UNL     1       7.876   5.384  12.649  0.00  0.00    +0.000 A 
ATOM     21  C   UNL     1       6.964   4.596  11.950  0.00  0.00    +0.000 A 
ATOM     22  C   UNL     1       6.104   3.755  12.652  0.00  0.00    +0.000 A 
ATOM     23 CL   UNL     1       4.966   2.789  11.797  0.00  0.00    +0.000 Cl
ATOM     24  C   UNL     1       6.158   3.682  14.045  0.00  0.00    +0.000 A 
ENDBRANCH  17  18
ENDBRANCH   5  17
TORSDOF 4
ENDMDL
MODEL 2
REMARK VINA RESULT:      -8.4      0.025      1.006
REMARK  Name = 
REMARK  5 active torsions:
REMARK  status: ('A' for Active; 'I' for Inactive)
REMARK    1  A    between atoms: C_1  and  C_2
REMARK    2  A    between atoms: N_4  and  C_5
REMARK    3  A    between atoms: C_7  and  C_8
REMARK    4  A    between atoms: N_15  and  C_16
REMARK    5  A    between atoms: C_16  and  C_17
REMARK                            x       y       z     vdW  Elec       q    Type
REMARK                         _______ _______ _______ _____ _____    ______ ____
ROOT
ATOM      1  C   UNL     1       5.672   6.167  17.313  0.00  0.00    +0.000 A 
ATOM      2  C   UNL     1       4.468   6.077  17.970  0.00  0.00    +0.000 A 
ATOM      3  C   UNL     1       4.090   4.708  17.952  0.00  0.00    +0.000 A 
ATOM      4  N   UNL     1       5.023   3.984  17.320  0.00  0.00    +0.000 NA
ATOM      5  N   UNL     1       5.952   4.878  16.917  0.00  0.00    +0.000 N 
ENDROOT
BRANCH   3   6
ATOM      6  C   UNL     1       2.878   4.108  18.520  0.00  0.00    +0.000 A 
ATOM      7  C   UNL     1       2.210   4.707  19.601  0.00  0.00    +0.000 A 
ATOM      8  C   UNL     1       1.051   4.134  20.132  0.00  0.00    +0.000 A 
ATOM      9  C   UNL     1       0.547   2.954  19.590  0.00  0.00    +0.000 A 
ATOM     10  C   UNL     1       1.200   2.345  18.522  0.00  0.00    +0.000 A 
ATOM     11  C   UNL     1       2.359   2.918  17.990  0.00  0.00    +0.000 A 
ENDBRANCH   3   6
BRANCH   1  15
ATOM     12  C   UNL     1       8.231   8.959  17.500  0.00  0.00    +0.000 C 
ATOM     13  C   UNL     1       7.610   7.641  17.838  0.00  0.00    +0.000 C 
ATOM     14  O   UNL     1       8.071   6.880  18.672  0.00  0.00    +0.000 OA
ATOM     15  N   UNL     1       6.420   7.321  17.085  0.00  0.00    +0.000 N 
ATOM     16  H   UNL     1       6.121   7.956  16.358  0.00  0.00    +0.000 HD
ENDBRANCH   1  15
BRANCH   5  17
ATOM     17  C   UNL     1       7.162   4.370  16.278  0.00  0.00    +0.000 C 
BRANCH  17  18
ATOM     18  C   UNL     1       7.095   4.448  14.771  0.00  0.00    +0.000 A 
ATOM     19  C   UNL     1       7.918   5.335  14.057  0.00  0.00    +0.000 A 
ATOM     20  C   UNL     1       7.860   5.405  12.663  0.00  0.00    +0.000 A 
ATOM     21  C   UNL     1       6.969   4.595  11.962  0.00  0.00    +0.000 A 
ATOM     22  C   UNL     1       6.126   3.736  12.662  0.00  0.00    +0.000 A 
ATOM     23 CL   UNL     1       5.013   2.744  11.804  0.00  0.00    +0.000 Cl
ATOM     24  C   UNL     1       6.178   3.664  14.055  0.00  0.00    +0.000 A 
ENDBRANCH  17  18
ENDBRANCH   5  17
TORSDOF 4
ENDMDL
MODEL 3
REMARK VINA RESULT:      -8.1      3.059      6.735
REMARK  Name = 
REMARK  5 active torsions:
REMARK  status: ('A' for Active; 'I' for Inactive)
REMARK    1  A    between atoms: C_1  and  C_2
REMARK    2  A    between atoms: N_4  and  C_5
REMARK    3  A    between atoms: C_7  and  C_8
REMARK    4  A    between atoms: N_15  and  C_16
REMARK    5  A    between atoms: C_16  and  C_17
REMARK                            x       y       z     vdW  Elec       q    Type
REMARK                         _______ _______ _______ _____ _____    ______ ____
ROOT
ATOM      1  C   UNL     1       4.796   5.986  17.315  0.00  0.00    +0.000 A 
ATOM      2  C   UNL     1       5.087   6.152  15.981  0.00  0.00    +0.000 A 
ATOM      3  C   UNL     1       5.798   4.994  15.568  0.00  0.00    +0.000 A 
ATOM      4  N   UNL     1       5.931   4.147  16.597  0.00  0.00    +0.000 NA
ATOM      5  N   UNL     1       5.349   4.769  17.646  0.00  0.00    +0.000 N 
ENDROOT
BRANCH   3   6
ATOM      6  C   UNL     1       6.333   4.701  14.234  0.00  0.00    +0.000 A 
ATOM      7  C   UNL     1       7.430   5.416  13.722  0.00  0.00    +0.000 A 
ATOM      8  C   UNL     1       7.941   5.126  12.453  0.00  0.00    +0.000 A 
ATOM      9  C   UNL     1       7.361   4.123  11.681  0.00  0.00    +0.000 A 
ATOM     10  C   UNL     1       6.271   3.410  12.172  0.00  0.00    +0.000 A 
ATOM     11  C   UNL     1       5.759   3.698  13.441  0.00  0.00    +0.000 A 
ENDBRANCH   3   6
BRANCH   1  15
ATOM     12  C   UNL     1       2.121   7.872  19.231  0.00  0.00    +0.000 C 
ATOM     13  C   UNL     1       2.688   6.783  18.377  0.00  0.00    +0.000 C 
ATOM     14  O   UNL     1       2.015   5.874  17.921  0.00  0.00    +0.000 OA
ATOM     15  N   UNL     1       4.110   6.875  18.141  0.00  0.00    +0.000 N 
ATOM     16  H   UNL     1       4.631   7.610  18.599  0.00  0.00    +0.000 HD
ENDBRANCH   1  15
BRANCH   5  17
ATOM     17  C   UNL     1       5.245   4.040  18.905  0.00  0.00    +0.000 C 
BRANCH  17  18
ATOM     18  C   UNL     1       3.922   3.325  19.051  0.00  0.00    +0.000 A 
ATOM     19  C   UNL     1       3.323   2.685  17.953  0.00  0.00    +0.000 A 
ATOM     20  C   UNL     1       2.102   2.020  18.088  0.00  0.00    +0.000 A 
ATOM     21  C   UNL     1       1.455   1.996  19.321  0.00  0.00    +0.000 A 
ATOM     22  C   UNL     1       2.023   2.655  20.408  0.00  0.00    +0.000 A 
ATOM     23 CL   UNL     1       1.222   2.642  21.930  0.00  0.00    +0.000 Cl
ATOM     24  C   UNL     1       3.242   3.324  20.278  0.00  0.00    +0.000 A 
ENDBRANCH  17  18
ENDBRANCH   5  17
TORSDOF 4
ENDMDL
MODEL 4
REMARK VINA RESULT:      -8.0      3.045      6.660
REMARK  Name = 
REMARK  5 active torsions:
REMARK  status: ('A' for Active; 'I' for Inactive)
REMARK    1  A    between atoms: C_1  and  C_2
REMARK    2  A    between atoms: N_4  and  C_5
REMARK    3  A    between atoms: C_7  and  C_8
REMARK    4  A    between atoms: N_15  and  C_16
REMARK    5  A    between atoms: C_16  and  C_17
REMARK                            x       y       z     vdW  Elec       q    Type
REMARK                         _______ _______ _______ _____ _____    ______ ____
ROOT
ATOM      1  C   UNL     1       4.771   6.146  17.231  0.00  0.00    +0.000 A 
ATOM      2  C   UNL     1       5.062   6.251  15.892  0.00  0.00    +0.000 A 
ATOM      3  C   UNL     1       5.775   5.076  15.532  0.00  0.00    +0.000 A 
ATOM      4  N   UNL     1       5.909   4.277  16.600  0.00  0.00    +0.000 NA
ATOM      5  N   UNL     1       5.326   4.946  17.618  0.00  0.00    +0.000 N 
ENDROOT
BRANCH   3   6
ATOM      6  C   UNL     1       6.312   4.723  14.213  0.00  0.00    +0.000 A 
ATOM      7  C   UNL     1       5.724   3.707  13.441  0.00  0.00    +0.000 A 
ATOM      8  C   UNL     1       6.236   3.382  12.181  0.00  0.00    +0.000 A 
ATOM      9  C   UNL     1       7.340   4.066  11.680  0.00  0.00    +0.000 A 
ATOM     10  C   UNL     1       7.936   5.072  12.436  0.00  0.00    +0.000 A 
ATOM     11  C   UNL     1       7.426   5.398  13.695  0.00  0.00    +0.000 A 
ENDBRANCH   3   6
BRANCH   1  15
ATOM     12  C   UNL     1       2.100   8.077  19.108  0.00  0.00    +0.000 C 
ATOM     13  C   UNL     1       2.676   6.946  18.316  0.00  0.00    +0.000 C 
ATOM     14  O   UNL     1       2.022   5.981  17.958  0.00  0.00    +0.000 OA
ATOM     15  N   UNL     1       4.083   7.071  18.015  0.00  0.00    +0.000 N 
ATOM     16  H   UNL     1       4.592   7.857  18.395  0.00  0.00    +0.000 HD
ENDBRANCH   1  15
BRANCH   5  17
ATOM     17  C   UNL     1       5.222   4.276  18.910  0.00  0.00    +0.000 C 
BRANCH  17  18
ATOM     18  C   UNL     1       3.951   3.472  19.043  0.00  0.00    +0.000 A 
ATOM     19  C   UNL     1       3.427   2.763  17.949  0.00  0.00    +0.000 A 
ATOM     20  C   UNL     1       2.253   2.016  18.072  0.00  0.00    +0.000 A 
ATOM     21  C   UNL     1       1.578   1.976  19.290  0.00  0.00    +0.000 A 
ATOM     22  C   UNL     1       2.069   2.701  20.372  0.00  0.00    +0.000 A 
ATOM     23 CL   UNL     1       1.233   2.669  21.875  0.00  0.00    +0.000 Cl
ATOM     24  C   UNL     1       3.241   3.452  20.253  0.00  0.00    +0.000 A 
ENDBRANCH  17  18
ENDBRANCH   5  17
TORSDOF 4
ENDMDL
MODEL 5
REMARK VINA RESULT:      -7.8      1.075      1.770
REMARK  Name = 
REMARK  5 active torsions:
REMARK  status: ('A' for Active; 'I' for Inactive)
REMARK    1  A    between atoms: C_1  and  C_2
REMARK    2  A    between atoms: N_4  and  C_5
REMARK    3  A    between atoms: C_7  and  C_8
REMARK    4  A    between atoms: N_15  and  C_16
REMARK    5  A    between atoms: C_16  and  C_17
REMARK                            x       y       z     vdW  Elec       q    Type
REMARK                         _______ _______ _______ _____ _____    ______ ____
ROOT
ATOM      1  C   UNL     1       5.671   6.255  17.402  0.00  0.00    +0.000 A 
ATOM      2  C   UNL     1       4.491   6.174  18.103  0.00  0.00    +0.000 A 
ATOM      3  C   UNL     1       4.105   4.807  18.104  0.00  0.00    +0.000 A 
ATOM      4  N   UNL     1       5.011   4.076  17.441  0.00  0.00    +0.000 NA
ATOM      5  N   UNL     1       5.930   4.963  17.001  0.00  0.00    +0.000 N 
ENDROOT
BRANCH   3   6
ATOM      6  C   UNL     1       2.911   4.215  18.716  0.00  0.00    +0.000 A 
ATOM      7  C   UNL     1       2.456   4.642  19.975  0.00  0.00    +0.000 A 
ATOM      8  C   UNL     1       1.313   4.080  20.550  0.00  0.00    +0.000 A 
ATOM      9  C   UNL     1       0.613   3.083  19.875  0.00  0.00    +0.000 A 
ATOM     10  C   UNL     1       1.054   2.645  18.629  0.00  0.00    +0.000 A 
ATOM     11  C   UNL     1       2.197   3.207  18.054  0.00  0.00    +0.000 A 
ENDBRANCH   3   6
BRANCH   1  15
ATOM     12  C   UNL     1       8.246   9.038  17.492  0.00  0.00    +0.000 C 
ATOM     13  C   UNL     1       7.630   7.725  17.858  0.00  0.00    +0.000 C 
ATOM     14  O   UNL     1       8.112   6.969  18.684  0.00  0.00    +0.000 OA
ATOM     15  N   UNL     1       6.416   7.404  17.143  0.00  0.00    +0.000 N 
ATOM     16  H   UNL     1       6.099   8.035  16.420  0.00  0.00    +0.000 HD
ENDBRANCH   1  15
BRANCH   5  17
ATOM     17  C   UNL     1       7.113   4.447  16.321  0.00  0.00    +0.000 C 
BRANCH  17  18
ATOM     18  C   UNL     1       6.954   4.427  14.819  0.00  0.00    +0.000 A 
ATOM     19  C   UNL     1       6.108   3.496  14.195  0.00  0.00    +0.000 A 
ATOM     20  C   UNL     1       5.957   3.480  12.806  0.00  0.00    +0.000 A 
ATOM     21  C   UNL     1       6.661   4.389  12.019  0.00  0.00    +0.000 A 
ATOM     22  C   UNL     1       7.527   5.295  12.624  0.00  0.00    +0.000 A 
ATOM     23 CL   UNL     1       8.410   6.411  11.658  0.00  0.00    +0.000 Cl
ATOM     24  C   UNL     1       7.683   5.313  14.012  0.00  0.00    +0.000 A 
ENDBRANCH  17  18
ENDBRANCH   5  17
TORSDOF 4
ENDMDL
MODEL 6
REMARK VINA RESULT:      -7.8      6.282      8.615
REMARK  Name = 
REMARK  5 active torsions:
REMARK  status: ('A' for Active; 'I' for Inactive)
REMARK    1  A    between atoms: C_1  and  C_2
REMARK    2  A    between atoms: N_4  and  C_5
REMARK    3  A    between atoms: C_7  and  C_8
REMARK    4  A    between atoms: N_15  and  C_16
REMARK    5  A    between atoms: C_16  and  C_17
REMARK                            x       y       z     vdW  Elec       q    Type
REMARK                         _______ _______ _______ _____ _____    ______ ____
ROOT
ATOM      1  C   UNL     1       1.580   8.529  20.286  0.00  0.00    +0.000 A 
ATOM      2  C   UNL     1       2.063   7.249  20.150  0.00  0.00    +0.000 A 
ATOM      3  C   UNL     1       2.321   7.051  18.767  0.00  0.00    +0.000 A 
ATOM      4  N   UNL     1       2.018   8.162  18.082  0.00  0.00    +0.000 NA
ATOM      5  N   UNL     1       1.548   9.030  19.004  0.00  0.00    +0.000 N 
ENDROOT
BRANCH   3   6
ATOM      6  C   UNL     1       2.839   5.842  18.118  0.00  0.00    +0.000 A 
ATOM      7  C   UNL     1       4.142   5.804  17.593  0.00  0.00    +0.000 A 
ATOM      8  C   UNL     1       4.632   4.646  16.983  0.00  0.00    +0.000 A 
ATOM      9  C   UNL     1       3.827   3.514  16.887  0.00  0.00    +0.000 A 
ATOM     10  C   UNL     1       2.531   3.538  17.398  0.00  0.00    +0.000 A 
ATOM     11  C   UNL     1       2.040   4.695  18.008  0.00  0.00    +0.000 A 
ENDBRANCH   3   6
BRANCH   1  15
ATOM     12  C   UNL     1      -0.363   9.756  23.304  0.00  0.00    +0.000 C 
ATOM     13  C   UNL     1      -0.099   8.934  22.082  0.00  0.00    +0.000 C 
ATOM     14  O   UNL     1      -0.895   8.124  21.637  0.00  0.00    +0.000 OA
ATOM     15  N   UNL     1       1.190   9.157  21.468  0.00  0.00    +0.000 N 
ATOM     16  H   UNL     1       1.838   9.788  21.917  0.00  0.00    +0.000 HD
ENDBRANCH   1  15
BRANCH   5  17
ATOM     17  C   UNL     1       1.226  10.385  18.570  0.00  0.00    +0.000 C 
BRANCH  17  18
ATOM     18  C   UNL     1      -0.262  10.633  18.506  0.00  0.00    +0.000 A 
ATOM     19  C   UNL     1      -1.075   9.921  17.608  0.00  0.00    +0.000 A 
ATOM     20  C   UNL     1      -2.452  10.148  17.551  0.00  0.00    +0.000 A 
ATOM     21  C   UNL     1      -3.037  11.099  18.384  0.00  0.00    +0.000 A 
ATOM     22  C   UNL     1      -2.236  11.834  19.254  0.00  0.00    +0.000 A 
ATOM     23 CL   UNL     1      -2.949  13.021  20.275  0.00  0.00    +0.000 Cl
ATOM     24  C   UNL     1      -0.858  11.614  19.314  0.00  0.00    +0.000 A 
ENDBRANCH  17  18
ENDBRANCH   5  17
TORSDOF 4
ENDMDL
MODEL 7
REMARK VINA RESULT:      -7.7      6.291      8.620
REMARK  Name = 
REMARK  5 active torsions:
REMARK  status: ('A' for Active; 'I' for Inactive)
REMARK    1  A    between atoms: C_1  and  C_2
REMARK    2  A    between atoms: N_4  and  C_5
REMARK    3  A    between atoms: C_7  and  C_8
REMARK    4  A    between atoms: N_15  and  C_16
REMARK    5  A    between atoms: C_16  and  C_17
REMARK                            x       y       z     vdW  Elec       q    Type
REMARK                         _______ _______ _______ _____ _____    ______ ____
ROOT
ATOM      1  C   UNL     1       1.565   8.560  20.273  0.00  0.00    +0.000 A 
ATOM      2  C   UNL     1       2.064   7.286  20.141  0.00  0.00    +0.000 A 
ATOM      3  C   UNL     1       2.322   7.085  18.759  0.00  0.00    +0.000 A 
ATOM      4  N   UNL     1       2.004   8.190  18.070  0.00  0.00    +0.000 NA
ATOM      5  N   UNL     1       1.524   9.056  18.989  0.00  0.00    +0.000 N 
ENDROOT
BRANCH   3   6
ATOM      6  C   UNL     1       2.854   5.880  18.114  0.00  0.00    +0.000 A 
ATOM      7  C   UNL     1       2.075   4.716  18.000  0.00  0.00    +0.000 A 
ATOM      8  C   UNL     1       2.585   3.574  17.377  0.00  0.00    +0.000 A 
ATOM      9  C   UNL     1       3.879   3.580  16.862  0.00  0.00    +0.000 A 
ATOM     10  C   UNL     1       4.665   4.725  16.971  0.00  0.00    +0.000 A 
ATOM     11  C   UNL     1       4.156   5.868  17.594  0.00  0.00    +0.000 A 
ENDBRANCH   3   6
BRANCH   1  15
ATOM     12  C   UNL     1      -0.385   9.771  23.292  0.00  0.00    +0.000 C 
ATOM     13  C   UNL     1      -0.112   8.946  22.075  0.00  0.00    +0.000 C 
ATOM     14  O   UNL     1      -0.895   8.119  21.639  0.00  0.00    +0.000 OA
ATOM     15  N   UNL     1       1.169   9.189  21.452  0.00  0.00    +0.000 N 
ATOM     16  H   UNL     1       1.808   9.835  21.895  0.00  0.00    +0.000 HD
ENDBRANCH   1  15
BRANCH   5  17
ATOM     17  C   UNL     1       1.185  10.405  18.550  0.00  0.00    +0.000 C 
BRANCH  17  18
ATOM     18  C   UNL     1      -0.306  10.633  18.484  0.00  0.00    +0.000 A 
ATOM     19  C   UNL     1      -1.111   9.898  17.598  0.00  0.00    +0.000 A 
ATOM     20  C   UNL     1      -2.491  10.106  17.539  0.00  0.00    +0.000 A 
ATOM     21  C   UNL     1      -3.087  11.062  18.359  0.00  0.00    +0.000 A 
ATOM     22  C   UNL     1      -2.295  11.820  19.218  0.00  0.00    +0.000 A 
ATOM     23 CL   UNL     1      -3.021  13.012  20.222  0.00  0.00    +0.000 Cl
ATOM     24  C   UNL     1      -0.914  11.618  19.278  0.00  0.00    +0.000 A 
ENDBRANCH  17  18
ENDBRANCH   5  17
TORSDOF 4
ENDMDL
MODEL 8
REMARK VINA RESULT:      -7.7      3.453      7.214
REMARK  Name = 
REMARK  5 active torsions:
REMARK  status: ('A' for Active; 'I' for Inactive)
REMARK    1  A    between atoms: C_1  and  C_2
REMARK    2  A    between atoms: N_4  and  C_5
REMARK    3  A    between atoms: C_7  and  C_8
REMARK    4  A    between atoms: N_15  and  C_16
REMARK    5  A    between atoms: C_16  and  C_17
REMARK                            x       y       z     vdW  Elec       q    Type
REMARK                         _______ _______ _______ _____ _____    ______ ____
ROOT
ATOM      1  C   UNL     1       3.839   3.710  17.467  0.00  0.00    +0.000 A 
ATOM      2  C   UNL     1       4.287   3.306  16.232  0.00  0.00    +0.000 A 
ATOM      3  C   UNL     1       5.204   4.294  15.784  0.00  0.00    +0.000 A 
ATOM      4  N   UNL     1       5.323   5.259  16.705  0.00  0.00    +0.000 NA
ATOM      5  N   UNL     1       4.476   4.909  17.697  0.00  0.00    +0.000 N 
ENDROOT
BRANCH   3   6
ATOM      6  C   UNL     1       5.944   4.318  14.517  0.00  0.00    +0.000 A 
ATOM      7  C   UNL     1       5.507   3.573  13.409  0.00  0.00    +0.000 A 
ATOM      8  C   UNL     1       6.213   3.608  12.202  0.00  0.00    +0.000 A 
ATOM      9  C   UNL     1       7.363   4.384  12.090  0.00  0.00    +0.000 A 
ATOM     10  C   UNL     1       7.811   5.124  13.181  0.00  0.00    +0.000 A 
ATOM     11  C   UNL     1       7.107   5.091  14.388  0.00  0.00    +0.000 A 
ENDBRANCH   3   6
BRANCH   1  15
ATOM     12  C   UNL     1       0.693   2.576  19.258  0.00  0.00    +0.000 C 
ATOM     13  C   UNL     1       1.505   3.331  18.254  0.00  0.00    +0.000 C 
ATOM     14  O   UNL     1       1.020   4.116  17.457  0.00  0.00    +0.000 OA
ATOM     15  N   UNL     1       2.922   3.050  18.284  0.00  0.00    +0.000 N 
ATOM     16  H   UNL     1       3.261   2.340  18.918  0.00  0.00    +0.000 HD
ENDBRANCH   1  15
BRANCH   5  17
ATOM     17  C   UNL     1       4.459   5.725  18.906  0.00  0.00    +0.000 C 
BRANCH  17  18
ATOM     18  C   UNL     1       3.406   6.806  18.859  0.00  0.00    +0.000 A 
ATOM     19  C   UNL     1       3.264   7.626  17.727  0.00  0.00    +0.000 A 
ATOM     20  C   UNL     1       2.287   8.624  17.680  0.00  0.00    +0.000 A 
ATOM     21  C   UNL     1       1.444   8.824  18.771  0.00  0.00    +0.000 A 
ATOM     22  C   UNL     1       1.597   8.039  19.911  0.00  0.00    +0.000 A 
ATOM     23 CL   UNL     1       0.570   8.291  21.267  0.00  0.00    +0.000 Cl
ATOM     24  C   UNL     1       2.574   7.043  19.964  0.00  0.00    +0.000 A 
ENDBRANCH  17  18
ENDBRANCH   5  17
TORSDOF 4
ENDMDL
MODEL 9
REMARK VINA RESULT:      -7.7      3.454      7.261
REMARK  Name = 
REMARK  5 active torsions:
REMARK  status: ('A' for Active; 'I' for Inactive)
REMARK    1  A    between atoms: C_1  and  C_2
REMARK    2  A    between atoms: N_4  and  C_5
REMARK    3  A    between atoms: C_7  and  C_8
REMARK    4  A    between atoms: N_15  and  C_16
REMARK    5  A    between atoms: C_16  and  C_17
REMARK                            x       y       z     vdW  Elec       q    Type
REMARK                         _______ _______ _______ _____ _____    ______ ____
ROOT
ATOM      1  C   UNL     1       3.846   3.741  17.470  0.00  0.00    +0.000 A 
ATOM      2  C   UNL     1       4.289   3.330  16.235  0.00  0.00    +0.000 A 
ATOM      3  C   UNL     1       5.204   4.316  15.777  0.00  0.00    +0.000 A 
ATOM      4  N   UNL     1       5.327   5.286  16.692  0.00  0.00    +0.000 NA
ATOM      5  N   UNL     1       4.484   4.942  17.690  0.00  0.00    +0.000 N 
ENDROOT
BRANCH   3   6
ATOM      6  C   UNL     1       5.938   4.334  14.507  0.00  0.00    +0.000 A 
ATOM      7  C   UNL     1       7.098   5.112  14.352  0.00  0.00    +0.000 A 
ATOM      8  C   UNL     1       7.798   5.118  13.142  0.00  0.00    +0.000 A 
ATOM      9  C   UNL     1       7.347   4.349  12.073  0.00  0.00    +0.000 A 
ATOM     10  C   UNL     1       6.196   3.576  12.209  0.00  0.00    +0.000 A 
ATOM     11  C   UNL     1       5.496   3.569  13.419  0.00  0.00    +0.000 A 
ENDBRANCH   3   6
BRANCH   1  15
ATOM     12  C   UNL     1       0.707   2.608  19.272  0.00  0.00    +0.000 C 
ATOM     13  C   UNL     1       1.515   3.356  18.259  0.00  0.00    +0.000 C 
ATOM     14  O   UNL     1       1.025   4.127  17.452  0.00  0.00    +0.000 OA
ATOM     15  N   UNL     1       2.933   3.085  18.294  0.00  0.00    +0.000 N 
ATOM     16  H   UNL     1       3.277   2.386  18.938  0.00  0.00    +0.000 HD
ENDBRANCH   1  15
BRANCH   5  17
ATOM     17  C   UNL     1       4.472   5.765  18.894  0.00  0.00    +0.000 C 
BRANCH  17  18
ATOM     18  C   UNL     1       3.408   6.835  18.852  0.00  0.00    +0.000 A 
ATOM     19  C   UNL     1       3.261   7.663  17.726  0.00  0.00    +0.000 A 
ATOM     20  C   UNL     1       2.275   8.651  17.684  0.00  0.00    +0.000 A 
ATOM     21  C   UNL     1       1.426   8.834  18.774  0.00  0.00    +0.000 A 
ATOM     22  C   UNL     1       1.583   8.041  19.907  0.00  0.00    +0.000 A 
ATOM     23 CL   UNL     1       0.548   8.271  21.262  0.00  0.00    +0.000 Cl
ATOM     24  C   UNL     1       2.570   7.054  19.955  0.00  0.00    +0.000 A 
ENDBRANCH  17  18
ENDBRANCH   5  17
TORSDOF 4
ENDMDL
