MODEL 1
REMARK VINA RESULT:      -7.0      0.000      0.000
REMARK  Name = 
REMARK  7 active torsions:
REMARK  status: ('A' for Active; 'I' for Inactive)
REMARK    1  A    between atoms: C_1  and  O_2
REMARK    2  A    between atoms: O_2  and  C_3
REMARK    3  A    between atoms: C_8  and  C_9
REMARK    4  A    between atoms: C_9  and  O_10
REMARK    5  A    between atoms: O_10  and  C_11
REMARK    6  A    between atoms: C_15  and  C_16
REMARK    7  A    between atoms: C_17  and  C_18
REMARK                            x       y       z     vdW  Elec       q    Type
REMARK                         _______ _______ _______ _____ _____    ______ ____
ROOT
ATOM      1  O   UNL     1       3.997   6.236  18.672  0.00  0.00    +0.000 OA
ENDROOT
BRANCH   1   2
ATOM      2  C   UNL     1       4.901   5.637  17.842  0.00  0.00    +0.000 A 
ATOM      3  C   UNL     1       6.140   5.368  18.430  0.00  0.00    +0.000 A 
ATOM      4  C   UNL     1       7.161   4.770  17.692  0.00  0.00    +0.000 A 
ATOM      5  C   UNL     1       6.956   4.467  16.348  0.00  0.00    +0.000 A 
ATOM      6  C   UNL     1       5.738   4.774  15.725  0.00  0.00    +0.000 A 
ATOM      7  C   UNL     1       4.706   5.349  16.492  0.00  0.00    +0.000 A 
BRANCH   6   8
ATOM      8  C   UNL     1       5.575   4.436  14.302  0.00  0.00    +0.000 C 
ATOM      9  C   UNL     1       6.480   3.750  13.592  0.00  0.00    +0.000 C 
BRANCH   9  10
ATOM     10  C   UNL     1       6.230   3.449  12.169  0.00  0.00    +0.000 C 
ATOM     11  O   UNL     1       5.726   2.386  11.822  0.00  0.00    +0.000 OA
ENDBRANCH   9  10
ENDBRANCH   6   8
ENDBRANCH   1   2
BRANCH   1  12
ATOM     12  C   UNL     1       2.611   5.895  18.518  0.00  0.00    +0.000 C 
BRANCH  12  18
ATOM     13  C   UNL     1       1.898   3.459  18.889  0.00  0.00    +0.000 A 
ATOM     14  C   UNL     1       1.557   2.417  19.765  0.00  0.00    +0.000 A 
ATOM     15  C   UNL     1       1.618   2.595  21.148  0.00  0.00    +0.000 A 
ATOM     16  C   UNL     1       2.008   3.820  21.671  0.00  0.00    +0.000 A 
ATOM     17  C   UNL     1       2.333   4.867  20.810  0.00  0.00    +0.000 A 
ATOM     18  C   UNL     1       2.294   4.706  19.411  0.00  0.00    +0.000 A 
BRANCH  13  20
ATOM     19  C   UNL     1       2.742   2.430  16.922  0.00  0.00    +0.000 C 
ATOM     20  O   UNL     1       1.828   3.346  17.523  0.00  0.00    +0.000 OA
ENDBRANCH  13  20
ENDBRANCH  12  18
ENDBRANCH   1  12
TORSDOF 6
ENDMDL
MODEL 2
REMARK VINA RESULT:      -6.9      2.966      7.460
REMARK  Name = 
REMARK  7 active torsions:
REMARK  status: ('A' for Active; 'I' for Inactive)
REMARK    1  A    between atoms: C_1  and  O_2
REMARK    2  A    between atoms: O_2  and  C_3
REMARK    3  A    between atoms: C_8  and  C_9
REMARK    4  A    between atoms: C_9  and  O_10
REMARK    5  A    between atoms: O_10  and  C_11
REMARK    6  A    between atoms: C_15  and  C_16
REMARK    7  A    between atoms: C_17  and  C_18
REMARK                            x       y       z     vdW  Elec       q    Type
REMARK                         _______ _______ _______ _____ _____    ______ ____
ROOT
ATOM      1  O   UNL     1       2.867   4.507  18.669  0.00  0.00    +0.000 OA
ENDROOT
BRANCH   1   2
ATOM      2  C   UNL     1       2.504   5.803  18.903  0.00  0.00    +0.000 A 
ATOM      3  C   UNL     1       2.711   6.667  17.824  0.00  0.00    +0.000 A 
ATOM      4  C   UNL     1       2.397   8.022  17.929  0.00  0.00    +0.000 A 
ATOM      5  C   UNL     1       1.901   8.525  19.130  0.00  0.00    +0.000 A 
ATOM      6  C   UNL     1       1.733   7.685  20.240  0.00  0.00    +0.000 A 
ATOM      7  C   UNL     1       2.025   6.314  20.108  0.00  0.00    +0.000 A 
BRANCH   6   8
ATOM      8  C   UNL     1       1.210   8.268  21.486  0.00  0.00    +0.000 C 
ATOM      9  C   UNL     1      -0.004   8.824  21.596  0.00  0.00    +0.000 C 
BRANCH   9  10
ATOM     10  C   UNL     1      -0.449   9.379  22.889  0.00  0.00    +0.000 C 
ATOM     11  O   UNL     1      -0.062  10.475  23.278  0.00  0.00    +0.000 OA
ENDBRANCH   9  10
ENDBRANCH   6   8
ENDBRANCH   1   2
BRANCH   1  12
ATOM     12  C   UNL     1       4.155   4.074  19.133  0.00  0.00    +0.000 C 
BRANCH  12  18
ATOM     13  C   UNL     1       6.447   4.701  18.169  0.00  0.00    +0.000 A 
ATOM     14  C   UNL     1       7.301   4.832  17.063  0.00  0.00    +0.000 A 
ATOM     15  C   UNL     1       6.889   4.437  15.789  0.00  0.00    +0.000 A 
ATOM     16  C   UNL     1       5.614   3.921  15.604  0.00  0.00    +0.000 A 
ATOM     17  C   UNL     1       4.752   3.803  16.692  0.00  0.00    +0.000 A 
ATOM     18  C   UNL     1       5.151   4.179  17.990  0.00  0.00    +0.000 A 
BRANCH  13  20
ATOM     19  C   UNL     1       8.045   5.770  19.563  0.00  0.00    +0.000 C 
ATOM     20  O   UNL     1       6.792   5.100  19.436  0.00  0.00    +0.000 OA
ENDBRANCH  13  20
ENDBRANCH  12  18
ENDBRANCH   1  12
TORSDOF 6
ENDMDL
MODEL 3
REMARK VINA RESULT:      -6.7      1.543      1.923
REMARK  Name = 
REMARK  7 active torsions:
REMARK  status: ('A' for Active; 'I' for Inactive)
REMARK    1  A    between atoms: C_1  and  O_2
REMARK    2  A    between atoms: O_2  and  C_3
REMARK    3  A    between atoms: C_8  and  C_9
REMARK    4  A    between atoms: C_9  and  O_10
REMARK    5  A    between atoms: O_10  and  C_11
REMARK    6  A    between atoms: C_15  and  C_16
REMARK    7  A    between atoms: C_17  and  C_18
REMARK                            x       y       z     vdW  Elec       q    Type
REMARK                         _______ _______ _______ _____ _____    ______ ____
ROOT
ATOM      1  O   UNL     1       4.202   6.154  18.482  0.00  0.00    +0.000 OA
ENDROOT
BRANCH   1   2
ATOM      2  C   UNL     1       5.264   5.646  17.789  0.00  0.00    +0.000 A 
ATOM      3  C   UNL     1       6.401   5.404  18.566  0.00  0.00    +0.000 A 
ATOM      4  C   UNL     1       7.563   4.898  17.985  0.00  0.00    +0.000 A 
ATOM      5  C   UNL     1       7.602   4.661  16.613  0.00  0.00    +0.000 A 
ATOM      6  C   UNL     1       6.489   4.943  15.808  0.00  0.00    +0.000 A 
ATOM      7  C   UNL     1       5.313   5.424  16.414  0.00  0.00    +0.000 A 
BRANCH   6   8
ATOM      8  C   UNL     1       6.586   4.677  14.364  0.00  0.00    +0.000 C 
ATOM      9  C   UNL     1       5.955   3.669  13.748  0.00  0.00    +0.000 C 
BRANCH   9  10
ATOM     10  C   UNL     1       6.103   3.482  12.292  0.00  0.00    +0.000 C 
ATOM     11  O   UNL     1       7.163   3.722  11.723  0.00  0.00    +0.000 OA
ENDBRANCH   9  10
ENDBRANCH   6   8
ENDBRANCH   1   2
BRANCH   1  12
ATOM     12  C   UNL     1       3.819   5.501  19.702  0.00  0.00    +0.000 C 
BRANCH  12  18
ATOM     13  C   UNL     1       3.454   2.969  19.526  0.00  0.00    +0.000 A 
ATOM     14  C   UNL     1       2.651   1.885  19.139  0.00  0.00    +0.000 A 
ATOM     15  C   UNL     1       1.376   2.091  18.608  0.00  0.00    +0.000 A 
ATOM     16  C   UNL     1       0.895   3.383  18.448  0.00  0.00    +0.000 A 
ATOM     17  C   UNL     1       1.691   4.467  18.813  0.00  0.00    +0.000 A 
ATOM     18  C   UNL     1       2.974   4.283  19.366  0.00  0.00    +0.000 A 
BRANCH  13  20
ATOM     19  C   UNL     1       5.003   1.585  20.678  0.00  0.00    +0.000 C 
ATOM     20  O   UNL     1       4.724   2.823  20.026  0.00  0.00    +0.000 OA
ENDBRANCH  13  20
ENDBRANCH  12  18
ENDBRANCH   1  12
TORSDOF 6
ENDMDL
MODEL 4
REMARK VINA RESULT:      -6.7      2.255      4.252
REMARK  Name = 
REMARK  7 active torsions:
REMARK  status: ('A' for Active; 'I' for Inactive)
REMARK    1  A    between atoms: C_1  and  O_2
REMARK    2  A    between atoms: O_2  and  C_3
REMARK    3  A    between atoms: C_8  and  C_9
REMARK    4  A    between atoms: C_9  and  O_10
REMARK    5  A    between atoms: O_10  and  C_11
REMARK    6  A    between atoms: C_15  and  C_16
REMARK    7  A    between atoms: C_17  and  C_18
REMARK                            x       y       z     vdW  Elec       q    Type
REMARK                         _______ _______ _______ _____ _____    ______ ____
ROOT
ATOM      1  O   UNL     1       4.589   3.106  17.582  0.00  0.00    +0.000 OA
ENDROOT
BRANCH   1   2
ATOM      2  C   UNL     1       5.415   4.085  17.108  0.00  0.00    +0.000 A 
ATOM      3  C   UNL     1       5.653   4.027  15.732  0.00  0.00    +0.000 A 
ATOM      4  C   UNL     1       6.490   4.957  15.116  0.00  0.00    +0.000 A 
ATOM      5  C   UNL     1       7.119   5.935  15.884  0.00  0.00    +0.000 A 
ATOM      6  C   UNL     1       6.933   5.980  17.273  0.00  0.00    +0.000 A 
ATOM      7  C   UNL     1       6.060   5.053  17.875  0.00  0.00    +0.000 A 
BRANCH   6   8
ATOM      8  C   UNL     1       7.624   7.031  18.037  0.00  0.00    +0.000 C 
ATOM      9  C   UNL     1       7.831   8.272  17.578  0.00  0.00    +0.000 C 
BRANCH   9  10
ATOM     10  C   UNL     1       8.528   9.265  18.417  0.00  0.00    +0.000 C 
ATOM     11  O   UNL     1       8.611  10.440  18.076  0.00  0.00    +0.000 OA
ENDBRANCH   9  10
ENDBRANCH   6   8
ENDBRANCH   1   2
BRANCH   1  12
ATOM     12  C   UNL     1       3.184   3.219  17.307  0.00  0.00    +0.000 C 
BRANCH  12  18
ATOM     13  C   UNL     1       2.153   4.674  19.150  0.00  0.00    +0.000 A 
ATOM     14  C   UNL     1       1.516   4.778  20.397  0.00  0.00    +0.000 A 
ATOM     15  C   UNL     1       1.149   3.637  21.111  0.00  0.00    +0.000 A 
ATOM     16  C   UNL     1       1.424   2.379  20.595  0.00  0.00    +0.000 A 
ATOM     17  C   UNL     1       2.071   2.263  19.366  0.00  0.00    +0.000 A 
ATOM     18  C   UNL     1       2.437   3.401  18.618  0.00  0.00    +0.000 A 
BRANCH  13  20
ATOM     19  C   UNL     1       2.660   6.993  19.135  0.00  0.00    +0.000 C 
ATOM     20  O   UNL     1       2.561   5.762  18.421  0.00  0.00    +0.000 OA
ENDBRANCH  13  20
ENDBRANCH  12  18
ENDBRANCH   1  12
TORSDOF 6
ENDMDL
MODEL 5
REMARK VINA RESULT:      -6.6      1.418      1.744
REMARK  Name = 
REMARK  7 active torsions:
REMARK  status: ('A' for Active; 'I' for Inactive)
REMARK    1  A    between atoms: C_1  and  O_2
REMARK    2  A    between atoms: O_2  and  C_3
REMARK    3  A    between atoms: C_8  and  C_9
REMARK    4  A    between atoms: C_9  and  O_10
REMARK    5  A    between atoms: O_10  and  C_11
REMARK    6  A    between atoms: C_15  and  C_16
REMARK    7  A    between atoms: C_17  and  C_18
REMARK                            x       y       z     vdW  Elec       q    Type
REMARK                         _______ _______ _______ _____ _____    ______ ____
ROOT
ATOM      1  O   UNL     1       5.128   4.095  19.091  0.00  0.00    +0.000 OA
ENDROOT
BRANCH   1   2
ATOM      2  C   UNL     1       5.258   4.658  17.853  0.00  0.00    +0.000 A 
ATOM      3  C   UNL     1       5.276   6.056  17.851  0.00  0.00    +0.000 A 
ATOM      4  C   UNL     1       5.391   6.762  16.654  0.00  0.00    +0.000 A 
ATOM      5  C   UNL     1       5.457   6.070  15.446  0.00  0.00    +0.000 A 
ATOM      6  C   UNL     1       5.390   4.669  15.423  0.00  0.00    +0.000 A 
ATOM      7  C   UNL     1       5.306   3.970  16.642  0.00  0.00    +0.000 A 
BRANCH   6   8
ATOM      8  C   UNL     1       5.460   3.988  14.121  0.00  0.00    +0.000 C 
ATOM      9  C   UNL     1       6.529   4.030  13.314  0.00  0.00    +0.000 C 
BRANCH   9  10
ATOM     10  C   UNL     1       6.514   3.309  12.027  0.00  0.00    +0.000 C 
ATOM     11  O   UNL     1       5.586   2.567  11.724  0.00  0.00    +0.000 OA
ENDBRANCH   9  10
ENDBRANCH   6   8
ENDBRANCH   1   2
BRANCH   1  12
ATOM     12  C   UNL     1       4.636   2.748  19.169  0.00  0.00    +0.000 C 
BRANCH  12  18
ATOM     13  C   UNL     1       2.084   3.000  19.224  0.00  0.00    +0.000 A 
ATOM     14  C   UNL     1       0.888   3.055  19.956  0.00  0.00    +0.000 A 
ATOM     15  C   UNL     1       0.884   2.853  21.337  0.00  0.00    +0.000 A 
ATOM     16  C   UNL     1       2.076   2.608  22.004  0.00  0.00    +0.000 A 
ATOM     17  C   UNL     1       3.272   2.568  21.289  0.00  0.00    +0.000 A 
ATOM     18  C   UNL     1       3.299   2.753  19.893  0.00  0.00    +0.000 A 
BRANCH  13  20
ATOM     19  C   UNL     1       1.605   4.456  17.410  0.00  0.00    +0.000 C 
ATOM     20  O   UNL     1       2.148   3.219  17.871  0.00  0.00    +0.000 OA
ENDBRANCH  13  20
ENDBRANCH  12  18
ENDBRANCH   1  12
TORSDOF 6
ENDMDL
MODEL 6
REMARK VINA RESULT:      -6.6      3.179      4.880
REMARK  Name = 
REMARK  7 active torsions:
REMARK  status: ('A' for Active; 'I' for Inactive)
REMARK    1  A    between atoms: C_1  and  O_2
REMARK    2  A    between atoms: O_2  and  C_3
REMARK    3  A    between atoms: C_8  and  C_9
REMARK    4  A    between atoms: C_9  and  O_10
REMARK    5  A    between atoms: O_10  and  C_11
REMARK    6  A    between atoms: C_15  and  C_16
REMARK    7  A    between atoms: C_17  and  C_18
REMARK                            x       y       z     vdW  Elec       q    Type
REMARK                         _______ _______ _______ _____ _____    ______ ____
ROOT
ATOM      1  O   UNL     1       5.968   4.596  16.506  0.00  0.00    +0.000 OA
ENDROOT
BRANCH   1   2
ATOM      2  C   UNL     1       6.737   5.428  17.269  0.00  0.00    +0.000 A 
ATOM      3  C   UNL     1       7.228   4.849  18.442  0.00  0.00    +0.000 A 
ATOM      4  C   UNL     1       8.017   5.589  19.323  0.00  0.00    +0.000 A 
ATOM      5  C   UNL     1       8.292   6.927  19.047  0.00  0.00    +0.000 A 
ATOM      6  C   UNL     1       7.767   7.540  17.900  0.00  0.00    +0.000 A 
ATOM      7  C   UNL     1       6.999   6.771  17.005  0.00  0.00    +0.000 A 
BRANCH   6   8
ATOM      8  C   UNL     1       8.085   8.957  17.658  0.00  0.00    +0.000 C 
ATOM      9  C   UNL     1       8.794   9.716  18.504  0.00  0.00    +0.000 C 
BRANCH   9  10
ATOM     10  C   UNL     1       9.073  11.127  18.176  0.00  0.00    +0.000 C 
ATOM     11  O   UNL     1      10.156  11.472  17.716  0.00  0.00    +0.000 OA
ENDBRANCH   9  10
ENDBRANCH   6   8
ENDBRANCH   1   2
BRANCH   1  12
ATOM     12  C   UNL     1       4.622   5.004  16.212  0.00  0.00    +0.000 C 
BRANCH  12  18
ATOM     13  C   UNL     1       3.548   4.188  18.393  0.00  0.00    +0.000 A 
ATOM     14  C   UNL     1       2.808   4.460  19.555  0.00  0.00    +0.000 A 
ATOM     15  C   UNL     1       2.411   5.762  19.863  0.00  0.00    +0.000 A 
ATOM     16  C   UNL     1       2.738   6.805  19.008  0.00  0.00    +0.000 A 
ATOM     17  C   UNL     1       3.457   6.544  17.843  0.00  0.00    +0.000 A 
ATOM     18  C   UNL     1       3.883   5.240  17.519  0.00  0.00    +0.000 A 
BRANCH  13  20
ATOM     19  C   UNL     1       2.887   1.989  17.785  0.00  0.00    +0.000 C 
ATOM     20  O   UNL     1       3.937   2.923  18.029  0.00  0.00    +0.000 OA
ENDBRANCH  13  20
ENDBRANCH  12  18
ENDBRANCH   1  12
TORSDOF 6
ENDMDL
MODEL 7
REMARK VINA RESULT:      -6.6      1.479      2.186
REMARK  Name = 
REMARK  7 active torsions:
REMARK  status: ('A' for Active; 'I' for Inactive)
REMARK    1  A    between atoms: C_1  and  O_2
REMARK    2  A    between atoms: O_2  and  C_3
REMARK    3  A    between atoms: C_8  and  C_9
REMARK    4  A    between atoms: C_9  and  O_10
REMARK    5  A    between atoms: O_10  and  C_11
REMARK    6  A    between atoms: C_15  and  C_16
REMARK    7  A    between atoms: C_17  and  C_18
REMARK                            x       y       z     vdW  Elec       q    Type
REMARK                         _______ _______ _______ _____ _____    ______ ____
ROOT
ATOM      1  O   UNL     1       5.781   4.104  19.266  0.00  0.00    +0.000 OA
ENDROOT
BRANCH   1   2
ATOM      2  C   UNL     1       6.281   4.704  18.146  0.00  0.00    +0.000 A 
ATOM      3  C   UNL     1       6.772   5.996  18.350  0.00  0.00    +0.000 A 
ATOM      4  C   UNL     1       7.300   6.731  17.289  0.00  0.00    +0.000 A 
ATOM      5  C   UNL     1       7.309   6.184  16.007  0.00  0.00    +0.000 A 
ATOM      6  C   UNL     1       6.775   4.909  15.772  0.00  0.00    +0.000 A 
ATOM      7  C   UNL     1       6.275   4.168  16.859  0.00  0.00    +0.000 A 
BRANCH   6   8
ATOM      8  C   UNL     1       6.806   4.381  14.398  0.00  0.00    +0.000 C 
ATOM      9  C   UNL     1       5.729   3.910  13.757  0.00  0.00    +0.000 C 
BRANCH   9  10
ATOM     10  C   UNL     1       5.851   3.407  12.375  0.00  0.00    +0.000 C 
ATOM     11  O   UNL     1       6.933   3.385  11.799  0.00  0.00    +0.000 OA
ENDBRANCH   9  10
ENDBRANCH   6   8
ENDBRANCH   1   2
BRANCH   1  12
ATOM     12  C   UNL     1       4.639   4.702  19.898  0.00  0.00    +0.000 C 
BRANCH  12  18
ATOM     13  C   UNL     1       2.611   4.606  18.330  0.00  0.00    +0.000 A 
ATOM     14  C   UNL     1       1.421   3.981  17.925  0.00  0.00    +0.000 A 
ATOM     15  C   UNL     1       0.995   2.795  18.526  0.00  0.00    +0.000 A 
ATOM     16  C   UNL     1       1.745   2.229  19.547  0.00  0.00    +0.000 A 
ATOM     17  C   UNL     1       2.919   2.851  19.969  0.00  0.00    +0.000 A 
ATOM     18  C   UNL     1       3.378   4.039  19.367  0.00  0.00    +0.000 A 
BRANCH  13  20
ATOM     19  C   UNL     1       2.432   6.974  18.276  0.00  0.00    +0.000 C 
ATOM     20  O   UNL     1       3.060   5.787  17.794  0.00  0.00    +0.000 OA
ENDBRANCH  13  20
ENDBRANCH  12  18
ENDBRANCH   1  12
TORSDOF 6
ENDMDL
MODEL 8
REMARK VINA RESULT:      -6.6      3.366      7.506
REMARK  Name = 
REMARK  7 active torsions:
REMARK  status: ('A' for Active; 'I' for Inactive)
REMARK    1  A    between atoms: C_1  and  O_2
REMARK    2  A    between atoms: O_2  and  C_3
REMARK    3  A    between atoms: C_8  and  C_9
REMARK    4  A    between atoms: C_9  and  O_10
REMARK    5  A    between atoms: O_10  and  C_11
REMARK    6  A    between atoms: C_15  and  C_16
REMARK    7  A    between atoms: C_17  and  C_18
REMARK                            x       y       z     vdW  Elec       q    Type
REMARK                         _______ _______ _______ _____ _____    ______ ____
ROOT
ATOM      1  O   UNL     1       3.107   5.803  19.278  0.00  0.00    +0.000 OA
ENDROOT
BRANCH   1   2
ATOM      2  C   UNL     1       2.473   7.008  19.179  0.00  0.00    +0.000 A 
ATOM      3  C   UNL     1       2.571   7.615  17.924  0.00  0.00    +0.000 A 
ATOM      4  C   UNL     1       1.981   8.856  17.687  0.00  0.00    +0.000 A 
ATOM      5  C   UNL     1       1.314   9.512  18.719  0.00  0.00    +0.000 A 
ATOM      6  C   UNL     1       1.246   8.943  19.999  0.00  0.00    +0.000 A 
ATOM      7  C   UNL     1       1.820   7.676  20.214  0.00  0.00    +0.000 A 
BRANCH   6   8
ATOM      8  C   UNL     1       0.533   9.681  21.054  0.00  0.00    +0.000 C 
ATOM      9  C   UNL     1      -0.001   9.101  22.138  0.00  0.00    +0.000 C 
BRANCH   9  10
ATOM     10  C   UNL     1      -0.693   9.921  23.151  0.00  0.00    +0.000 C 
ATOM     11  O   UNL     1      -0.514  11.132  23.221  0.00  0.00    +0.000 OA
ENDBRANCH   9  10
ENDBRANCH   6   8
ENDBRANCH   1   2
BRANCH   1  12
ATOM     12  C   UNL     1       3.525   5.160  18.063  0.00  0.00    +0.000 C 
BRANCH  12  18
ATOM     13  C   UNL     1       5.755   4.615  16.919  0.00  0.00    +0.000 A 
ATOM     14  C   UNL     1       7.155   4.525  16.975  0.00  0.00    +0.000 A 
ATOM     15  C   UNL     1       7.853   4.925  18.115  0.00  0.00    +0.000 A 
ATOM     16  C   UNL     1       7.161   5.407  19.217  0.00  0.00    +0.000 A 
ATOM     17  C   UNL     1       5.770   5.484  19.179  0.00  0.00    +0.000 A 
ATOM     18  C   UNL     1       5.044   5.101  18.033  0.00  0.00    +0.000 A 
BRANCH  13  20
ATOM     19  C   UNL     1       5.605   4.440  14.555  0.00  0.00    +0.000 C 
ATOM     20  O   UNL     1       5.018   4.208  15.835  0.00  0.00    +0.000 OA
ENDBRANCH  13  20
ENDBRANCH  12  18
ENDBRANCH   1  12
TORSDOF 6
ENDMDL
MODEL 9
REMARK VINA RESULT:      -6.6      1.608      2.473
REMARK  Name = 
REMARK  7 active torsions:
REMARK  status: ('A' for Active; 'I' for Inactive)
REMARK    1  A    between atoms: C_1  and  O_2
REMARK    2  A    between atoms: O_2  and  C_3
REMARK    3  A    between atoms: C_8  and  C_9
REMARK    4  A    between atoms: C_9  and  O_10
REMARK    5  A    between atoms: O_10  and  C_11
REMARK    6  A    between atoms: C_15  and  C_16
REMARK    7  A    between atoms: C_17  and  C_18
REMARK                            x       y       z     vdW  Elec       q    Type
REMARK                         _______ _______ _______ _____ _____    ______ ____
ROOT
ATOM      1  O   UNL     1       5.545   3.919  18.810  0.00  0.00    +0.000 OA
ENDROOT
BRANCH   1   2
ATOM      2  C   UNL     1       5.558   4.572  17.610  0.00  0.00    +0.000 A 
ATOM      3  C   UNL     1       5.068   5.880  17.657  0.00  0.00    +0.000 A 
ATOM      4  C   UNL     1       5.010   6.658  16.501  0.00  0.00    +0.000 A 
ATOM      5  C   UNL     1       5.416   6.117  15.283  0.00  0.00    +0.000 A 
ATOM      6  C   UNL     1       5.864   4.791  15.206  0.00  0.00    +0.000 A 
ATOM      7  C   UNL     1       5.946   4.028  16.387  0.00  0.00    +0.000 A 
BRANCH   6   8
ATOM      8  C   UNL     1       6.276   4.268  13.894  0.00  0.00    +0.000 C 
ATOM      9  C   UNL     1       5.527   3.441  13.152  0.00  0.00    +0.000 C 
BRANCH   9  10
ATOM     10  C   UNL     1       6.018   2.972  11.842  0.00  0.00    +0.000 C 
ATOM     11  O   UNL     1       5.663   1.894  11.378  0.00  0.00    +0.000 OA
ENDBRANCH   9  10
ENDBRANCH   6   8
ENDBRANCH   1   2
BRANCH   1  12
ATOM     12  C   UNL     1       4.626   4.374  19.815  0.00  0.00    +0.000 C 
BRANCH  12  18
ATOM     13  C   UNL     1       2.081   4.284  20.119  0.00  0.00    +0.000 A 
ATOM     14  C   UNL     1       0.855   3.643  19.882  0.00  0.00    +0.000 A 
ATOM     15  C   UNL     1       0.785   2.509  19.072  0.00  0.00    +0.000 A 
ATOM     16  C   UNL     1       1.940   1.994  18.500  0.00  0.00    +0.000 A 
ATOM     17  C   UNL     1       3.165   2.613  18.742  0.00  0.00    +0.000 A 
ATOM     18  C   UNL     1       3.259   3.768  19.544  0.00  0.00    +0.000 A 
BRANCH  13  20
ATOM     19  C   UNL     1       1.837   6.634  20.355  0.00  0.00    +0.000 C 
ATOM     20  O   UNL     1       2.211   5.383  20.930  0.00  0.00    +0.000 OA
ENDBRANCH  13  20
ENDBRANCH  12  18
ENDBRANCH   1  12
TORSDOF 6
ENDMDL
