MODEL 1
REMARK VINA RESULT:      -8.1      0.000      0.000
REMARK  Name = 
REMARK  3 active torsions:
REMARK  status: ('A' for Active; 'I' for Inactive)
REMARK    1  A    between atoms: C_2  and  OXT_3
REMARK    2  A    between atoms: C_2  and  CA_4
REMARK    3  A    between atoms: C_8  and  N_9
REMARK                            x       y       z     vdW  Elec       q    Type
REMARK                         _______ _______ _______ _____ _____    ______ ____
ROOT
ATOM      1  CA  UNL     1       2.124   3.007  20.230  0.00  0.00    +0.000 A 
ATOM      2  C   UNL     1       0.863   3.009  19.669  0.00  0.00    +0.000 A 
ATOM      3  C   UNL     1       0.750   3.510  18.384  0.00  0.00    +0.000 A 
ATOM      4  C   UNL     1       1.896   3.968  17.725  0.00  0.00    +0.000 A 
ATOM      5  C   UNL     1       3.151   3.909  18.338  0.00  0.00    +0.000 A 
ATOM      6  N   UNL     1       3.257   3.445  19.604  0.00  0.00    +0.000 NA
ENDROOT
BRANCH   5   7
ATOM      7  N   UNL     1       4.303   4.353  17.701  0.00  0.00    +0.000 N 
ATOM      8  C   UNL     1       4.898   5.650  18.030  0.00  0.00    +0.000 C 
ATOM      9  C   UNL     1       6.326   5.451  18.542  0.00  0.00    +0.000 C 
ATOM     10  C   UNL     1       7.387   5.024  17.518  0.00  0.00    +0.000 C 
ATOM     11  C   UNL     1       6.907   4.816  16.131  0.00  0.00    +0.000 A 
ATOM     12  O   UNL     1       7.757   5.188  15.134  0.00  0.00    +0.000 OA
ATOM     13  C   UNL     1       7.137   4.916  13.958  0.00  0.00    +0.000 A 
ATOM     14  C   UNL     1       5.896   4.371  14.187  0.00  0.00    +0.000 A 
ATOM     15  C   UNL     1       5.737   4.305  15.600  0.00  0.00    +0.000 A 
ATOM     16  C   UNL     1       4.544   3.810  16.356  0.00  0.00    +0.000 C 
ENDBRANCH   5   7
BRANCH   1  18
ATOM     17  O   UNL     1       3.388   2.111  22.075  0.00  0.00    +0.000 OA
ATOM     18  C   UNL     1       2.330   2.500  21.618  0.00  0.00    +0.000 C 
BRANCH  18  19
ATOM     19  OXT UNL     1       1.160   2.530  22.305  0.00  0.00    +0.000 OA
ATOM     20  HXT UNL     1       1.286   2.024  23.142  0.00  0.00    +0.000 HD
ENDBRANCH  18  19
ENDBRANCH   1  18
TORSDOF 3
ENDMDL
MODEL 2
REMARK VINA RESULT:      -7.9      1.197      1.236
REMARK  Name = 
REMARK  3 active torsions:
REMARK  status: ('A' for Active; 'I' for Inactive)
REMARK    1  A    between atoms: C_2  and  OXT_3
REMARK    2  A    between atoms: C_2  and  CA_4
REMARK    3  A    between atoms: C_8  and  N_9
REMARK                            x       y       z     vdW  Elec       q    Type
REMARK                         _______ _______ _______ _____ _____    ______ ____
ROOT
ATOM      1  CA  UNL     1       2.373   3.445  19.993  0.00  0.00    +0.000 A 
ATOM      2  C   UNL     1       1.562   2.429  19.530  0.00  0.00    +0.000 A 
ATOM      3  C   UNL     1       1.737   2.040  18.213  0.00  0.00    +0.000 A 
ATOM      4  C   UNL     1       2.713   2.672  17.437  0.00  0.00    +0.000 A 
ATOM      5  C   UNL     1       3.525   3.674  17.976  0.00  0.00    +0.000 A 
ATOM      6  N   UNL     1       3.336   4.073  19.255  0.00  0.00    +0.000 NA
ENDROOT
BRANCH   5   7
ATOM      7  N   UNL     1       4.505   4.312  17.225  0.00  0.00    +0.000 N 
ATOM      8  C   UNL     1       4.591   5.773  17.178  0.00  0.00    +0.000 C 
ATOM      9  C   UNL     1       5.953   6.230  17.704  0.00  0.00    +0.000 C 
ATOM     10  C   UNL     1       7.178   5.952  16.822  0.00  0.00    +0.000 C 
ATOM     11  C   UNL     1       6.916   5.233  15.552  0.00  0.00    +0.000 A 
ATOM     12  O   UNL     1       7.668   5.605  14.479  0.00  0.00    +0.000 OA
ATOM     13  C   UNL     1       7.279   4.835  13.432  0.00  0.00    +0.000 A 
ATOM     14  C   UNL     1       6.284   3.969  13.819  0.00  0.00    +0.000 A 
ATOM     15  C   UNL     1       6.040   4.223  15.199  0.00  0.00    +0.000 A 
ATOM     16  C   UNL     1       5.029   3.556  16.078  0.00  0.00    +0.000 C 
ENDBRANCH   5   7
BRANCH   1  18
ATOM     17  O   UNL     1       2.067   3.232  22.373  0.00  0.00    +0.000 OA
ATOM     18  C   UNL     1       2.237   3.936  21.396  0.00  0.00    +0.000 C 
BRANCH  18  19
ATOM     19  OXT UNL     1       2.330   5.289  21.429  0.00  0.00    +0.000 OA
ATOM     20  HXT UNL     1       2.845   5.578  20.639  0.00  0.00    +0.000 HD
ENDBRANCH  18  19
ENDBRANCH   1  18
TORSDOF 3
ENDMDL
MODEL 3
REMARK VINA RESULT:      -7.8      1.534      1.687
REMARK  Name = 
REMARK  3 active torsions:
REMARK  status: ('A' for Active; 'I' for Inactive)
REMARK    1  A    between atoms: C_2  and  OXT_3
REMARK    2  A    between atoms: C_2  and  CA_4
REMARK    3  A    between atoms: C_8  and  N_9
REMARK                            x       y       z     vdW  Elec       q    Type
REMARK                         _______ _______ _______ _____ _____    ______ ____
ROOT
ATOM      1  CA  UNL     1       2.211   4.562  20.649  0.00  0.00    +0.000 A 
ATOM      2  C   UNL     1       1.498   5.727  20.845  0.00  0.00    +0.000 A 
ATOM      3  C   UNL     1       1.912   6.841  20.136  0.00  0.00    +0.000 A 
ATOM      4  C   UNL     1       3.001   6.732  19.265  0.00  0.00    +0.000 A 
ATOM      5  C   UNL     1       3.661   5.512  19.087  0.00  0.00    +0.000 A 
ATOM      6  N   UNL     1       3.274   4.430  19.800  0.00  0.00    +0.000 NA
ENDROOT
BRANCH   5   7
ATOM      7  N   UNL     1       4.741   5.379  18.222  0.00  0.00    +0.000 N 
ATOM      8  C   UNL     1       5.898   6.272  18.313  0.00  0.00    +0.000 C 
ATOM      9  C   UNL     1       7.162   5.457  18.593  0.00  0.00    +0.000 C 
ATOM     10  C   UNL     1       7.703   4.582  17.455  0.00  0.00    +0.000 C 
ATOM     11  C   UNL     1       6.918   4.592  16.196  0.00  0.00    +0.000 A 
ATOM     12  O   UNL     1       7.630   4.525  15.038  0.00  0.00    +0.000 OA
ATOM     13  C   UNL     1       6.736   4.544  14.018  0.00  0.00    +0.000 A 
ATOM     14  C   UNL     1       5.454   4.622  14.507  0.00  0.00    +0.000 A 
ATOM     15  C   UNL     1       5.563   4.656  15.926  0.00  0.00    +0.000 A 
ATOM     16  C   UNL     1       4.448   4.765  16.919  0.00  0.00    +0.000 C 
ENDBRANCH   5   7
BRANCH   1  18
ATOM     17  O   UNL     1       2.496   2.808  22.275  0.00  0.00    +0.000 OA
ATOM     18  C   UNL     1       1.840   3.320  21.388  0.00  0.00    +0.000 C 
BRANCH  18  19
ATOM     19  OXT UNL     1       0.659   2.836  20.927  0.00  0.00    +0.000 OA
ATOM     20  HXT UNL     1      -0.008   2.925  21.648  0.00  0.00    +0.000 HD
ENDBRANCH  18  19
ENDBRANCH   1  18
TORSDOF 3
ENDMDL
MODEL 4
REMARK VINA RESULT:      -7.8      1.743      2.071
REMARK  Name = 
REMARK  3 active torsions:
REMARK  status: ('A' for Active; 'I' for Inactive)
REMARK    1  A    between atoms: C_2  and  OXT_3
REMARK    2  A    between atoms: C_2  and  CA_4
REMARK    3  A    between atoms: C_8  and  N_9
REMARK                            x       y       z     vdW  Elec       q    Type
REMARK                         _______ _______ _______ _____ _____    ______ ____
ROOT
ATOM      1  CA  UNL     1       1.790   3.625  19.148  0.00  0.00    +0.000 A 
ATOM      2  C   UNL     1       1.359   4.471  20.150  0.00  0.00    +0.000 A 
ATOM      3  C   UNL     1       2.035   5.671  20.290  0.00  0.00    +0.000 A 
ATOM      4  C   UNL     1       3.090   5.967  19.421  0.00  0.00    +0.000 A 
ATOM      5  C   UNL     1       3.456   5.080  18.404  0.00  0.00    +0.000 A 
ATOM      6  N   UNL     1       2.814   3.895  18.285  0.00  0.00    +0.000 NA
ENDROOT
BRANCH   5   7
ATOM      7  N   UNL     1       4.497   5.355  17.526  0.00  0.00    +0.000 N 
ATOM      8  C   UNL     1       4.879   6.734  17.214  0.00  0.00    +0.000 C 
ATOM      9  C   UNL     1       6.337   6.971  17.614  0.00  0.00    +0.000 C 
ATOM     10  C   UNL     1       7.419   6.292  16.765  0.00  0.00    +0.000 C 
ATOM     11  C   UNL     1       6.935   5.440  15.652  0.00  0.00    +0.000 A 
ATOM     12  O   UNL     1       7.678   5.455  14.511  0.00  0.00    +0.000 OA
ATOM     13  C   UNL     1       7.072   4.619  13.630  0.00  0.00    +0.000 A 
ATOM     14  C   UNL     1       5.947   4.065  14.191  0.00  0.00    +0.000 A 
ATOM     15  C   UNL     1       5.849   4.596  15.509  0.00  0.00    +0.000 A 
ATOM     16  C   UNL     1       4.780   4.321  16.520  0.00  0.00    +0.000 C 
ENDBRANCH   5   7
BRANCH   1  18
ATOM     17  O   UNL     1      -0.076   2.117  18.924  0.00  0.00    +0.000 OA
ATOM     18  C   UNL     1       1.126   2.305  18.941  0.00  0.00    +0.000 C 
BRANCH  18  19
ATOM     19  OXT UNL     1       2.058   1.333  18.775  0.00  0.00    +0.000 OA
ATOM     20  HXT UNL     1       2.730   1.431  19.491  0.00  0.00    +0.000 HD
ENDBRANCH  18  19
ENDBRANCH   1  18
TORSDOF 3
ENDMDL
MODEL 5
REMARK VINA RESULT:      -7.8      1.663      6.545
REMARK  Name = 
REMARK  3 active torsions:
REMARK  status: ('A' for Active; 'I' for Inactive)
REMARK    1  A    between atoms: C_2  and  OXT_3
REMARK    2  A    between atoms: C_2  and  CA_4
REMARK    3  A    between atoms: C_8  and  N_9
REMARK                            x       y       z     vdW  Elec       q    Type
REMARK                         _______ _______ _______ _____ _____    ______ ____
ROOT
ATOM      1  CA  UNL     1       6.877   5.989  17.158  0.00  0.00    +0.000 A 
ATOM      2  C   UNL     1       7.292   5.378  15.993  0.00  0.00    +0.000 A 
ATOM      3  C   UNL     1       6.519   4.329  15.526  0.00  0.00    +0.000 A 
ATOM      4  C   UNL     1       5.374   3.955  16.236  0.00  0.00    +0.000 A 
ATOM      5  C   UNL     1       4.989   4.637  17.394  0.00  0.00    +0.000 A 
ATOM      6  N   UNL     1       5.759   5.644  17.866  0.00  0.00    +0.000 NA
ENDROOT
BRANCH   5   7
ATOM      7  N   UNL     1       3.852   4.286  18.112  0.00  0.00    +0.000 N 
ATOM      8  C   UNL     1       2.657   5.133  18.098  0.00  0.00    +0.000 C 
ATOM      9  C   UNL     1       1.469   4.344  17.545  0.00  0.00    +0.000 C 
ATOM     10  C   UNL     1       0.888   3.234  18.431  0.00  0.00    +0.000 C 
ATOM     11  C   UNL     1       1.566   3.017  19.732  0.00  0.00    +0.000 A 
ATOM     12  O   UNL     1       0.767   2.685  20.783  0.00  0.00    +0.000 OA
ATOM     13  C   UNL     1       1.573   2.530  21.864  0.00  0.00    +0.000 A 
ATOM     14  C   UNL     1       2.884   2.757  21.520  0.00  0.00    +0.000 A 
ATOM     15  C   UNL     1       2.888   3.077  20.132  0.00  0.00    +0.000 A 
ATOM     16  C   UNL     1       4.072   3.430  19.287  0.00  0.00    +0.000 C 
ENDBRANCH   5   7
BRANCH   1  18
ATOM     17  O   UNL     1       7.788   8.218  17.236  0.00  0.00    +0.000 OA
ATOM     18  C   UNL     1       7.663   7.117  17.738  0.00  0.00    +0.000 C 
BRANCH  18  19
ATOM     19  OXT UNL     1       8.225   6.740  18.914  0.00  0.00    +0.000 OA
ATOM     20  HXT UNL     1       9.037   6.218  18.710  0.00  0.00    +0.000 HD
ENDBRANCH  18  19
ENDBRANCH   1  18
TORSDOF 3
ENDMDL
MODEL 6
REMARK VINA RESULT:      -7.6      1.646      1.789
REMARK  Name = 
REMARK  3 active torsions:
REMARK  status: ('A' for Active; 'I' for Inactive)
REMARK    1  A    between atoms: C_2  and  OXT_3
REMARK    2  A    between atoms: C_2  and  CA_4
REMARK    3  A    between atoms: C_8  and  N_9
REMARK                            x       y       z     vdW  Elec       q    Type
REMARK                         _______ _______ _______ _____ _____    ______ ____
ROOT
ATOM      1  CA  UNL     1       1.971   4.117  19.882  0.00  0.00    +0.000 A 
ATOM      2  C   UNL     1       1.391   5.169  20.560  0.00  0.00    +0.000 A 
ATOM      3  C   UNL     1       1.878   6.436  20.286  0.00  0.00    +0.000 A 
ATOM      4  C   UNL     1       2.903   6.586  19.347  0.00  0.00    +0.000 A 
ATOM      5  C   UNL     1       3.427   5.480  18.670  0.00  0.00    +0.000 A 
ATOM      6  N   UNL     1       2.970   4.240  18.958  0.00  0.00    +0.000 NA
ENDROOT
BRANCH   5   7
ATOM      7  N   UNL     1       4.441   5.606  17.729  0.00  0.00    +0.000 N 
ATOM      8  C   UNL     1       4.908   6.923  17.290  0.00  0.00    +0.000 C 
ATOM      9  C   UNL     1       6.397   7.077  17.608  0.00  0.00    +0.000 C 
ATOM     10  C   UNL     1       7.384   6.253  16.772  0.00  0.00    +0.000 C 
ATOM     11  C   UNL     1       6.785   5.357  15.753  0.00  0.00    +0.000 A 
ATOM     12  O   UNL     1       7.472   5.225  14.584  0.00  0.00    +0.000 OA
ATOM     13  C   UNL     1       6.765   4.372  13.800  0.00  0.00    +0.000 A 
ATOM     14  C   UNL     1       5.630   3.951  14.452  0.00  0.00    +0.000 A 
ATOM     15  C   UNL     1       5.635   4.590  15.725  0.00  0.00    +0.000 A 
ATOM     16  C   UNL     1       4.599   4.478  16.800  0.00  0.00    +0.000 C 
ENDBRANCH   5   7
BRANCH   1  18
ATOM     17  O   UNL     1       1.687   1.778  19.380  0.00  0.00    +0.000 OA
ATOM     18  C   UNL     1       1.515   2.718  20.132  0.00  0.00    +0.000 C 
BRANCH  18  19
ATOM     19  OXT UNL     1       0.875   2.641  21.326  0.00  0.00    +0.000 OA
ATOM     20  HXT UNL     1      -0.074   2.443  21.150  0.00  0.00    +0.000 HD
ENDBRANCH  18  19
ENDBRANCH   1  18
TORSDOF 3
ENDMDL
MODEL 7
REMARK VINA RESULT:      -7.5      1.228      6.837
REMARK  Name = 
REMARK  3 active torsions:
REMARK  status: ('A' for Active; 'I' for Inactive)
REMARK    1  A    between atoms: C_2  and  OXT_3
REMARK    2  A    between atoms: C_2  and  CA_4
REMARK    3  A    between atoms: C_8  and  N_9
REMARK                            x       y       z     vdW  Elec       q    Type
REMARK                         _______ _______ _______ _____ _____    ______ ____
ROOT
ATOM      1  CA  UNL     1       6.515   4.509  15.776  0.00  0.00    +0.000 A 
ATOM      2  C   UNL     1       7.688   4.796  16.443  0.00  0.00    +0.000 A 
ATOM      3  C   UNL     1       7.621   4.873  17.823  0.00  0.00    +0.000 A 
ATOM      4  C   UNL     1       6.397   4.649  18.462  0.00  0.00    +0.000 A 
ATOM      5  C   UNL     1       5.250   4.330  17.730  0.00  0.00    +0.000 A 
ATOM      6  N   UNL     1       5.309   4.282  16.379  0.00  0.00    +0.000 NA
ENDROOT
BRANCH   5   7
ATOM      7  N   UNL     1       4.025   4.098  18.343  0.00  0.00    +0.000 N 
ATOM      8  C   UNL     1       2.921   5.051  18.214  0.00  0.00    +0.000 C 
ATOM      9  C   UNL     1       1.718   4.366  17.561  0.00  0.00    +0.000 C 
ATOM     10  C   UNL     1       0.959   3.329  18.398  0.00  0.00    +0.000 C 
ATOM     11  C   UNL     1       1.494   3.071  19.757  0.00  0.00    +0.000 A 
ATOM     12  O   UNL     1       0.576   2.832  20.734  0.00  0.00    +0.000 OA
ATOM     13  C   UNL     1       1.263   2.620  21.884  0.00  0.00    +0.000 A 
ATOM     14  C   UNL     1       2.615   2.720  21.660  0.00  0.00    +0.000 A 
ATOM     15  C   UNL     1       2.774   3.015  20.276  0.00  0.00    +0.000 A 
ATOM     16  C   UNL     1       4.057   3.244  19.539  0.00  0.00    +0.000 C 
ENDBRANCH   5   7
BRANCH   1  18
ATOM     17  O   UNL     1       5.838   3.635  13.635  0.00  0.00    +0.000 OA
ATOM     18  C   UNL     1       6.497   4.424  14.286  0.00  0.00    +0.000 C 
BRANCH  18  19
ATOM     19  OXT UNL     1       7.327   5.356  13.755  0.00  0.00    +0.000 OA
ATOM     20  HXT UNL     1       8.067   5.502  14.390  0.00  0.00    +0.000 HD
ENDBRANCH  18  19
ENDBRANCH   1  18
TORSDOF 3
ENDMDL
MODEL 8
REMARK VINA RESULT:      -7.4      0.780      1.066
REMARK  Name = 
REMARK  3 active torsions:
REMARK  status: ('A' for Active; 'I' for Inactive)
REMARK    1  A    between atoms: C_2  and  OXT_3
REMARK    2  A    between atoms: C_2  and  CA_4
REMARK    3  A    between atoms: C_8  and  N_9
REMARK                            x       y       z     vdW  Elec       q    Type
REMARK                         _______ _______ _______ _____ _____    ______ ____
ROOT
ATOM      1  CA  UNL     1       2.307   3.524  20.558  0.00  0.00    +0.000 A 
ATOM      2  C   UNL     1       1.116   4.190  20.354  0.00  0.00    +0.000 A 
ATOM      3  C   UNL     1       1.080   5.106  19.316  0.00  0.00    +0.000 A 
ATOM      4  C   UNL     1       2.224   5.299  18.535  0.00  0.00    +0.000 A 
ATOM      5  C   UNL     1       3.392   4.568  18.774  0.00  0.00    +0.000 A 
ATOM      6  N   UNL     1       3.435   3.693  19.805  0.00  0.00    +0.000 NA
ENDROOT
BRANCH   5   7
ATOM      7  N   UNL     1       4.538   4.739  18.007  0.00  0.00    +0.000 N 
ATOM      8  C   UNL     1       5.452   5.856  18.252  0.00  0.00    +0.000 C 
ATOM      9  C   UNL     1       6.842   5.321  18.604  0.00  0.00    +0.000 C 
ATOM     10  C   UNL     1       7.653   4.672  17.475  0.00  0.00    +0.000 C 
ATOM     11  C   UNL     1       6.987   4.601  16.152  0.00  0.00    +0.000 A 
ATOM     12  O   UNL     1       7.784   4.776  15.062  0.00  0.00    +0.000 OA
ATOM     13  C   UNL     1       6.991   4.673  13.966  0.00  0.00    +0.000 A 
ATOM     14  C   UNL     1       5.690   4.431  14.338  0.00  0.00    +0.000 A 
ATOM     15  C   UNL     1       5.678   4.384  15.761  0.00  0.00    +0.000 A 
ATOM     16  C   UNL     1       4.494   4.172  16.652  0.00  0.00    +0.000 C 
ENDBRANCH   5   7
BRANCH   1  18
ATOM     17  O   UNL     1       1.548   2.227  22.441  0.00  0.00    +0.000 OA
ATOM     18  C   UNL     1       2.434   2.533  21.666  0.00  0.00    +0.000 C 
BRANCH  18  19
ATOM     19  OXT UNL     1       3.688   2.016  21.690  0.00  0.00    +0.000 OA
ATOM     20  HXT UNL     1       4.315   2.725  21.410  0.00  0.00    +0.000 HD
ENDBRANCH  18  19
ENDBRANCH   1  18
TORSDOF 3
ENDMDL
MODEL 9
REMARK VINA RESULT:      -7.2      2.627      6.867
REMARK  Name = 
REMARK  3 active torsions:
REMARK  status: ('A' for Active; 'I' for Inactive)
REMARK    1  A    between atoms: C_2  and  OXT_3
REMARK    2  A    between atoms: C_2  and  CA_4
REMARK    3  A    between atoms: C_8  and  N_9
REMARK                            x       y       z     vdW  Elec       q    Type
REMARK                         _______ _______ _______ _____ _____    ______ ____
ROOT
ATOM      1  CA  UNL     1       6.164   3.533  12.425  0.00  0.00    +0.000 A 
ATOM      2  C   UNL     1       7.157   4.279  11.823  0.00  0.00    +0.000 A 
ATOM      3  C   UNL     1       7.857   5.158  12.631  0.00  0.00    +0.000 A 
ATOM      4  C   UNL     1       7.539   5.237  13.991  0.00  0.00    +0.000 A 
ATOM      5  C   UNL     1       6.542   4.430  14.546  0.00  0.00    +0.000 A 
ATOM      6  N   UNL     1       5.840   3.590  13.751  0.00  0.00    +0.000 NA
ENDROOT
BRANCH   5   7
ATOM      7  N   UNL     1       6.213   4.487  15.895  0.00  0.00    +0.000 N 
ATOM      8  C   UNL     1       7.249   4.443  16.929  0.00  0.00    +0.000 C 
ATOM      9  C   UNL     1       7.194   5.717  17.774  0.00  0.00    +0.000 C 
ATOM     10  C   UNL     1       6.002   5.880  18.725  0.00  0.00    +0.000 C 
ATOM     11  C   UNL     1       4.998   4.788  18.705  0.00  0.00    +0.000 A 
ATOM     12  O   UNL     1       4.429   4.466  19.899  0.00  0.00    +0.000 OA
ATOM     13  C   UNL     1       3.550   3.459  19.664  0.00  0.00    +0.000 A 
ATOM     14  C   UNL     1       3.545   3.130  18.329  0.00  0.00    +0.000 A 
ATOM     15  C   UNL     1       4.488   3.990  17.697  0.00  0.00    +0.000 A 
ATOM     16  C   UNL     1       4.869   4.009  16.250  0.00  0.00    +0.000 C 
ENDBRANCH   5   7
BRANCH   1  18
ATOM     17  O   UNL     1       4.254   2.805  11.150  0.00  0.00    +0.000 OA
ATOM     18  C   UNL     1       5.351   2.574  11.621  0.00  0.00    +0.000 C 
BRANCH  18  19
ATOM     19  OXT UNL     1       6.013   1.397  11.488  0.00  0.00    +0.000 OA
ATOM     20  HXT UNL     1       6.645   1.316  12.241  0.00  0.00    +0.000 HD
ENDBRANCH  18  19
ENDBRANCH   1  18
TORSDOF 3
ENDMDL
