MODEL 1
REMARK VINA RESULT:      -7.5      0.000      0.000
REMARK  Name = 
REMARK  7 active torsions:
REMARK  status: ('A' for Active; 'I' for Inactive)
REMARK    1  A    between atoms: C_1  and  O_2
REMARK    2  A    between atoms: O_2  and  C_3
REMARK    3  A    between atoms: C_7  and  C_8
REMARK    4  A    between atoms: C_8  and  N_9
REMARK    5  A    between atoms: C_10  and  C_12
REMARK    6  A    between atoms: C_21  and  C_22
REMARK    7  A    between atoms: C_25  and  C_26
REMARK                            x       y       z     vdW  Elec       q    Type
REMARK                         _______ _______ _______ _____ _____    ______ ____
ROOT
ATOM      1  C   UNL     1      -3.968  14.692  22.186  0.00  0.00    +0.000 C 
ATOM      2  C   UNL     1      -3.759  15.911  21.274  0.00  0.00    +0.000 C 
ATOM      3  C   UNL     1      -2.494  15.785  20.427  0.00  0.00    +0.000 C 
ATOM      4  C   UNL     1      -1.285  15.556  21.327  0.00  0.00    +0.000 C 
ATOM      5  N   UNL     1      -1.495  14.352  22.133  0.00  0.00    +0.000 N 
ATOM      6  C   UNL     1      -0.833  13.182  21.807  0.00  0.00    +0.000 A 
ATOM      7  N   UNL     1      -0.142  13.011  20.710  0.00  0.00    +0.000 NA
ATOM      8  N   UNL     1       0.321  11.742  20.741  0.00  0.00    +0.000 N 
ATOM      9  C   UNL     1       1.000  11.000  19.823  0.00  0.00    +0.000 A 
ATOM     10  C   UNL     1       1.046   9.725  20.375  0.00  0.00    +0.000 A 
ATOM     11  N   UNL     1       0.467   9.709  21.640  0.00  0.00    +0.000 NA
ATOM     12  C   UNL     1       0.052  10.935  21.790  0.00  0.00    +0.000 A 
ATOM     13  S   UNL     1      -0.862  11.788  22.949  0.00  0.00    +0.000 S 
ATOM     14  C   UNL     1      -2.685  14.411  23.002  0.00  0.00    +0.000 C 
ENDROOT
BRANCH  10  15
ATOM     15  C   UNL     1       1.546   8.524  19.724  0.00  0.00    +0.000 A 
ATOM     16  C   UNL     1       1.723   7.317  20.411  0.00  0.00    +0.000 A 
ATOM     17  C   UNL     1       2.275   6.200  19.773  0.00  0.00    +0.000 A 
ATOM     18  C   UNL     1       2.656   6.267  18.429  0.00  0.00    +0.000 A 
ATOM     19  C   UNL     1       3.274   5.085  17.742  0.00  0.00    +0.000 C 
ATOM     20  C   UNL     1       2.460   7.460  17.730  0.00  0.00    +0.000 A 
ATOM     21  C   UNL     1       1.912   8.575  18.370  0.00  0.00    +0.000 A 
ENDBRANCH  10  15
BRANCH   1  23
ATOM     22  N   UNL     1      -5.005  13.523  20.258  0.00  0.00    +0.000 N 
ATOM     23  C   UNL     1      -4.465  13.403  21.516  0.00  0.00    +0.000 C 
ATOM     24  O   UNL     1      -4.463  12.332  22.117  0.00  0.00    +0.000 OA
ATOM     25  H   UNL     1      -5.153  14.425  19.834  0.00  0.00    +0.000 HD
BRANCH  22  26
ATOM     26  C   UNL     1      -5.494  12.384  19.510  0.00  0.00    +0.000 C 
BRANCH  26  31
ATOM     27  C   UNL     1      -3.862  10.916  16.376  0.00  0.00    +0.000 A 
ATOM     28  C   UNL     1      -2.530  10.840  16.785  0.00  0.00    +0.000 A 
ATOM     29  C   UNL     1      -2.155  11.276  18.052  0.00  0.00    +0.000 A 
ATOM     30  C   UNL     1      -3.115  11.790  18.923  0.00  0.00    +0.000 A 
ATOM     31  C   UNL     1      -4.458  11.890  18.526  0.00  0.00    +0.000 A 
ATOM     32  C   UNL     1      -4.819  11.466  17.233  0.00  0.00    +0.000 A 
BRANCH  27  34
ATOM     33  C   UNL     1      -2.961  10.073  14.341  0.00  0.00    +0.000 C 
ATOM     34  O   UNL     1      -4.096  10.439  15.116  0.00  0.00    +0.000 OA
ENDBRANCH  27  34
ENDBRANCH  26  31
ENDBRANCH  22  26
ENDBRANCH   1  23
TORSDOF 5
ENDMDL
MODEL 2
REMARK VINA RESULT:      -7.4      1.256      1.687
REMARK  Name = 
REMARK  7 active torsions:
REMARK  status: ('A' for Active; 'I' for Inactive)
REMARK    1  A    between atoms: C_1  and  O_2
REMARK    2  A    between atoms: O_2  and  C_3
REMARK    3  A    between atoms: C_7  and  C_8
REMARK    4  A    between atoms: C_8  and  N_9
REMARK    5  A    between atoms: C_10  and  C_12
REMARK    6  A    between atoms: C_21  and  C_22
REMARK    7  A    between atoms: C_25  and  C_26
REMARK                            x       y       z     vdW  Elec       q    Type
REMARK                         _______ _______ _______ _____ _____    ______ ____
ROOT
ATOM      1  C   UNL     1      -4.311  14.363  22.320  0.00  0.00    +0.000 C 
ATOM      2  C   UNL     1      -3.902  15.672  21.627  0.00  0.00    +0.000 C 
ATOM      3  C   UNL     1      -2.503  15.587  21.018  0.00  0.00    +0.000 C 
ATOM      4  C   UNL     1      -1.493  15.189  22.087  0.00  0.00    +0.000 C 
ATOM      5  N   UNL     1      -1.883  13.908  22.678  0.00  0.00    +0.000 N 
ATOM      6  C   UNL     1      -1.203  12.754  22.331  0.00  0.00    +0.000 A 
ATOM      7  N   UNL     1      -0.322  12.684  21.366  0.00  0.00    +0.000 NA
ATOM      8  N   UNL     1       0.093  11.399  21.318  0.00  0.00    +0.000 N 
ATOM      9  C   UNL     1       0.913  10.742  20.452  0.00  0.00    +0.000 A 
ATOM     10  C   UNL     1       0.820   9.409  20.833  0.00  0.00    +0.000 A 
ATOM     11  N   UNL     1       0.013   9.267  21.957  0.00  0.00    +0.000 NA
ATOM     12  C   UNL     1      -0.390  10.484  22.185  0.00  0.00    +0.000 A 
ATOM     13  S   UNL     1      -1.484  11.234  23.258  0.00  0.00    +0.000 S 
ATOM     14  C   UNL     1      -3.213  13.919  23.314  0.00  0.00    +0.000 C 
ENDROOT
BRANCH  10  15
ATOM     15  C   UNL     1       1.402   8.272  20.135  0.00  0.00    +0.000 A 
ATOM     16  C   UNL     1       1.576   7.025  20.747  0.00  0.00    +0.000 A 
ATOM     17  C   UNL     1       2.206   5.974  20.070  0.00  0.00    +0.000 A 
ATOM     18  C   UNL     1       2.670   6.147  18.763  0.00  0.00    +0.000 A 
ATOM     19  C   UNL     1       3.371   5.036  18.038  0.00  0.00    +0.000 C 
ATOM     20  C   UNL     1       2.479   7.382  18.137  0.00  0.00    +0.000 A 
ATOM     21  C   UNL     1       1.852   8.431  18.815  0.00  0.00    +0.000 A 
ENDBRANCH  10  15
BRANCH   1  23
ATOM     22  N   UNL     1      -4.848  13.465  20.069  0.00  0.00    +0.000 N 
ATOM     23  C   UNL     1      -4.707  13.192  21.408  0.00  0.00    +0.000 C 
ATOM     24  O   UNL     1      -4.975  12.086  21.872  0.00  0.00    +0.000 OA
ATOM     25  H   UNL     1      -4.785  14.407  19.715  0.00  0.00    +0.000 HD
BRANCH  22  26
ATOM     26  C   UNL     1      -5.200  12.448  19.100  0.00  0.00    +0.000 C 
BRANCH  26  31
ATOM     27  C   UNL     1      -1.596  11.717  18.040  0.00  0.00    +0.000 A 
ATOM     28  C   UNL     1      -1.742  10.451  17.471  0.00  0.00    +0.000 A 
ATOM     29  C   UNL     1      -2.986   9.828  17.446  0.00  0.00    +0.000 A 
ATOM     30  C   UNL     1      -4.097  10.471  17.989  0.00  0.00    +0.000 A 
ATOM     31  C   UNL     1      -3.970  11.738  18.580  0.00  0.00    +0.000 A 
ATOM     32  C   UNL     1      -2.702  12.347  18.620  0.00  0.00    +0.000 A 
BRANCH  27  34
ATOM     33  C   UNL     1      -0.177  13.621  18.188  0.00  0.00    +0.000 C 
ATOM     34  O   UNL     1      -0.327  12.221  17.985  0.00  0.00    +0.000 OA
ENDBRANCH  27  34
ENDBRANCH  26  31
ENDBRANCH  22  26
ENDBRANCH   1  23
TORSDOF 5
ENDMDL
MODEL 3
REMARK VINA RESULT:      -7.3      1.717      2.570
REMARK  Name = 
REMARK  7 active torsions:
REMARK  status: ('A' for Active; 'I' for Inactive)
REMARK    1  A    between atoms: C_1  and  O_2
REMARK    2  A    between atoms: O_2  and  C_3
REMARK    3  A    between atoms: C_7  and  C_8
REMARK    4  A    between atoms: C_8  and  N_9
REMARK    5  A    between atoms: C_10  and  C_12
REMARK    6  A    between atoms: C_21  and  C_22
REMARK    7  A    between atoms: C_25  and  C_26
REMARK                            x       y       z     vdW  Elec       q    Type
REMARK                         _______ _______ _______ _____ _____    ______ ____
ROOT
ATOM      1  C   UNL     1      -1.571  13.978  20.880  0.00  0.00    +0.000 C 
ATOM      2  C   UNL     1      -1.100  14.882  19.731  0.00  0.00    +0.000 C 
ATOM      3  C   UNL     1       0.002  14.228  18.898  0.00  0.00    +0.000 C 
ATOM      4  C   UNL     1       1.165  13.827  19.798  0.00  0.00    +0.000 C 
ATOM      5  N   UNL     1       0.688  12.916  20.839  0.00  0.00    +0.000 N 
ATOM      6  C   UNL     1       0.959  11.563  20.748  0.00  0.00    +0.000 A 
ATOM      7  N   UNL     1       1.479  10.989  19.693  0.00  0.00    +0.000 NA
ATOM      8  N   UNL     1       1.561   9.670  19.976  0.00  0.00    +0.000 N 
ATOM      9  C   UNL     1       1.921   8.599  19.215  0.00  0.00    +0.000 A 
ATOM     10  C   UNL     1       1.647   7.498  20.018  0.00  0.00    +0.000 A 
ATOM     11  N   UNL     1       1.195   7.896  21.272  0.00  0.00    +0.000 NA
ATOM     12  C   UNL     1       1.161   9.194  21.175  0.00  0.00    +0.000 A 
ATOM     13  S   UNL     1       0.629  10.484  22.154  0.00  0.00    +0.000 S 
ATOM     14  C   UNL     1      -0.358  13.490  21.706  0.00  0.00    +0.000 C 
ENDROOT
BRANCH  10  15
ATOM     15  C   UNL     1       1.727   6.101  19.618  0.00  0.00    +0.000 A 
ATOM     16  C   UNL     1       2.137   5.710  18.338  0.00  0.00    +0.000 A 
ATOM     17  C   UNL     1       2.132   4.362  17.961  0.00  0.00    +0.000 A 
ATOM     18  C   UNL     1       1.720   3.375  18.862  0.00  0.00    +0.000 A 
ATOM     19  C   UNL     1       1.684   1.929  18.461  0.00  0.00    +0.000 C 
ATOM     20  C   UNL     1       1.331   3.755  20.149  0.00  0.00    +0.000 A 
ATOM     21  C   UNL     1       1.335   5.102  20.522  0.00  0.00    +0.000 A 
ENDBRANCH  10  15
BRANCH   1  23
ATOM     22  N   UNL     1      -3.271  12.943  19.397  0.00  0.00    +0.000 N 
ATOM     23  C   UNL     1      -2.469  12.791  20.503  0.00  0.00    +0.000 C 
ATOM     24  O   UNL     1      -2.534  11.791  21.213  0.00  0.00    +0.000 OA
ATOM     25  H   UNL     1      -3.334  13.824  18.911  0.00  0.00    +0.000 HD
BRANCH  22  26
ATOM     26  C   UNL     1      -4.151  11.895  18.923  0.00  0.00    +0.000 C 
BRANCH  26  31
ATOM     27  C   UNL     1      -3.685  10.522  15.382  0.00  0.00    +0.000 A 
ATOM     28  C   UNL     1      -2.534   9.750  15.550  0.00  0.00    +0.000 A 
ATOM     29  C   UNL     1      -1.901   9.687  16.787  0.00  0.00    +0.000 A 
ATOM     30  C   UNL     1      -2.419  10.395  17.871  0.00  0.00    +0.000 A 
ATOM     31  C   UNL     1      -3.566  11.191  17.720  0.00  0.00    +0.000 A 
ATOM     32  C   UNL     1      -4.183  11.264  16.457  0.00  0.00    +0.000 A 
BRANCH  27  34
ATOM     33  C   UNL     1      -3.505   9.736  13.144  0.00  0.00    +0.000 C 
ATOM     34  O   UNL     1      -4.215  10.484  14.123  0.00  0.00    +0.000 OA
ENDBRANCH  27  34
ENDBRANCH  26  31
ENDBRANCH  22  26
ENDBRANCH   1  23
TORSDOF 5
ENDMDL
MODEL 4
REMARK VINA RESULT:      -7.2      6.030      9.288
REMARK  Name = 
REMARK  7 active torsions:
REMARK  status: ('A' for Active; 'I' for Inactive)
REMARK    1  A    between atoms: C_1  and  O_2
REMARK    2  A    between atoms: O_2  and  C_3
REMARK    3  A    between atoms: C_7  and  C_8
REMARK    4  A    between atoms: C_8  and  N_9
REMARK    5  A    between atoms: C_10  and  C_12
REMARK    6  A    between atoms: C_21  and  C_22
REMARK    7  A    between atoms: C_25  and  C_26
REMARK                            x       y       z     vdW  Elec       q    Type
REMARK                         _______ _______ _______ _____ _____    ______ ____
ROOT
ATOM      1  C   UNL     1       2.457   4.959  18.310  0.00  0.00    +0.000 C 
ATOM      2  C   UNL     1       2.644   3.805  19.306  0.00  0.00    +0.000 C 
ATOM      3  C   UNL     1       4.073   3.735  19.844  0.00  0.00    +0.000 C 
ATOM      4  C   UNL     1       5.060   3.631  18.687  0.00  0.00    +0.000 C 
ATOM      5  N   UNL     1       4.893   4.781  17.796  0.00  0.00    +0.000 N 
ATOM      6  C   UNL     1       5.816   5.811  17.821  0.00  0.00    +0.000 A 
ATOM      7  N   UNL     1       6.763   5.925  18.717  0.00  0.00    +0.000 NA
ATOM      8  N   UNL     1       7.431   7.063  18.426  0.00  0.00    +0.000 N 
ATOM      9  C   UNL     1       8.430   7.721  19.077  0.00  0.00    +0.000 A 
ATOM     10  C   UNL     1       8.580   8.908  18.369  0.00  0.00    +0.000 A 
ATOM     11  N   UNL     1       7.736   8.939  17.264  0.00  0.00    +0.000 NA
ATOM     12  C   UNL     1       7.079   7.818  17.363  0.00  0.00    +0.000 A 
ATOM     13  S   UNL     1       5.780   7.080  16.542  0.00  0.00    +0.000 S 
ATOM     14  C   UNL     1       3.544   4.899  17.212  0.00  0.00    +0.000 C 
ENDROOT
BRANCH  10  15
ATOM     15  C   UNL     1       9.430  10.030  18.740  0.00  0.00    +0.000 A 
ATOM     16  C   UNL     1       9.615  10.422  20.071  0.00  0.00    +0.000 A 
ATOM     17  C   UNL     1      10.380  11.550  20.389  0.00  0.00    +0.000 A 
ATOM     18  C   UNL     1      10.980  12.308  19.380  0.00  0.00    +0.000 A 
ATOM     19  C   UNL     1      11.780  13.535  19.706  0.00  0.00    +0.000 C 
ATOM     20  C   UNL     1      10.820  11.910  18.050  0.00  0.00    +0.000 A 
ATOM     21  C   UNL     1      10.053  10.784  17.734  0.00  0.00    +0.000 A 
ENDBRANCH  10  15
BRANCH   1  23
ATOM     22  N   UNL     1       2.555   7.423  18.029  0.00  0.00    +0.000 N 
ATOM     23  C   UNL     1       2.375   6.375  18.899  0.00  0.00    +0.000 C 
ATOM     24  O   UNL     1       2.246   6.555  20.108  0.00  0.00    +0.000 OA
ATOM     25  H   UNL     1       2.821   7.270  17.069  0.00  0.00    +0.000 HD
BRANCH  22  26
ATOM     26  C   UNL     1       2.485   8.806  18.452  0.00  0.00    +0.000 C 
BRANCH  26  31
ATOM     27  C   UNL     1      -1.087   9.860  17.573  0.00  0.00    +0.000 A 
ATOM     28  C   UNL     1      -1.554  10.272  18.822  0.00  0.00    +0.000 A 
ATOM     29  C   UNL     1      -0.733  10.194  19.943  0.00  0.00    +0.000 A 
ATOM     30  C   UNL     1       0.567   9.704  19.820  0.00  0.00    +0.000 A 
ATOM     31  C   UNL     1       1.051   9.269  18.576  0.00  0.00    +0.000 A 
ATOM     32  C   UNL     1       0.202   9.332  17.456  0.00  0.00    +0.000 A 
BRANCH  27  34
ATOM     33  C   UNL     1      -2.997  10.993  16.720  0.00  0.00    +0.000 C 
ATOM     34  O   UNL     1      -1.988  10.005  16.555  0.00  0.00    +0.000 OA
ENDBRANCH  27  34
ENDBRANCH  26  31
ENDBRANCH  22  26
ENDBRANCH   1  23
TORSDOF 5
ENDMDL
MODEL 5
REMARK VINA RESULT:      -7.2      7.190     11.366
REMARK  Name = 
REMARK  7 active torsions:
REMARK  status: ('A' for Active; 'I' for Inactive)
REMARK    1  A    between atoms: C_1  and  O_2
REMARK    2  A    between atoms: O_2  and  C_3
REMARK    3  A    between atoms: C_7  and  C_8
REMARK    4  A    between atoms: C_8  and  N_9
REMARK    5  A    between atoms: C_10  and  C_12
REMARK    6  A    between atoms: C_21  and  C_22
REMARK    7  A    between atoms: C_25  and  C_26
REMARK                            x       y       z     vdW  Elec       q    Type
REMARK                         _______ _______ _______ _____ _____    ______ ____
ROOT
ATOM      1  C   UNL     1      10.356  11.615  18.662  0.00  0.00    +0.000 C 
ATOM      2  C   UNL     1      10.697  11.069  20.057  0.00  0.00    +0.000 C 
ATOM      3  C   UNL     1       9.859  11.728  21.152  0.00  0.00    +0.000 C 
ATOM      4  C   UNL     1      10.026  13.242  21.096  0.00  0.00    +0.000 C 
ATOM      5  N   UNL     1       9.631  13.729  19.773  0.00  0.00    +0.000 N 
ATOM      6  C   UNL     1       8.416  14.369  19.610  0.00  0.00    +0.000 A 
ATOM      7  N   UNL     1       7.489  14.431  20.532  0.00  0.00    +0.000 NA
ATOM      8  N   UNL     1       6.452  15.104  19.989  0.00  0.00    +0.000 N 
ATOM      9  C   UNL     1       5.199  15.368  20.453  0.00  0.00    +0.000 A 
ATOM     10  C   UNL     1       4.549  15.958  19.374  0.00  0.00    +0.000 A 
ATOM     11  N   UNL     1       5.414  16.114  18.296  0.00  0.00    +0.000 NA
ATOM     12  C   UNL     1       6.522  15.581  18.728  0.00  0.00    +0.000 A 
ATOM     13  S   UNL     1       8.049  15.218  18.063  0.00  0.00    +0.000 S 
ATOM     14  C   UNL     1      10.417  13.160  18.663  0.00  0.00    +0.000 C 
ENDROOT
BRANCH  10  15
ATOM     15  C   UNL     1       3.137  16.304  19.305  0.00  0.00    +0.000 A 
ATOM     16  C   UNL     1       2.261  16.097  20.377  0.00  0.00    +0.000 A 
ATOM     17  C   UNL     1       0.894  16.372  20.253  0.00  0.00    +0.000 A 
ATOM     18  C   UNL     1       0.376  16.867  19.052  0.00  0.00    +0.000 A 
ATOM     19  C   UNL     1      -1.091  17.140  18.898  0.00  0.00    +0.000 C 
ATOM     20  C   UNL     1       1.248  17.098  17.985  0.00  0.00    +0.000 A 
ATOM     21  C   UNL     1       2.612  16.820  18.110  0.00  0.00    +0.000 A 
ENDBRANCH  10  15
BRANCH   1  23
ATOM     22  N   UNL     1       8.754   9.795  18.131  0.00  0.00    +0.000 N 
ATOM     23  C   UNL     1       9.039  11.136  18.034  0.00  0.00    +0.000 C 
ATOM     24  O   UNL     1       8.321  11.903  17.396  0.00  0.00    +0.000 OA
ATOM     25  H   UNL     1       9.420   9.143  18.513  0.00  0.00    +0.000 HD
BRANCH  22  26
ATOM     26  C   UNL     1       7.537   9.218  17.598  0.00  0.00    +0.000 C 
BRANCH  26  31
ATOM     27  C   UNL     1       6.787   5.512  17.009  0.00  0.00    +0.000 A 
ATOM     28  C   UNL     1       7.451   4.935  18.092  0.00  0.00    +0.000 A 
ATOM     29  C   UNL     1       8.153   5.728  18.994  0.00  0.00    +0.000 A 
ATOM     30  C   UNL     1       8.191   7.112  18.820  0.00  0.00    +0.000 A 
ATOM     31  C   UNL     1       7.542   7.712  17.729  0.00  0.00    +0.000 A 
ATOM     32  C   UNL     1       6.856   6.894  16.811  0.00  0.00    +0.000 A 
BRANCH  27  34
ATOM     33  C   UNL     1       6.698   4.342  14.940  0.00  0.00    +0.000 C 
ATOM     34  O   UNL     1       6.124   4.622  16.210  0.00  0.00    +0.000 OA
ENDBRANCH  27  34
ENDBRANCH  26  31
ENDBRANCH  22  26
ENDBRANCH   1  23
TORSDOF 5
ENDMDL
MODEL 6
REMARK VINA RESULT:      -7.0      6.076     11.018
REMARK  Name = 
REMARK  7 active torsions:
REMARK  status: ('A' for Active; 'I' for Inactive)
REMARK    1  A    between atoms: C_1  and  O_2
REMARK    2  A    between atoms: O_2  and  C_3
REMARK    3  A    between atoms: C_7  and  C_8
REMARK    4  A    between atoms: C_8  and  N_9
REMARK    5  A    between atoms: C_10  and  C_12
REMARK    6  A    between atoms: C_21  and  C_22
REMARK    7  A    between atoms: C_25  and  C_26
REMARK                            x       y       z     vdW  Elec       q    Type
REMARK                         _______ _______ _______ _____ _____    ______ ____
ROOT
ATOM      1  C   UNL     1       7.181   4.758  17.546  0.00  0.00    +0.000 C 
ATOM      2  C   UNL     1       7.434   5.298  16.130  0.00  0.00    +0.000 C 
ATOM      3  C   UNL     1       6.323   6.239  15.667  0.00  0.00    +0.000 C 
ATOM      4  C   UNL     1       4.974   5.536  15.756  0.00  0.00    +0.000 C 
ATOM      5  N   UNL     1       4.742   5.093  17.132  0.00  0.00    +0.000 N 
ATOM      6  C   UNL     1       3.859   5.787  17.939  0.00  0.00    +0.000 A 
ATOM      7  N   UNL     1       3.322   6.937  17.619  0.00  0.00    +0.000 NA
ATOM      8  N   UNL     1       2.550   7.304  18.666  0.00  0.00    +0.000 N 
ATOM      9  C   UNL     1       1.850   8.444  18.922  0.00  0.00    +0.000 A 
ATOM     10  C   UNL     1       1.394   8.283  20.226  0.00  0.00    +0.000 A 
ATOM     11  N   UNL     1       1.750   7.035  20.727  0.00  0.00    +0.000 NA
ATOM     12  C   UNL     1       2.438   6.511  19.753  0.00  0.00    +0.000 A 
ATOM     13  S   UNL     1       3.354   5.091  19.523  0.00  0.00    +0.000 S 
ATOM     14  C   UNL     1       5.760   4.155  17.641  0.00  0.00    +0.000 C 
ENDROOT
BRANCH  10  15
ATOM     15  C   UNL     1       0.707   9.285  21.027  0.00  0.00    +0.000 A 
ATOM     16  C   UNL     1       0.384   9.077  22.373  0.00  0.00    +0.000 A 
ATOM     17  C   UNL     1      -0.342  10.032  23.094  0.00  0.00    +0.000 A 
ATOM     18  C   UNL     1      -0.755  11.219  22.483  0.00  0.00    +0.000 A 
ATOM     19  C   UNL     1      -1.557  12.238  23.238  0.00  0.00    +0.000 C 
ATOM     20  C   UNL     1      -0.416  11.445  21.147  0.00  0.00    +0.000 A 
ATOM     21  C   UNL     1       0.307  10.490  20.427  0.00  0.00    +0.000 A 
ENDBRANCH  10  15
BRANCH   1  23
ATOM     22  N   UNL     1       8.234   6.811  18.461  0.00  0.00    +0.000 N 
ATOM     23  C   UNL     1       7.426   5.728  18.711  0.00  0.00    +0.000 C 
ATOM     24  O   UNL     1       6.993   5.493  19.837  0.00  0.00    +0.000 OA
ATOM     25  H   UNL     1       8.717   6.913  17.583  0.00  0.00    +0.000 HD
BRANCH  22  26
ATOM     26  C   UNL     1       8.530   7.809  19.467  0.00  0.00    +0.000 C 
BRANCH  26  31
ATOM     27  C   UNL     1       9.602  11.435  18.877  0.00  0.00    +0.000 A 
ATOM     28  C   UNL     1       8.826  11.760  17.763  0.00  0.00    +0.000 A 
ATOM     29  C   UNL     1       7.979  10.815  17.193  0.00  0.00    +0.000 A 
ATOM     30  C   UNL     1       7.900   9.533  17.738  0.00  0.00    +0.000 A 
ATOM     31  C   UNL     1       8.683   9.181  18.849  0.00  0.00    +0.000 A 
ATOM     32  C   UNL     1       9.552  10.140  19.401  0.00  0.00    +0.000 A 
BRANCH  27  34
ATOM     33  C   UNL     1      11.037  13.266  18.380  0.00  0.00    +0.000 C 
ATOM     34  O   UNL     1      10.376  12.459  19.347  0.00  0.00    +0.000 OA
ENDBRANCH  27  34
ENDBRANCH  26  31
ENDBRANCH  22  26
ENDBRANCH   1  23
TORSDOF 5
ENDMDL
MODEL 7
REMARK VINA RESULT:      -7.0      5.743      9.562
REMARK  Name = 
REMARK  7 active torsions:
REMARK  status: ('A' for Active; 'I' for Inactive)
REMARK    1  A    between atoms: C_1  and  O_2
REMARK    2  A    between atoms: O_2  and  C_3
REMARK    3  A    between atoms: C_7  and  C_8
REMARK    4  A    between atoms: C_8  and  N_9
REMARK    5  A    between atoms: C_10  and  C_12
REMARK    6  A    between atoms: C_21  and  C_22
REMARK    7  A    between atoms: C_25  and  C_26
REMARK                            x       y       z     vdW  Elec       q    Type
REMARK                         _______ _______ _______ _____ _____    ______ ____
ROOT
ATOM      1  C   UNL     1       2.190   3.868  18.842  0.00  0.00    +0.000 C 
ATOM      2  C   UNL     1       2.754   2.503  19.266  0.00  0.00    +0.000 C 
ATOM      3  C   UNL     1       4.281   2.470  19.213  0.00  0.00    +0.000 C 
ATOM      4  C   UNL     1       4.761   2.856  17.819  0.00  0.00    +0.000 C 
ATOM      5  N   UNL     1       4.256   4.187  17.478  0.00  0.00    +0.000 N 
ATOM      6  C   UNL     1       5.107   5.277  17.516  0.00  0.00    +0.000 A 
ATOM      7  N   UNL     1       6.320   5.244  18.006  0.00  0.00    +0.000 NA
ATOM      8  N   UNL     1       6.814   6.496  17.894  0.00  0.00    +0.000 N 
ATOM      9  C   UNL     1       7.975   7.057  18.331  0.00  0.00    +0.000 A 
ATOM     10  C   UNL     1       7.831   8.411  18.051  0.00  0.00    +0.000 A 
ATOM     11  N   UNL     1       6.633   8.658  17.389  0.00  0.00    +0.000 NA
ATOM     12  C   UNL     1       6.078   7.481  17.336  0.00  0.00    +0.000 A 
ATOM     13  S   UNL     1       4.575   6.855  16.828  0.00  0.00    +0.000 S 
ATOM     14  C   UNL     1       2.785   4.290  17.479  0.00  0.00    +0.000 C 
ENDROOT
BRANCH  10  15
ATOM     15  C   UNL     1       8.743   9.473  18.449  0.00  0.00    +0.000 A 
ATOM     16  C   UNL     1       9.089   9.702  19.786  0.00  0.00    +0.000 A 
ATOM     17  C   UNL     1       9.910  10.779  20.142  0.00  0.00    +0.000 A 
ATOM     18  C   UNL     1      10.407  11.646  19.165  0.00  0.00    +0.000 A 
ATOM     19  C   UNL     1      11.266  12.819  19.537  0.00  0.00    +0.000 C 
ATOM     20  C   UNL     1      10.086  11.410  17.825  0.00  0.00    +0.000 A 
ATOM     21  C   UNL     1       9.263  10.337  17.472  0.00  0.00    +0.000 A 
ENDBRANCH  10  15
BRANCH   1  23
ATOM     22  N   UNL     1       2.178   6.293  19.369  0.00  0.00    +0.000 N 
ATOM     23  C   UNL     1       2.317   5.015  19.855  0.00  0.00    +0.000 C 
ATOM     24  O   UNL     1       2.620   4.799  21.026  0.00  0.00    +0.000 OA
ATOM     25  H   UNL     1       2.090   6.473  18.382  0.00  0.00    +0.000 HD
BRANCH  22  26
ATOM     26  C   UNL     1       2.257   7.461  20.221  0.00  0.00    +0.000 C 
BRANCH  26  31
ATOM     27  C   UNL     1      -0.248  10.342  19.953  0.00  0.00    +0.000 A 
ATOM     28  C   UNL     1      -0.205  10.600  18.583  0.00  0.00    +0.000 A 
ATOM     29  C   UNL     1       0.638   9.868  17.753  0.00  0.00    +0.000 A 
ATOM     30  C   UNL     1       1.444   8.864  18.290  0.00  0.00    +0.000 A 
ATOM     31  C   UNL     1       1.428   8.599  19.669  0.00  0.00    +0.000 A 
ATOM     32  C   UNL     1       0.588   9.363  20.500  0.00  0.00    +0.000 A 
BRANCH  27  34
ATOM     33  C   UNL     1      -0.916  11.243  22.051  0.00  0.00    +0.000 C 
ATOM     34  O   UNL     1      -1.129  11.121  20.650  0.00  0.00    +0.000 OA
ENDBRANCH  27  34
ENDBRANCH  26  31
ENDBRANCH  22  26
ENDBRANCH   1  23
TORSDOF 5
ENDMDL
MODEL 8
REMARK VINA RESULT:      -6.9      8.650     12.290
REMARK  Name = 
REMARK  7 active torsions:
REMARK  status: ('A' for Active; 'I' for Inactive)
REMARK    1  A    between atoms: C_1  and  O_2
REMARK    2  A    between atoms: O_2  and  C_3
REMARK    3  A    between atoms: C_7  and  C_8
REMARK    4  A    between atoms: C_8  and  N_9
REMARK    5  A    between atoms: C_10  and  C_12
REMARK    6  A    between atoms: C_21  and  C_22
REMARK    7  A    between atoms: C_25  and  C_26
REMARK                            x       y       z     vdW  Elec       q    Type
REMARK                         _______ _______ _______ _____ _____    ______ ____
ROOT
ATOM      1  C   UNL     1      11.126  11.329  19.343  0.00  0.00    +0.000 C 
ATOM      2  C   UNL     1      12.328  12.179  19.782  0.00  0.00    +0.000 C 
ATOM      3  C   UNL     1      12.032  13.676  19.705  0.00  0.00    +0.000 C 
ATOM      4  C   UNL     1      11.580  14.046  18.297  0.00  0.00    +0.000 C 
ATOM      5  N   UNL     1      10.397  13.261  17.941  0.00  0.00    +0.000 N 
ATOM      6  C   UNL     1       9.148  13.857  17.948  0.00  0.00    +0.000 A 
ATOM      7  N   UNL     1       8.909  15.054  18.419  0.00  0.00    +0.000 NA
ATOM      8  N   UNL     1       7.582  15.264  18.277  0.00  0.00    +0.000 N 
ATOM      9  C   UNL     1       6.775  16.282  18.686  0.00  0.00    +0.000 A 
ATOM     10  C   UNL     1       5.490  15.847  18.385  0.00  0.00    +0.000 A 
ATOM     11  N   UNL     1       5.521  14.615  17.738  0.00  0.00    +0.000 NA
ATOM     12  C   UNL     1       6.791  14.327  17.714  0.00  0.00    +0.000 A 
ATOM     13  S   UNL     1       7.736  12.989  17.241  0.00  0.00    +0.000 S 
ATOM     14  C   UNL     1      10.613  11.803  17.964  0.00  0.00    +0.000 C 
ENDROOT
BRANCH  10  15
ATOM     15  C   UNL     1       4.248  16.512  18.750  0.00  0.00    +0.000 A 
ATOM     16  C   UNL     1       4.079  17.160  19.979  0.00  0.00    +0.000 A 
ATOM     17  C   UNL     1       2.847  17.726  20.329  0.00  0.00    +0.000 A 
ATOM     18  C   UNL     1       1.761  17.661  19.453  0.00  0.00    +0.000 A 
ATOM     19  C   UNL     1       0.428  18.240  19.828  0.00  0.00    +0.000 C 
ATOM     20  C   UNL     1       1.928  17.036  18.214  0.00  0.00    +0.000 A 
ATOM     21  C   UNL     1       3.158  16.469  17.867  0.00  0.00    +0.000 A 
ENDBRANCH  10  15
BRANCH   1  23
ATOM     22  N   UNL     1       9.993  12.040  21.434  0.00  0.00    +0.000 N 
ATOM     23  C   UNL     1       9.958  11.217  20.334  0.00  0.00    +0.000 C 
ATOM     24  O   UNL     1       9.084  10.365  20.194  0.00  0.00    +0.000 OA
ATOM     25  H   UNL     1      10.792  12.623  21.629  0.00  0.00    +0.000 HD
BRANCH  22  26
ATOM     26  C   UNL     1       8.946  12.047  22.434  0.00  0.00    +0.000 C 
BRANCH  26  31
ATOM     27  C   UNL     1       8.011  15.742  22.098  0.00  0.00    +0.000 A 
ATOM     28  C   UNL     1       6.657  15.702  22.435  0.00  0.00    +0.000 A 
ATOM     29  C   UNL     1       6.044  14.493  22.748  0.00  0.00    +0.000 A 
ATOM     30  C   UNL     1       6.785  13.311  22.730  0.00  0.00    +0.000 A 
ATOM     31  C   UNL     1       8.144  13.328  22.379  0.00  0.00    +0.000 A 
ATOM     32  C   UNL     1       8.746  14.555  22.042  0.00  0.00    +0.000 A 
BRANCH  27  34
ATOM     33  C   UNL     1       7.549  18.058  21.812  0.00  0.00    +0.000 C 
ATOM     34  O   UNL     1       8.491  16.994  21.829  0.00  0.00    +0.000 OA
ENDBRANCH  27  34
ENDBRANCH  26  31
ENDBRANCH  22  26
ENDBRANCH   1  23
TORSDOF 5
ENDMDL
MODEL 9
REMARK VINA RESULT:      -6.9      6.958     11.165
REMARK  Name = 
REMARK  7 active torsions:
REMARK  status: ('A' for Active; 'I' for Inactive)
REMARK    1  A    between atoms: C_1  and  O_2
REMARK    2  A    between atoms: O_2  and  C_3
REMARK    3  A    between atoms: C_7  and  C_8
REMARK    4  A    between atoms: C_8  and  N_9
REMARK    5  A    between atoms: C_10  and  C_12
REMARK    6  A    between atoms: C_21  and  C_22
REMARK    7  A    between atoms: C_25  and  C_26
REMARK                            x       y       z     vdW  Elec       q    Type
REMARK                         _______ _______ _______ _____ _____    ______ ____
ROOT
ATOM      1  C   UNL     1      10.152  11.579  19.060  0.00  0.00    +0.000 C 
ATOM      2  C   UNL     1      10.275  10.944  20.454  0.00  0.00    +0.000 C 
ATOM      3  C   UNL     1       9.284  11.544  21.449  0.00  0.00    +0.000 C 
ATOM      4  C   UNL     1       9.463  13.057  21.514  0.00  0.00    +0.000 C 
ATOM      5  N   UNL     1       9.275  13.630  20.180  0.00  0.00    +0.000 N 
ATOM      6  C   UNL     1       8.100  14.294  19.876  0.00  0.00    +0.000 A 
ATOM      7  N   UNL     1       7.045  14.311  20.650  0.00  0.00    +0.000 NA
ATOM      8  N   UNL     1       6.104  15.031  20.001  0.00  0.00    +0.000 N 
ATOM      9  C   UNL     1       4.796  15.282  20.286  0.00  0.00    +0.000 A 
ATOM     10  C   UNL     1       4.320  15.945  19.161  0.00  0.00    +0.000 A 
ATOM     11  N   UNL     1       5.339  16.156  18.238  0.00  0.00    +0.000 NA
ATOM     12  C   UNL     1       6.366  15.583  18.797  0.00  0.00    +0.000 A 
ATOM     13  S   UNL     1       7.975  15.242  18.348  0.00  0.00    +0.000 S 
ATOM     14  C   UNL     1      10.218  13.120  19.168  0.00  0.00    +0.000 C 
ENDROOT
BRANCH  10  15
ATOM     15  C   UNL     1       2.936  16.313  18.902  0.00  0.00    +0.000 A 
ATOM     16  C   UNL     1       2.559  17.082  17.794  0.00  0.00    +0.000 A 
ATOM     17  C   UNL     1       1.229  17.481  17.614  0.00  0.00    +0.000 A 
ATOM     18  C   UNL     1       0.247  17.113  18.538  0.00  0.00    +0.000 A 
ATOM     19  C   UNL     1      -1.177  17.558  18.371  0.00  0.00    +0.000 C 
ATOM     20  C   UNL     1       0.610  16.327  19.634  0.00  0.00    +0.000 A 
ATOM     21  C   UNL     1       1.939  15.931  19.814  0.00  0.00    +0.000 A 
ENDBRANCH  10  15
BRANCH   1  23
ATOM     22  N   UNL     1       8.645   9.815  18.175  0.00  0.00    +0.000 N 
ATOM     23  C   UNL     1       8.943  11.157  18.212  0.00  0.00    +0.000 C 
ATOM     24  O   UNL     1       8.330  11.972  17.527  0.00  0.00    +0.000 OA
ATOM     25  H   UNL     1       9.246   9.132  18.608  0.00  0.00    +0.000 HD
BRANCH  22  26
ATOM     26  C   UNL     1       7.522   9.288  17.429  0.00  0.00    +0.000 C 
BRANCH  26  31
ATOM     27  C   UNL     1       6.035   5.762  17.469  0.00  0.00    +0.000 A 
ATOM     28  C   UNL     1       6.890   5.128  18.371  0.00  0.00    +0.000 A 
ATOM     29  C   UNL     1       7.949   5.822  18.948  0.00  0.00    +0.000 A 
ATOM     30  C   UNL     1       8.159   7.163  18.627  0.00  0.00    +0.000 A 
ATOM     31  C   UNL     1       7.320   7.816  17.710  0.00  0.00    +0.000 A 
ATOM     32  C   UNL     1       6.267   7.095  17.117  0.00  0.00    +0.000 A 
BRANCH  27  34
ATOM     33  C   UNL     1       5.389   3.955  16.064  0.00  0.00    +0.000 C 
ATOM     34  O   UNL     1       5.028   4.972  16.990  0.00  0.00    +0.000 OA
ENDBRANCH  27  34
ENDBRANCH  26  31
ENDBRANCH  22  26
ENDBRANCH   1  23
TORSDOF 5
ENDMDL
