MODEL 1
REMARK VINA RESULT:      -7.1      0.000      0.000
REMARK  Name = 
REMARK  9 active torsions:
REMARK  status: ('A' for Active; 'I' for Inactive)
REMARK    1  A    between atoms: C_1  and  C_2
REMARK    2  A    between atoms: C_6  and  C_7
REMARK    3  A    between atoms: C_8  and  N_9
REMARK    4  A    between atoms: N_12  and  C_13
REMARK    5  A    between atoms: C_13  and  C_14
REMARK    6  A    between atoms: C_13  and  C_15
REMARK    7  A    between atoms: C_13  and  C_17
REMARK    8  A    between atoms: C_15  and  O_16
REMARK    9  A    between atoms: C_17  and  O_18
REMARK                            x       y       z     vdW  Elec       q    Type
REMARK                         _______ _______ _______ _____ _____    ______ ____
ROOT
ATOM      1  N   UNL     1       3.816   2.935  18.065  0.00  0.00    +0.000 N 
ATOM      2  C   UNL     1       4.522   4.071  17.719  0.00  0.00    +0.000 C 
ATOM      3  O   UNL     1       4.492   5.131  18.325  0.00  0.00    +0.000 OA
ATOM      4  N   UNL     1       5.270   3.905  16.574  0.00  0.00    +0.000 N 
ATOM      5  H   UNL     1       3.474   2.457  17.245  0.00  0.00    +0.000 HD
ATOM      6  H   UNL     1       5.576   2.958  16.381  0.00  0.00    +0.000 HD
ENDROOT
BRANCH   1  14
ATOM      7  C   UNL     1       1.014   4.004  17.869  0.00  0.00    +0.000 C 
ATOM      8  C   UNL     1       1.621   3.419  19.119  0.00  0.00    +0.000 A 
ATOM      9  C   UNL     1       0.804   3.384  20.266  0.00  0.00    +0.000 A 
ATOM     10  C   UNL     1       1.290   2.904  21.476  0.00  0.00    +0.000 A 
ATOM     11  C   UNL     1       2.599   2.442  21.557  0.00  0.00    +0.000 A 
ATOM     12  C   UNL     1       3.438   2.447  20.428  0.00  0.00    +0.000 A 
ATOM     13  C   UNL     1       4.811   1.851  20.570  0.00  0.00    +0.000 C 
ATOM     14  C   UNL     1       2.944   2.928  19.194  0.00  0.00    +0.000 A 
ENDBRANCH   1  14
BRANCH   4  15
ATOM     15  C   UNL     1       6.156   4.972  16.008  0.00  0.00    +0.000 C 
ATOM     16  C   UNL     1       5.352   6.247  15.698  0.00  0.00    +0.000 C 
BRANCH  15  17
ATOM     17  C   UNL     1       7.357   5.286  16.951  0.00  0.00    +0.000 C 
BRANCH  17  18
ATOM     18  O   UNL     1       8.171   4.173  17.293  0.00  0.00    +0.000 OA
ATOM     19  H   UNL     1       8.686   4.404  18.099  0.00  0.00    +0.000 HD
ENDBRANCH  17  18
ENDBRANCH  15  17
BRANCH  15  20
ATOM     20  C   UNL     1       6.741   4.463  14.658  0.00  0.00    +0.000 C 
BRANCH  20  21
ATOM     21  O   UNL     1       7.838   5.268  14.225  0.00  0.00    +0.000 OA
ATOM     22  H   UNL     1       7.714   5.452  13.276  0.00  0.00    +0.000 HD
ENDBRANCH  20  21
ENDBRANCH  15  20
ENDBRANCH   4  15
TORSDOF 6
ENDMDL
MODEL 2
REMARK VINA RESULT:      -7.1      0.726      2.180
REMARK  Name = 
REMARK  9 active torsions:
REMARK  status: ('A' for Active; 'I' for Inactive)
REMARK    1  A    between atoms: C_1  and  C_2
REMARK    2  A    between atoms: C_6  and  C_7
REMARK    3  A    between atoms: C_8  and  N_9
REMARK    4  A    between atoms: N_12  and  C_13
REMARK    5  A    between atoms: C_13  and  C_14
REMARK    6  A    between atoms: C_13  and  C_15
REMARK    7  A    between atoms: C_13  and  C_17
REMARK    8  A    between atoms: C_15  and  O_16
REMARK    9  A    between atoms: C_17  and  O_18
REMARK                            x       y       z     vdW  Elec       q    Type
REMARK                         _______ _______ _______ _____ _____    ______ ____
ROOT
ATOM      1  N   UNL     1       3.885   3.108  17.975  0.00  0.00    +0.000 N 
ATOM      2  C   UNL     1       4.563   4.260  17.623  0.00  0.00    +0.000 C 
ATOM      3  O   UNL     1       4.523   5.316  18.234  0.00  0.00    +0.000 OA
ATOM      4  N   UNL     1       5.294   4.114  16.464  0.00  0.00    +0.000 N 
ATOM      5  H   UNL     1       3.538   2.628  17.158  0.00  0.00    +0.000 HD
ATOM      6  H   UNL     1       5.615   3.175  16.262  0.00  0.00    +0.000 HD
ENDROOT
BRANCH   1  14
ATOM      7  C   UNL     1       4.819   1.935  20.580  0.00  0.00    +0.000 C 
ATOM      8  C   UNL     1       3.456   2.540  20.353  0.00  0.00    +0.000 A 
ATOM      9  C   UNL     1       2.571   2.542  21.449  0.00  0.00    +0.000 A 
ATOM     10  C   UNL     1       1.279   3.037  21.325  0.00  0.00    +0.000 A 
ATOM     11  C   UNL     1       0.853   3.548  20.104  0.00  0.00    +0.000 A 
ATOM     12  C   UNL     1       1.714   3.576  18.993  0.00  0.00    +0.000 A 
ATOM     13  C   UNL     1       1.213   4.223  17.731  0.00  0.00    +0.000 C 
ATOM     14  C   UNL     1       3.032   3.080  19.118  0.00  0.00    +0.000 A 
ENDBRANCH   1  14
BRANCH   4  15
ATOM     15  C   UNL     1       6.150   5.201  15.889  0.00  0.00    +0.000 C 
ATOM     16  C   UNL     1       5.289   6.391  15.426  0.00  0.00    +0.000 C 
BRANCH  15  17
ATOM     17  C   UNL     1       7.247   5.666  16.894  0.00  0.00    +0.000 C 
BRANCH  17  18
ATOM     18  O   UNL     1       7.712   6.996  16.715  0.00  0.00    +0.000 OA
ATOM     19  H   UNL     1       8.349   7.200  17.437  0.00  0.00    +0.000 HD
ENDBRANCH  17  18
ENDBRANCH  15  17
BRANCH  15  20
ATOM     20  C   UNL     1       6.874   4.644  14.628  0.00  0.00    +0.000 C 
BRANCH  20  21
ATOM     21  O   UNL     1       7.903   5.527  14.182  0.00  0.00    +0.000 OA
ATOM     22  H   UNL     1       8.438   5.774  14.958  0.00  0.00    +0.000 HD
ENDBRANCH  20  21
ENDBRANCH  15  20
ENDBRANCH   4  15
TORSDOF 6
ENDMDL
MODEL 3
REMARK VINA RESULT:      -7.0      0.885      2.584
REMARK  Name = 
REMARK  9 active torsions:
REMARK  status: ('A' for Active; 'I' for Inactive)
REMARK    1  A    between atoms: C_1  and  C_2
REMARK    2  A    between atoms: C_6  and  C_7
REMARK    3  A    between atoms: C_8  and  N_9
REMARK    4  A    between atoms: N_12  and  C_13
REMARK    5  A    between atoms: C_13  and  C_14
REMARK    6  A    between atoms: C_13  and  C_15
REMARK    7  A    between atoms: C_13  and  C_17
REMARK    8  A    between atoms: C_15  and  O_16
REMARK    9  A    between atoms: C_17  and  O_18
REMARK                            x       y       z     vdW  Elec       q    Type
REMARK                         _______ _______ _______ _____ _____    ______ ____
ROOT
ATOM      1  N   UNL     1       3.840   2.983  18.080  0.00  0.00    +0.000 N 
ATOM      2  C   UNL     1       4.767   3.987  17.876  0.00  0.00    +0.000 C 
ATOM      3  O   UNL     1       4.957   4.933  18.624  0.00  0.00    +0.000 OA
ATOM      4  N   UNL     1       5.466   3.836  16.698  0.00  0.00    +0.000 N 
ATOM      5  H   UNL     1       3.407   2.708  17.211  0.00  0.00    +0.000 HD
ATOM      6  H   UNL     1       5.569   2.884  16.367  0.00  0.00    +0.000 HD
ENDROOT
BRANCH   1  14
ATOM      7  C   UNL     1       4.712   1.772  20.689  0.00  0.00    +0.000 C 
ATOM      8  C   UNL     1       3.379   2.438  20.457  0.00  0.00    +0.000 A 
ATOM      9  C   UNL     1       2.492   2.483  21.551  0.00  0.00    +0.000 A 
ATOM     10  C   UNL     1       1.224   3.037  21.422  0.00  0.00    +0.000 A 
ATOM     11  C   UNL     1       0.826   3.564  20.200  0.00  0.00    +0.000 A 
ATOM     12  C   UNL     1       1.690   3.551  19.090  0.00  0.00    +0.000 A 
ATOM     13  C   UNL     1       1.223   4.218  17.826  0.00  0.00    +0.000 C 
ATOM     14  C   UNL     1       2.984   2.995  19.220  0.00  0.00    +0.000 A 
ENDBRANCH   1  14
BRANCH   4  15
ATOM     15  C   UNL     1       6.555   4.767  16.262  0.00  0.00    +0.000 C 
ATOM     16  C   UNL     1       7.781   4.648  17.185  0.00  0.00    +0.000 C 
BRANCH  15  17
ATOM     17  C   UNL     1       6.953   4.534  14.773  0.00  0.00    +0.000 C 
BRANCH  17  18
ATOM     18  O   UNL     1       7.816   5.515  14.213  0.00  0.00    +0.000 OA
ATOM     19  H   UNL     1       8.249   5.127  13.420  0.00  0.00    +0.000 HD
ENDBRANCH  17  18
ENDBRANCH  15  17
BRANCH  15  20
ATOM     20  C   UNL     1       6.032   6.229  16.385  0.00  0.00    +0.000 C 
BRANCH  20  21
ATOM     21  O   UNL     1       5.328   6.634  15.210  0.00  0.00    +0.000 OA
ATOM     22  H   UNL     1       5.769   7.429  14.860  0.00  0.00    +0.000 HD
ENDBRANCH  20  21
ENDBRANCH  15  20
ENDBRANCH   4  15
TORSDOF 6
ENDMDL
MODEL 4
REMARK VINA RESULT:      -6.9      0.869      1.557
REMARK  Name = 
REMARK  9 active torsions:
REMARK  status: ('A' for Active; 'I' for Inactive)
REMARK    1  A    between atoms: C_1  and  C_2
REMARK    2  A    between atoms: C_6  and  C_7
REMARK    3  A    between atoms: C_8  and  N_9
REMARK    4  A    between atoms: N_12  and  C_13
REMARK    5  A    between atoms: C_13  and  C_14
REMARK    6  A    between atoms: C_13  and  C_15
REMARK    7  A    between atoms: C_13  and  C_17
REMARK    8  A    between atoms: C_15  and  O_16
REMARK    9  A    between atoms: C_17  and  O_18
REMARK                            x       y       z     vdW  Elec       q    Type
REMARK                         _______ _______ _______ _____ _____    ______ ____
ROOT
ATOM      1  N   UNL     1       3.825   2.803  18.026  0.00  0.00    +0.000 N 
ATOM      2  C   UNL     1       4.557   3.881  17.563  0.00  0.00    +0.000 C 
ATOM      3  O   UNL     1       4.554   4.998  18.056  0.00  0.00    +0.000 OA
ATOM      4  N   UNL     1       5.296   3.580  16.440  0.00  0.00    +0.000 N 
ATOM      5  H   UNL     1       3.469   2.252  17.259  0.00  0.00    +0.000 HD
ATOM      6  H   UNL     1       5.579   2.611  16.346  0.00  0.00    +0.000 HD
ENDROOT
BRANCH   1  14
ATOM      7  C   UNL     1       1.110   4.065  17.754  0.00  0.00    +0.000 C 
ATOM      8  C   UNL     1       1.675   3.517  19.040  0.00  0.00    +0.000 A 
ATOM      9  C   UNL     1       0.861   3.616  20.185  0.00  0.00    +0.000 A 
ATOM     10  C   UNL     1       1.312   3.180  21.425  0.00  0.00    +0.000 A 
ATOM     11  C   UNL     1       2.582   2.627  21.538  0.00  0.00    +0.000 A 
ATOM     12  C   UNL     1       3.417   2.497  20.414  0.00  0.00    +0.000 A 
ATOM     13  C   UNL     1       4.742   1.811  20.597  0.00  0.00    +0.000 C 
ATOM     14  C   UNL     1       2.958   2.935  19.150  0.00  0.00    +0.000 A 
ENDBRANCH   1  14
BRANCH   4  15
ATOM     15  C   UNL     1       6.205   4.561  15.766  0.00  0.00    +0.000 C 
ATOM     16  C   UNL     1       6.504   4.129  14.319  0.00  0.00    +0.000 C 
BRANCH  15  17
ATOM     17  C   UNL     1       5.626   6.008  15.806  0.00  0.00    +0.000 C 
BRANCH  17  18
ATOM     18  O   UNL     1       6.348   6.930  16.612  0.00  0.00    +0.000 OA
ATOM     19  H   UNL     1       5.699   7.503  17.079  0.00  0.00    +0.000 HD
ENDBRANCH  17  18
ENDBRANCH  15  17
BRANCH  15  20
ATOM     20  C   UNL     1       7.564   4.578  16.526  0.00  0.00    +0.000 C 
BRANCH  20  21
ATOM     21  O   UNL     1       7.395   4.261  17.909  0.00  0.00    +0.000 OA
ATOM     22  H   UNL     1       6.556   3.773  18.000  0.00  0.00    +0.000 HD
ENDBRANCH  20  21
ENDBRANCH  15  20
ENDBRANCH   4  15
TORSDOF 6
ENDMDL
MODEL 5
REMARK VINA RESULT:      -6.9      0.874      1.560
REMARK  Name = 
REMARK  9 active torsions:
REMARK  status: ('A' for Active; 'I' for Inactive)
REMARK    1  A    between atoms: C_1  and  C_2
REMARK    2  A    between atoms: C_6  and  C_7
REMARK    3  A    between atoms: C_8  and  N_9
REMARK    4  A    between atoms: N_12  and  C_13
REMARK    5  A    between atoms: C_13  and  C_14
REMARK    6  A    between atoms: C_13  and  C_15
REMARK    7  A    between atoms: C_13  and  C_17
REMARK    8  A    between atoms: C_15  and  O_16
REMARK    9  A    between atoms: C_17  and  O_18
REMARK                            x       y       z     vdW  Elec       q    Type
REMARK                         _______ _______ _______ _____ _____    ______ ____
ROOT
ATOM      1  N   UNL     1       3.927   2.899  18.141  0.00  0.00    +0.000 N 
ATOM      2  C   UNL     1       4.783   3.957  17.902  0.00  0.00    +0.000 C 
ATOM      3  O   UNL     1       4.855   4.972  18.577  0.00  0.00    +0.000 OA
ATOM      4  N   UNL     1       5.557   3.772  16.777  0.00  0.00    +0.000 N 
ATOM      5  H   UNL     1       3.567   2.522  17.277  0.00  0.00    +0.000 HD
ATOM      6  H   UNL     1       5.753   2.808  16.532  0.00  0.00    +0.000 HD
ENDROOT
BRANCH   1  14
ATOM      7  C   UNL     1       1.187   4.096  17.831  0.00  0.00    +0.000 C 
ATOM      8  C   UNL     1       1.714   3.482  19.104  0.00  0.00    +0.000 A 
ATOM      9  C   UNL     1       0.849   3.482  20.215  0.00  0.00    +0.000 A 
ATOM     10  C   UNL     1       1.261   2.979  21.443  0.00  0.00    +0.000 A 
ATOM     11  C   UNL     1       2.542   2.457  21.577  0.00  0.00    +0.000 A 
ATOM     12  C   UNL     1       3.428   2.426  20.484  0.00  0.00    +0.000 A 
ATOM     13  C   UNL     1       4.765   1.768  20.682  0.00  0.00    +0.000 C 
ATOM     14  C   UNL     1       3.009   2.931  19.232  0.00  0.00    +0.000 A 
ENDBRANCH   1  14
BRANCH   4  15
ATOM     15  C   UNL     1       6.594   4.752  16.321  0.00  0.00    +0.000 C 
ATOM     16  C   UNL     1       7.838   4.698  17.227  0.00  0.00    +0.000 C 
BRANCH  15  17
ATOM     17  C   UNL     1       6.983   4.530  14.828  0.00  0.00    +0.000 C 
BRANCH  17  18
ATOM     18  O   UNL     1       7.850   5.509  14.272  0.00  0.00    +0.000 OA
ATOM     19  H   UNL     1       8.634   5.048  13.896  0.00  0.00    +0.000 HD
ENDBRANCH  17  18
ENDBRANCH  15  17
BRANCH  15  20
ATOM     20  C   UNL     1       6.003   6.187  16.443  0.00  0.00    +0.000 C 
BRANCH  20  21
ATOM     21  O   UNL     1       5.341   6.586  15.242  0.00  0.00    +0.000 OA
ATOM     22  H   UNL     1       5.614   5.972  14.536  0.00  0.00    +0.000 HD
ENDBRANCH  20  21
ENDBRANCH  15  20
ENDBRANCH   4  15
TORSDOF 6
ENDMDL
MODEL 6
REMARK VINA RESULT:      -6.9      0.872      2.569
REMARK  Name = 
REMARK  9 active torsions:
REMARK  status: ('A' for Active; 'I' for Inactive)
REMARK    1  A    between atoms: C_1  and  C_2
REMARK    2  A    between atoms: C_6  and  C_7
REMARK    3  A    between atoms: C_8  and  N_9
REMARK    4  A    between atoms: N_12  and  C_13
REMARK    5  A    between atoms: C_13  and  C_14
REMARK    6  A    between atoms: C_13  and  C_15
REMARK    7  A    between atoms: C_13  and  C_17
REMARK    8  A    between atoms: C_15  and  O_16
REMARK    9  A    between atoms: C_17  and  O_18
REMARK                            x       y       z     vdW  Elec       q    Type
REMARK                         _______ _______ _______ _____ _____    ______ ____
ROOT
ATOM      1  N   UNL     1       3.823   2.826  18.018  0.00  0.00    +0.000 N 
ATOM      2  C   UNL     1       4.584   3.894  17.580  0.00  0.00    +0.000 C 
ATOM      3  O   UNL     1       4.640   4.988  18.118  0.00  0.00    +0.000 OA
ATOM      4  N   UNL     1       5.279   3.612  16.424  0.00  0.00    +0.000 N 
ATOM      5  H   UNL     1       3.424   2.323  17.240  0.00  0.00    +0.000 HD
ATOM      6  H   UNL     1       5.520   2.638  16.281  0.00  0.00    +0.000 HD
ENDROOT
BRANCH   1  14
ATOM      7  C   UNL     1       4.738   1.818  20.698  0.00  0.00    +0.000 C 
ATOM      8  C   UNL     1       3.408   2.482  20.441  0.00  0.00    +0.000 A 
ATOM      9  C   UNL     1       2.547   2.628  21.546  0.00  0.00    +0.000 A 
ATOM     10  C   UNL     1       1.283   3.187  21.400  0.00  0.00    +0.000 A 
ATOM     11  C   UNL     1       0.864   3.620  20.147  0.00  0.00    +0.000 A 
ATOM     12  C   UNL     1       1.704   3.505  19.024  0.00  0.00    +0.000 A 
ATOM     13  C   UNL     1       1.217   4.074  17.721  0.00  0.00    +0.000 C 
ATOM     14  C   UNL     1       2.993   2.943  19.172  0.00  0.00    +0.000 A 
ENDBRANCH   1  14
BRANCH   4  15
ATOM     15  C   UNL     1       6.208   4.585  15.765  0.00  0.00    +0.000 C 
ATOM     16  C   UNL     1       6.482   4.181  14.305  0.00  0.00    +0.000 C 
BRANCH  15  17
ATOM     17  C   UNL     1       5.668   6.045  15.846  0.00  0.00    +0.000 C 
BRANCH  17  18
ATOM     18  O   UNL     1       6.423   6.930  16.662  0.00  0.00    +0.000 OA
ATOM     19  H   UNL     1       6.597   7.750  16.148  0.00  0.00    +0.000 HD
ENDBRANCH  17  18
ENDBRANCH  15  17
BRANCH  15  20
ATOM     20  C   UNL     1       7.573   4.548  16.512  0.00  0.00    +0.000 C 
BRANCH  20  21
ATOM     21  O   UNL     1       7.403   4.269  17.903  0.00  0.00    +0.000 OA
ATOM     22  H   UNL     1       6.446   4.275  18.090  0.00  0.00    +0.000 HD
ENDBRANCH  20  21
ENDBRANCH  15  20
ENDBRANCH   4  15
TORSDOF 6
ENDMDL
MODEL 7
REMARK VINA RESULT:      -6.5      2.047      2.550
REMARK  Name = 
REMARK  9 active torsions:
REMARK  status: ('A' for Active; 'I' for Inactive)
REMARK    1  A    between atoms: C_1  and  C_2
REMARK    2  A    between atoms: C_6  and  C_7
REMARK    3  A    between atoms: C_8  and  N_9
REMARK    4  A    between atoms: N_12  and  C_13
REMARK    5  A    between atoms: C_13  and  C_14
REMARK    6  A    between atoms: C_13  and  C_15
REMARK    7  A    between atoms: C_13  and  C_17
REMARK    8  A    between atoms: C_15  and  O_16
REMARK    9  A    between atoms: C_17  and  O_18
REMARK                            x       y       z     vdW  Elec       q    Type
REMARK                         _______ _______ _______ _____ _____    ______ ____
ROOT
ATOM      1  N   UNL     1       3.552   5.080  18.259  0.00  0.00    +0.000 N 
ATOM      2  C   UNL     1       4.890   4.991  18.594  0.00  0.00    +0.000 C 
ATOM      3  O   UNL     1       5.362   4.215  19.410  0.00  0.00    +0.000 OA
ATOM      4  N   UNL     1       5.670   5.907  17.921  0.00  0.00    +0.000 N 
ATOM      5  H   UNL     1       3.278   6.041  18.114  0.00  0.00    +0.000 HD
ATOM      6  H   UNL     1       5.323   6.198  17.015  0.00  0.00    +0.000 HD
ENDROOT
BRANCH   1  14
ATOM      7  C   UNL     1       3.110   2.248  17.353  0.00  0.00    +0.000 C 
ATOM      8  C   UNL     1       2.365   2.912  18.484  0.00  0.00    +0.000 A 
ATOM      9  C   UNL     1       1.394   2.136  19.147  0.00  0.00    +0.000 A 
ATOM     10  C   UNL     1       0.625   2.674  20.171  0.00  0.00    +0.000 A 
ATOM     11  C   UNL     1       0.821   3.995  20.557  0.00  0.00    +0.000 A 
ATOM     12  C   UNL     1       1.792   4.795  19.928  0.00  0.00    +0.000 A 
ATOM     13  C   UNL     1       2.008   6.186  20.457  0.00  0.00    +0.000 C 
ATOM     14  C   UNL     1       2.581   4.248  18.890  0.00  0.00    +0.000 A 
ENDBRANCH   1  14
BRANCH   4  15
ATOM     15  C   UNL     1       7.157   5.992  18.075  0.00  0.00    +0.000 C 
ATOM     16  C   UNL     1       7.721   7.202  17.309  0.00  0.00    +0.000 C 
BRANCH  15  17
ATOM     17  C   UNL     1       7.582   6.034  19.574  0.00  0.00    +0.000 C 
BRANCH  17  18
ATOM     18  O   UNL     1       8.536   5.057  19.965  0.00  0.00    +0.000 OA
ATOM     19  H   UNL     1       9.391   5.512  20.137  0.00  0.00    +0.000 HD
ENDBRANCH  17  18
ENDBRANCH  15  17
BRANCH  15  20
ATOM     20  C   UNL     1       7.791   4.717  17.444  0.00  0.00    +0.000 C 
BRANCH  20  21
ATOM     21  O   UNL     1       7.472   4.605  16.056  0.00  0.00    +0.000 OA
ATOM     22  H   UNL     1       6.910   3.816  15.945  0.00  0.00    +0.000 HD
ENDBRANCH  20  21
ENDBRANCH  15  20
ENDBRANCH   4  15
TORSDOF 6
ENDMDL
MODEL 8
REMARK VINA RESULT:      -6.4      2.077      2.491
REMARK  Name = 
REMARK  9 active torsions:
REMARK  status: ('A' for Active; 'I' for Inactive)
REMARK    1  A    between atoms: C_1  and  C_2
REMARK    2  A    between atoms: C_6  and  C_7
REMARK    3  A    between atoms: C_8  and  N_9
REMARK    4  A    between atoms: N_12  and  C_13
REMARK    5  A    between atoms: C_13  and  C_14
REMARK    6  A    between atoms: C_13  and  C_15
REMARK    7  A    between atoms: C_13  and  C_17
REMARK    8  A    between atoms: C_15  and  O_16
REMARK    9  A    between atoms: C_17  and  O_18
REMARK                            x       y       z     vdW  Elec       q    Type
REMARK                         _______ _______ _______ _____ _____    ______ ____
ROOT
ATOM      1  N   UNL     1       3.377   5.484  18.190  0.00  0.00    +0.000 N 
ATOM      2  C   UNL     1       4.734   5.304  18.384  0.00  0.00    +0.000 C 
ATOM      3  O   UNL     1       5.240   4.389  19.016  0.00  0.00    +0.000 OA
ATOM      4  N   UNL     1       5.491   6.297  17.803  0.00  0.00    +0.000 N 
ATOM      5  H   UNL     1       3.133   6.462  18.231  0.00  0.00    +0.000 HD
ATOM      6  H   UNL     1       5.082   6.745  16.991  0.00  0.00    +0.000 HD
ENDROOT
BRANCH   1  14
ATOM      7  C   UNL     1       1.933   6.162  20.738  0.00  0.00    +0.000 C 
ATOM      8  C   UNL     1       1.734   4.889  19.954  0.00  0.00    +0.000 A 
ATOM      9  C   UNL     1       0.806   3.964  20.469  0.00  0.00    +0.000 A 
ATOM     10  C   UNL     1       0.588   2.744  19.841  0.00  0.00    +0.000 A 
ATOM     11  C   UNL     1       1.287   2.433  18.680  0.00  0.00    +0.000 A 
ATOM     12  C   UNL     1       2.210   3.340  18.128  0.00  0.00    +0.000 A 
ATOM     13  C   UNL     1       2.863   2.972  16.825  0.00  0.00    +0.000 C 
ATOM     14  C   UNL     1       2.429   4.585  18.762  0.00  0.00    +0.000 A 
ENDBRANCH   1  14
BRANCH   4  15
ATOM     15  C   UNL     1       6.989   6.314  17.833  0.00  0.00    +0.000 C 
ATOM     16  C   UNL     1       7.535   7.640  17.273  0.00  0.00    +0.000 C 
BRANCH  15  17
ATOM     17  C   UNL     1       7.541   6.046  19.266  0.00  0.00    +0.000 C 
BRANCH  17  18
ATOM     18  O   UNL     1       8.379   4.905  19.391  0.00  0.00    +0.000 OA
ATOM     19  H   UNL     1       9.285   5.212  19.620  0.00  0.00    +0.000 HD
ENDBRANCH  17  18
ENDBRANCH  15  17
BRANCH  15  20
ATOM     20  C   UNL     1       7.514   5.177  16.907  0.00  0.00    +0.000 C 
BRANCH  20  21
ATOM     21  O   UNL     1       7.558   5.593  15.541  0.00  0.00    +0.000 OA
ATOM     22  H   UNL     1       8.289   6.231  15.450  0.00  0.00    +0.000 HD
ENDBRANCH  20  21
ENDBRANCH  15  20
ENDBRANCH   4  15
TORSDOF 6
ENDMDL
MODEL 9
REMARK VINA RESULT:      -6.4      1.617      2.197
REMARK  Name = 
REMARK  9 active torsions:
REMARK  status: ('A' for Active; 'I' for Inactive)
REMARK    1  A    between atoms: C_1  and  C_2
REMARK    2  A    between atoms: C_6  and  C_7
REMARK    3  A    between atoms: C_8  and  N_9
REMARK    4  A    between atoms: N_12  and  C_13
REMARK    5  A    between atoms: C_13  and  C_14
REMARK    6  A    between atoms: C_13  and  C_15
REMARK    7  A    between atoms: C_13  and  C_17
REMARK    8  A    between atoms: C_15  and  O_16
REMARK    9  A    between atoms: C_17  and  O_18
REMARK                            x       y       z     vdW  Elec       q    Type
REMARK                         _______ _______ _______ _____ _____    ______ ____
ROOT
ATOM      1  N   UNL     1       3.500   4.921  18.012  0.00  0.00    +0.000 N 
ATOM      2  C   UNL     1       4.873   4.976  18.165  0.00  0.00    +0.000 C 
ATOM      3  O   UNL     1       5.505   4.429  19.055  0.00  0.00    +0.000 OA
ATOM      4  N   UNL     1       5.485   5.753  17.206  0.00  0.00    +0.000 N 
ATOM      5  H   UNL     1       3.135   5.809  17.702  0.00  0.00    +0.000 HD
ATOM      6  H   UNL     1       5.004   5.814  16.316  0.00  0.00    +0.000 HD
ENDROOT
BRANCH   1  14
ATOM      7  C   UNL     1       3.163   1.941  17.809  0.00  0.00    +0.000 C 
ATOM      8  C   UNL     1       2.523   2.805  18.866  0.00  0.00    +0.000 A 
ATOM      9  C   UNL     1       1.709   2.153  19.813  0.00  0.00    +0.000 A 
ATOM     10  C   UNL     1       1.041   2.870  20.798  0.00  0.00    +0.000 A 
ATOM     11  C   UNL     1       1.184   4.251  20.858  0.00  0.00    +0.000 A 
ATOM     12  C   UNL     1       2.000   4.935  19.939  0.00  0.00    +0.000 A 
ATOM     13  C   UNL     1       2.175   6.417  20.120  0.00  0.00    +0.000 C 
ATOM     14  C   UNL     1       2.687   4.207  18.940  0.00  0.00    +0.000 A 
ENDBRANCH   1  14
BRANCH   4  15
ATOM     15  C   UNL     1       6.968   5.943  17.125  0.00  0.00    +0.000 C 
ATOM     16  C   UNL     1       7.338   7.435  17.219  0.00  0.00    +0.000 C 
BRANCH  15  17
ATOM     17  C   UNL     1       7.718   5.115  18.213  0.00  0.00    +0.000 C 
BRANCH  17  18
ATOM     18  O   UNL     1       8.371   3.943  17.744  0.00  0.00    +0.000 OA
ATOM     19  H   UNL     1       9.238   4.206  17.361  0.00  0.00    +0.000 HD
ENDBRANCH  17  18
ENDBRANCH  15  17
BRANCH  15  20
ATOM     20  C   UNL     1       7.455   5.440  15.734  0.00  0.00    +0.000 C 
BRANCH  20  21
ATOM     21  O   UNL     1       6.749   4.268  15.325  0.00  0.00    +0.000 OA
ATOM     22  H   UNL     1       6.722   4.264  14.350  0.00  0.00    +0.000 HD
ENDBRANCH  20  21
ENDBRANCH  15  20
ENDBRANCH   4  15
TORSDOF 6
ENDMDL
