MODEL 1
REMARK VINA RESULT:      -8.7      0.000      0.000
REMARK  Name = 
REMARK  7 active torsions:
REMARK  status: ('A' for Active; 'I' for Inactive)
REMARK    1  A    between atoms: C_2  and  C_12
REMARK    2  A    between atoms: N_3  and  C_4
REMARK    3  A    between atoms: C_4  and  C_5
REMARK    4  A    between atoms: N_14  and  C_15
REMARK    5  A    between atoms: C_15  and  C_16
REMARK    6  A    between atoms: N_20  and  S_21
REMARK    7  A    between atoms: S_21  and  C_24
REMARK                            x       y       z     vdW  Elec       q    Type
REMARK                         _______ _______ _______ _____ _____    ______ ____
ROOT
ATOM      1  C   UNL     1       2.284   7.989  18.665  0.00  0.00    +0.000 C 
ATOM      2  O   UNL     1       3.165   7.541  17.937  0.00  0.00    +0.000 OA
ATOM      3  N   UNL     1       1.847   7.294  19.788  0.00  0.00    +0.000 N 
ATOM      4  H   UNL     1       1.160   7.695  20.406  0.00  0.00    +0.000 HD
ENDROOT
BRANCH   1   6
ATOM      5  O   UNL     1       2.247  10.114  17.541  0.00  0.00    +0.000 OA
ATOM      6  C   UNL     1       1.637   9.366  18.301  0.00  0.00    +0.000 C 
ATOM      7  N   UNL     1       0.407   9.712  18.851  0.00  0.00    +0.000 N 
ATOM      8  H   UNL     1      -0.062   9.114  19.503  0.00  0.00    +0.000 HD
BRANCH   7   9
ATOM      9  C   UNL     1      -0.135  11.051  18.645  0.00  0.00    +0.000 C 
BRANCH   9  10
ATOM     10  C   UNL     1      -1.602  11.046  18.280  0.00  0.00    +0.000 A 
ATOM     11  C   UNL     1      -2.527  11.828  18.990  0.00  0.00    +0.000 A 
ATOM     12  C   UNL     1      -3.880  11.837  18.630  0.00  0.00    +0.000 A 
ATOM     13  C   UNL     1      -4.314  11.066  17.558  0.00  0.00    +0.000 A 
ATOM     14  F   UNL     1      -5.606  11.074  17.219  0.00  0.00    +0.000 F 
ATOM     15  C   UNL     1      -3.414  10.292  16.833  0.00  0.00    +0.000 A 
ATOM     16  C   UNL     1      -2.063  10.282  17.194  0.00  0.00    +0.000 A 
ENDBRANCH   9  10
ENDBRANCH   7   9
ENDBRANCH   1   6
BRANCH   3  17
ATOM     17  C   UNL     1       2.470   6.005  20.181  0.00  0.00    +0.000 C 
BRANCH  17  18
ATOM     18  C   UNL     1       2.072   4.811  19.278  0.00  0.00    +0.000 C 
ATOM     19  C   UNL     1       1.168   3.840  20.045  0.00  0.00    +0.000 C 
ATOM     20  C   UNL     1       1.210   2.583  19.209  0.00  0.00    +0.000 C 
ATOM     21  C   UNL     1       2.653   2.509  18.748  0.00  0.00    +0.000 C 
ATOM     22  N   UNL     1       3.148   3.916  18.697  0.00  0.00    +0.000 NA
BRANCH  22  23
ATOM     23  S   UNL     1       4.791   4.126  19.059  0.00  0.00    +0.000 S 
ATOM     24  O   UNL     1       4.958   5.402  19.725  0.00  0.00    +0.000 OA
ATOM     25  O   UNL     1       5.245   2.900  19.678  0.00  0.00    +0.000 OA
BRANCH  23  26
ATOM     26  C   UNL     1       5.547   4.248  17.435  0.00  0.00    +0.000 A 
ATOM     27  C   UNL     1       6.914   4.518  17.328  0.00  0.00    +0.000 A 
ATOM     28  C   UNL     1       7.476   4.750  16.066  0.00  0.00    +0.000 A 
ATOM     29  C   UNL     1       6.677   4.702  14.921  0.00  0.00    +0.000 A 
ATOM     30  C   UNL     1       5.323   4.381  15.027  0.00  0.00    +0.000 A 
ATOM     31  C   UNL     1       4.755   4.142  16.284  0.00  0.00    +0.000 A 
ENDBRANCH  23  26
ENDBRANCH  22  23
ENDBRANCH  17  18
ENDBRANCH   3  17
TORSDOF 7
ENDMDL
MODEL 2
REMARK VINA RESULT:      -8.6      1.737      2.082
REMARK  Name = 
REMARK  7 active torsions:
REMARK  status: ('A' for Active; 'I' for Inactive)
REMARK    1  A    between atoms: C_2  and  C_12
REMARK    2  A    between atoms: N_3  and  C_4
REMARK    3  A    between atoms: C_4  and  C_5
REMARK    4  A    between atoms: N_14  and  C_15
REMARK    5  A    between atoms: C_15  and  C_16
REMARK    6  A    between atoms: N_20  and  S_21
REMARK    7  A    between atoms: S_21  and  C_24
REMARK                            x       y       z     vdW  Elec       q    Type
REMARK                         _______ _______ _______ _____ _____    ______ ____
ROOT
ATOM      1  C   UNL     1       1.189   8.535  20.720  0.00  0.00    +0.000 C 
ATOM      2  O   UNL     1       1.657   8.282  21.826  0.00  0.00    +0.000 OA
ATOM      3  N   UNL     1       1.620   7.867  19.579  0.00  0.00    +0.000 N 
ATOM      4  H   UNL     1       1.193   8.046  18.685  0.00  0.00    +0.000 HD
ENDROOT
BRANCH   1   6
ATOM      5  O   UNL     1      -0.446  10.043  21.634  0.00  0.00    +0.000 OA
ATOM      6  C   UNL     1       0.094   9.646  20.605  0.00  0.00    +0.000 C 
ATOM      7  N   UNL     1      -0.248  10.143  19.351  0.00  0.00    +0.000 N 
ATOM      8  H   UNL     1       0.167   9.783  18.514  0.00  0.00    +0.000 HD
BRANCH   7   9
ATOM      9  C   UNL     1      -1.371  11.064  19.212  0.00  0.00    +0.000 C 
BRANCH   9  10
ATOM     10  C   UNL     1      -2.168  10.839  17.946  0.00  0.00    +0.000 A 
ATOM     11  C   UNL     1      -1.739   9.920  16.975  0.00  0.00    +0.000 A 
ATOM     12  C   UNL     1      -2.496   9.700  15.817  0.00  0.00    +0.000 A 
ATOM     13  C   UNL     1      -3.684  10.396  15.627  0.00  0.00    +0.000 A 
ATOM     14  F   UNL     1      -4.402  10.185  14.519  0.00  0.00    +0.000 F 
ATOM     15  C   UNL     1      -4.134  11.302  16.581  0.00  0.00    +0.000 A 
ATOM     16  C   UNL     1      -3.378  11.524  17.736  0.00  0.00    +0.000 A 
ENDBRANCH   9  10
ENDBRANCH   7   9
ENDBRANCH   1   6
BRANCH   3  17
ATOM     17  C   UNL     1       2.629   6.779  19.663  0.00  0.00    +0.000 C 
BRANCH  17  18
ATOM     18  C   UNL     1       2.050   5.363  19.424  0.00  0.00    +0.000 C 
ATOM     19  C   UNL     1       1.303   4.874  20.670  0.00  0.00    +0.000 C 
ATOM     20  C   UNL     1       1.169   3.387  20.440  0.00  0.00    +0.000 C 
ATOM     21  C   UNL     1       2.492   3.002  19.808  0.00  0.00    +0.000 C 
ATOM     22  N   UNL     1       2.981   4.216  19.091  0.00  0.00    +0.000 NA
BRANCH  22  23
ATOM     23  S   UNL     1       4.666   4.406  19.041  0.00  0.00    +0.000 S 
ATOM     24  O   UNL     1       5.019   5.594  19.790  0.00  0.00    +0.000 OA
ATOM     25  O   UNL     1       5.244   3.120  19.369  0.00  0.00    +0.000 OA
BRANCH  23  26
ATOM     26  C   UNL     1       4.980   4.735  17.304  0.00  0.00    +0.000 A 
ATOM     27  C   UNL     1       5.389   3.693  16.466  0.00  0.00    +0.000 A 
ATOM     28  C   UNL     1       5.766   3.974  15.147  0.00  0.00    +0.000 A 
ATOM     29  C   UNL     1       5.725   5.286  14.668  0.00  0.00    +0.000 A 
ATOM     30  C   UNL     1       5.267   6.316  15.491  0.00  0.00    +0.000 A 
ATOM     31  C   UNL     1       4.883   6.042  16.809  0.00  0.00    +0.000 A 
ENDBRANCH  23  26
ENDBRANCH  22  23
ENDBRANCH  17  18
ENDBRANCH   3  17
TORSDOF 7
ENDMDL
MODEL 3
REMARK VINA RESULT:      -8.5      3.093      3.516
REMARK  Name = 
REMARK  7 active torsions:
REMARK  status: ('A' for Active; 'I' for Inactive)
REMARK    1  A    between atoms: C_2  and  C_12
REMARK    2  A    between atoms: N_3  and  C_4
REMARK    3  A    between atoms: C_4  and  C_5
REMARK    4  A    between atoms: N_14  and  C_15
REMARK    5  A    between atoms: C_15  and  C_16
REMARK    6  A    between atoms: N_20  and  S_21
REMARK    7  A    between atoms: S_21  and  C_24
REMARK                            x       y       z     vdW  Elec       q    Type
REMARK                         _______ _______ _______ _____ _____    ______ ____
ROOT
ATOM      1  C   UNL     1       1.392   8.625  20.612  0.00  0.00    +0.000 C 
ATOM      2  O   UNL     1       1.142   9.111  19.513  0.00  0.00    +0.000 OA
ATOM      3  N   UNL     1       2.090   7.428  20.735  0.00  0.00    +0.000 N 
ATOM      4  H   UNL     1       2.333   7.065  21.642  0.00  0.00    +0.000 HD
ENDROOT
BRANCH   1   6
ATOM      5  O   UNL     1       1.653   9.441  22.859  0.00  0.00    +0.000 OA
ATOM      6  C   UNL     1       0.896   9.372  21.893  0.00  0.00    +0.000 C 
ATOM      7  N   UNL     1      -0.382   9.922  21.915  0.00  0.00    +0.000 N 
ATOM      8  H   UNL     1      -1.008   9.824  21.139  0.00  0.00    +0.000 HD
BRANCH   7   9
ATOM      9  C   UNL     1      -0.915  10.484  23.151  0.00  0.00    +0.000 C 
BRANCH   9  10
ATOM     10  C   UNL     1      -1.521  11.857  22.964  0.00  0.00    +0.000 A 
ATOM     11  C   UNL     1      -0.763  12.917  22.440  0.00  0.00    +0.000 A 
ATOM     12  C   UNL     1      -1.338  14.179  22.248  0.00  0.00    +0.000 A 
ATOM     13  C   UNL     1      -2.672  14.387  22.578  0.00  0.00    +0.000 A 
ATOM     14  F   UNL     1      -3.216  15.594  22.397  0.00  0.00    +0.000 F 
ATOM     15  C   UNL     1      -3.444  13.350  23.089  0.00  0.00    +0.000 A 
ATOM     16  C   UNL     1      -2.870  12.090  23.283  0.00  0.00    +0.000 A 
ENDBRANCH   9  10
ENDBRANCH   7   9
ENDBRANCH   1   6
BRANCH   3  17
ATOM     17  C   UNL     1       2.608   6.717  19.538  0.00  0.00    +0.000 C 
BRANCH  17  18
ATOM     18  C   UNL     1       2.042   5.287  19.360  0.00  0.00    +0.000 C 
ATOM     19  C   UNL     1       1.286   4.851  20.619  0.00  0.00    +0.000 C 
ATOM     20  C   UNL     1       1.164   3.354  20.459  0.00  0.00    +0.000 C 
ATOM     21  C   UNL     1       2.497   2.950  19.860  0.00  0.00    +0.000 C 
ATOM     22  N   UNL     1       2.985   4.132  19.091  0.00  0.00    +0.000 NA
BRANCH  22  23
ATOM     23  S   UNL     1       4.669   4.332  19.050  0.00  0.00    +0.000 S 
ATOM     24  O   UNL     1       5.014   5.504  19.828  0.00  0.00    +0.000 OA
ATOM     25  O   UNL     1       5.253   3.043  19.349  0.00  0.00    +0.000 OA
BRANCH  23  26
ATOM     26  C   UNL     1       4.986   4.704  17.322  0.00  0.00    +0.000 A 
ATOM     27  C   UNL     1       5.388   3.682  16.458  0.00  0.00    +0.000 A 
ATOM     28  C   UNL     1       5.767   3.994  15.146  0.00  0.00    +0.000 A 
ATOM     29  C   UNL     1       5.735   5.319  14.702  0.00  0.00    +0.000 A 
ATOM     30  C   UNL     1       5.284   6.330  15.551  0.00  0.00    +0.000 A 
ATOM     31  C   UNL     1       4.897   6.025  16.861  0.00  0.00    +0.000 A 
ENDBRANCH  23  26
ENDBRANCH  22  23
ENDBRANCH  17  18
ENDBRANCH   3  17
TORSDOF 7
ENDMDL
MODEL 4
REMARK VINA RESULT:      -8.5      3.020      4.779
REMARK  Name = 
REMARK  7 active torsions:
REMARK  status: ('A' for Active; 'I' for Inactive)
REMARK    1  A    between atoms: C_2  and  C_12
REMARK    2  A    between atoms: N_3  and  C_4
REMARK    3  A    between atoms: C_4  and  C_5
REMARK    4  A    between atoms: N_14  and  C_15
REMARK    5  A    between atoms: C_15  and  C_16
REMARK    6  A    between atoms: N_20  and  S_21
REMARK    7  A    between atoms: S_21  and  C_24
REMARK                            x       y       z     vdW  Elec       q    Type
REMARK                         _______ _______ _______ _____ _____    ______ ____
ROOT
ATOM      1  C   UNL     1       3.019   4.217  19.629  0.00  0.00    +0.000 C 
ATOM      2  O   UNL     1       2.694   3.065  19.358  0.00  0.00    +0.000 OA
ATOM      3  N   UNL     1       4.287   4.703  19.329  0.00  0.00    +0.000 N 
ATOM      4  H   UNL     1       4.526   5.664  19.510  0.00  0.00    +0.000 HD
ENDROOT
BRANCH   1   6
ATOM      5  O   UNL     1       0.936   4.640  20.752  0.00  0.00    +0.000 OA
ATOM      6  C   UNL     1       1.980   5.142  20.343  0.00  0.00    +0.000 C 
ATOM      7  N   UNL     1       2.252   6.499  20.483  0.00  0.00    +0.000 N 
ATOM      8  H   UNL     1       3.087   6.907  20.108  0.00  0.00    +0.000 HD
BRANCH   7   9
ATOM      9  C   UNL     1       1.231   7.400  21.005  0.00  0.00    +0.000 C 
BRANCH   9  10
ATOM     10  C   UNL     1       1.162   8.713  20.259  0.00  0.00    +0.000 A 
ATOM     11  C   UNL     1       1.723   8.848  18.979  0.00  0.00    +0.000 A 
ATOM     12  C   UNL     1       1.634  10.062  18.285  0.00  0.00    +0.000 A 
ATOM     13  C   UNL     1       0.982  11.143  18.866  0.00  0.00    +0.000 A 
ATOM     14  F   UNL     1       0.902  12.300  18.202  0.00  0.00    +0.000 F 
ATOM     15  C   UNL     1       0.410  11.029  20.128  0.00  0.00    +0.000 A 
ATOM     16  C   UNL     1       0.500   9.819  20.822  0.00  0.00    +0.000 A 
ENDBRANCH   9  10
ENDBRANCH   7   9
ENDBRANCH   1   6
BRANCH   3  17
ATOM     17  C   UNL     1       5.281   3.861  18.615  0.00  0.00    +0.000 C 
BRANCH  17  18
ATOM     18  C   UNL     1       6.603   4.594  18.280  0.00  0.00    +0.000 C 
ATOM     19  C   UNL     1       6.914   5.650  19.346  0.00  0.00    +0.000 C 
ATOM     20  C   UNL     1       7.956   6.522  18.687  0.00  0.00    +0.000 C 
ATOM     21  C   UNL     1       7.489   6.610  17.247  0.00  0.00    +0.000 C 
ATOM     22  N   UNL     1       6.733   5.353  16.975  0.00  0.00    +0.000 NA
BRANCH  22  23
ATOM     23  S   UNL     1       5.444   5.497  15.882  0.00  0.00    +0.000 S 
ATOM     24  O   UNL     1       4.362   4.646  16.330  0.00  0.00    +0.000 OA
ATOM     25  O   UNL     1       5.235   6.912  15.664  0.00  0.00    +0.000 OA
BRANCH  23  26
ATOM     26  C   UNL     1       6.116   4.789  14.375  0.00  0.00    +0.000 A 
ATOM     27  C   UNL     1       7.316   5.283  13.855  0.00  0.00    +0.000 A 
ATOM     28  C   UNL     1       7.769   4.828  12.610  0.00  0.00    +0.000 A 
ATOM     29  C   UNL     1       7.031   3.880  11.898  0.00  0.00    +0.000 A 
ATOM     30  C   UNL     1       5.861   3.351  12.443  0.00  0.00    +0.000 A 
ATOM     31  C   UNL     1       5.404   3.796  13.689  0.00  0.00    +0.000 A 
ENDBRANCH  23  26
ENDBRANCH  22  23
ENDBRANCH  17  18
ENDBRANCH   3  17
TORSDOF 7
ENDMDL
MODEL 5
REMARK VINA RESULT:      -8.4      1.254      1.540
REMARK  Name = 
REMARK  7 active torsions:
REMARK  status: ('A' for Active; 'I' for Inactive)
REMARK    1  A    between atoms: C_2  and  C_12
REMARK    2  A    between atoms: N_3  and  C_4
REMARK    3  A    between atoms: C_4  and  C_5
REMARK    4  A    between atoms: N_14  and  C_15
REMARK    5  A    between atoms: C_15  and  C_16
REMARK    6  A    between atoms: N_20  and  S_21
REMARK    7  A    between atoms: S_21  and  C_24
REMARK                            x       y       z     vdW  Elec       q    Type
REMARK                         _______ _______ _______ _____ _____    ______ ____
ROOT
ATOM      1  C   UNL     1       1.412   8.201  20.754  0.00  0.00    +0.000 C 
ATOM      2  O   UNL     1       1.491   8.019  21.965  0.00  0.00    +0.000 OA
ATOM      3  N   UNL     1       1.733   7.197  19.846  0.00  0.00    +0.000 N 
ATOM      4  H   UNL     1       1.616   7.341  18.857  0.00  0.00    +0.000 HD
ENDROOT
BRANCH   1   6
ATOM      5  O   UNL     1       0.776  10.500  21.054  0.00  0.00    +0.000 OA
ATOM      6  C   UNL     1       0.954   9.603  20.234  0.00  0.00    +0.000 C 
ATOM      7  N   UNL     1       0.747   9.795  18.871  0.00  0.00    +0.000 N 
ATOM      8  H   UNL     1       0.853   9.045  18.215  0.00  0.00    +0.000 HD
BRANCH   7   9
ATOM      9  C   UNL     1       0.173  11.045  18.388  0.00  0.00    +0.000 C 
BRANCH   9  10
ATOM     10  C   UNL     1      -1.315  10.954  18.131  0.00  0.00    +0.000 A 
ATOM     11  C   UNL     1      -1.835  10.030  17.211  0.00  0.00    +0.000 A 
ATOM     12  C   UNL     1      -3.216   9.936  16.996  0.00  0.00    +0.000 A 
ATOM     13  C   UNL     1      -4.081  10.763  17.702  0.00  0.00    +0.000 A 
ATOM     14  F   UNL     1      -5.398  10.673  17.492  0.00  0.00    +0.000 F 
ATOM     15  C   UNL     1      -3.590  11.679  18.626  0.00  0.00    +0.000 A 
ATOM     16  C   UNL     1      -2.211  11.775  18.839  0.00  0.00    +0.000 A 
ENDBRANCH   9  10
ENDBRANCH   7   9
ENDBRANCH   1   6
BRANCH   3  17
ATOM     17  C   UNL     1       2.132   5.844  20.311  0.00  0.00    +0.000 C 
BRANCH  17  18
ATOM     18  C   UNL     1       1.831   4.714  19.295  0.00  0.00    +0.000 C 
ATOM     19  C   UNL     1       0.950   3.638  19.938  0.00  0.00    +0.000 C 
ATOM     20  C   UNL     1       1.089   2.461  19.002  0.00  0.00    +0.000 C 
ATOM     21  C   UNL     1       2.550   2.498  18.598  0.00  0.00    +0.000 C 
ATOM     22  N   UNL     1       2.973   3.926  18.686  0.00  0.00    +0.000 NA
BRANCH  22  23
ATOM     23  S   UNL     1       4.588   4.184  19.134  0.00  0.00    +0.000 S 
ATOM     24  O   UNL     1       4.689   5.478  19.776  0.00  0.00    +0.000 OA
ATOM     25  O   UNL     1       5.034   2.983  19.808  0.00  0.00    +0.000 OA
BRANCH  23  26
ATOM     26  C   UNL     1       5.431   4.285  17.551  0.00  0.00    +0.000 A 
ATOM     27  C   UNL     1       6.801   4.556  17.515  0.00  0.00    +0.000 A 
ATOM     28  C   UNL     1       7.431   4.771  16.282  0.00  0.00    +0.000 A 
ATOM     29  C   UNL     1       6.695   4.705  15.096  0.00  0.00    +0.000 A 
ATOM     30  C   UNL     1       5.338   4.383  15.133  0.00  0.00    +0.000 A 
ATOM     31  C   UNL     1       4.703   4.161  16.361  0.00  0.00    +0.000 A 
ENDBRANCH  23  26
ENDBRANCH  22  23
ENDBRANCH  17  18
ENDBRANCH   3  17
TORSDOF 7
ENDMDL
MODEL 6
REMARK VINA RESULT:      -8.3      1.152      1.648
REMARK  Name = 
REMARK  7 active torsions:
REMARK  status: ('A' for Active; 'I' for Inactive)
REMARK    1  A    between atoms: C_2  and  C_12
REMARK    2  A    between atoms: N_3  and  C_4
REMARK    3  A    between atoms: C_4  and  C_5
REMARK    4  A    between atoms: N_14  and  C_15
REMARK    5  A    between atoms: C_15  and  C_16
REMARK    6  A    between atoms: N_20  and  S_21
REMARK    7  A    between atoms: S_21  and  C_24
REMARK                            x       y       z     vdW  Elec       q    Type
REMARK                         _______ _______ _______ _____ _____    ______ ____
ROOT
ATOM      1  C   UNL     1       1.656   9.049  18.624  0.00  0.00    +0.000 C 
ATOM      2  O   UNL     1       2.036   9.111  17.458  0.00  0.00    +0.000 OA
ATOM      3  N   UNL     1       1.977   7.966  19.436  0.00  0.00    +0.000 N 
ATOM      4  H   UNL     1       1.703   7.950  20.404  0.00  0.00    +0.000 HD
ENDROOT
BRANCH   1   6
ATOM      5  O   UNL     1       0.611  10.280  20.405  0.00  0.00    +0.000 OA
ATOM      6  C   UNL     1       0.779  10.214  19.190  0.00  0.00    +0.000 C 
ATOM      7  N   UNL     1       0.204  11.128  18.314  0.00  0.00    +0.000 N 
ATOM      8  H   UNL     1       0.311  11.041  17.321  0.00  0.00    +0.000 HD
BRANCH   7   9
ATOM      9  C   UNL     1      -0.739  12.124  18.810  0.00  0.00    +0.000 C 
BRANCH   9  10
ATOM     10  C   UNL     1      -2.179  11.779  18.506  0.00  0.00    +0.000 A 
ATOM     11  C   UNL     1      -2.508  10.908  17.455  0.00  0.00    +0.000 A 
ATOM     12  C   UNL     1      -3.844  10.576  17.195  0.00  0.00    +0.000 A 
ATOM     13  C   UNL     1      -4.854  11.111  17.985  0.00  0.00    +0.000 A 
ATOM     14  F   UNL     1      -6.128  10.794  17.731  0.00  0.00    +0.000 F 
ATOM     15  C   UNL     1      -4.551  11.967  19.037  0.00  0.00    +0.000 A 
ATOM     16  C   UNL     1      -3.219  12.301  19.297  0.00  0.00    +0.000 A 
ENDBRANCH   9  10
ENDBRANCH   7   9
ENDBRANCH   1   6
BRANCH   3  17
ATOM     17  C   UNL     1       2.842   6.866  18.938  0.00  0.00    +0.000 C 
BRANCH  17  18
ATOM     18  C   UNL     1       2.224   5.456  19.102  0.00  0.00    +0.000 C 
ATOM     19  C   UNL     1       1.465   5.357  20.430  0.00  0.00    +0.000 C 
ATOM     20  C   UNL     1       1.289   3.869  20.627  0.00  0.00    +0.000 C 
ATOM     21  C   UNL     1       2.602   3.287  20.139  0.00  0.00    +0.000 C 
ATOM     22  N   UNL     1       3.124   4.236  19.113  0.00  0.00    +0.000 NA
BRANCH  22  23
ATOM     23  S   UNL     1       4.813   4.360  19.025  0.00  0.00    +0.000 S 
ATOM     24  O   UNL     1       5.224   5.566  19.713  0.00  0.00    +0.000 OA
ATOM     25  O   UNL     1       5.349   3.070  19.401  0.00  0.00    +0.000 OA
BRANCH  23  26
ATOM     26  C   UNL     1       5.106   4.598  17.269  0.00  0.00    +0.000 A 
ATOM     27  C   UNL     1       5.499   3.513  16.481  0.00  0.00    +0.000 A 
ATOM     28  C   UNL     1       5.860   3.725  15.143  0.00  0.00    +0.000 A 
ATOM     29  C   UNL     1       5.818   5.011  14.599  0.00  0.00    +0.000 A 
ATOM     30  C   UNL     1       5.376   6.083  15.374  0.00  0.00    +0.000 A 
ATOM     31  C   UNL     1       5.008   5.880  16.710  0.00  0.00    +0.000 A 
ENDBRANCH  23  26
ENDBRANCH  22  23
ENDBRANCH  17  18
ENDBRANCH   3  17
TORSDOF 7
ENDMDL
MODEL 7
REMARK VINA RESULT:      -8.3      1.527      1.826
REMARK  Name = 
REMARK  7 active torsions:
REMARK  status: ('A' for Active; 'I' for Inactive)
REMARK    1  A    between atoms: C_2  and  C_12
REMARK    2  A    between atoms: N_3  and  C_4
REMARK    3  A    between atoms: C_4  and  C_5
REMARK    4  A    between atoms: N_14  and  C_15
REMARK    5  A    between atoms: C_15  and  C_16
REMARK    6  A    between atoms: N_20  and  S_21
REMARK    7  A    between atoms: S_21  and  C_24
REMARK                            x       y       z     vdW  Elec       q    Type
REMARK                         _______ _______ _______ _____ _____    ______ ____
ROOT
ATOM      1  C   UNL     1       1.360   7.725  20.506  0.00  0.00    +0.000 C 
ATOM      2  O   UNL     1       2.430   7.953  19.950  0.00  0.00    +0.000 OA
ATOM      3  N   UNL     1       1.016   6.443  20.922  0.00  0.00    +0.000 N 
ATOM      4  H   UNL     1       0.159   6.277  21.423  0.00  0.00    +0.000 HD
ENDROOT
BRANCH   1   6
ATOM      5  O   UNL     1      -0.315   8.914  21.756  0.00  0.00    +0.000 OA
ATOM      6  C   UNL     1       0.364   8.910  20.732  0.00  0.00    +0.000 C 
ATOM      7  N   UNL     1       0.261   9.912  19.773  0.00  0.00    +0.000 N 
ATOM      8  H   UNL     1       0.788   9.878  18.921  0.00  0.00    +0.000 HD
BRANCH   7   9
ATOM      9  C   UNL     1      -0.769  10.937  19.893  0.00  0.00    +0.000 C 
BRANCH   9  10
ATOM     10  C   UNL     1      -1.765  10.913  18.755  0.00  0.00    +0.000 A 
ATOM     11  C   UNL     1      -1.555  10.104  17.627  0.00  0.00    +0.000 A 
ATOM     12  C   UNL     1      -2.493  10.070  16.588  0.00  0.00    +0.000 A 
ATOM     13  C   UNL     1      -3.645  10.843  16.674  0.00  0.00    +0.000 A 
ATOM     14  F   UNL     1      -4.537  10.810  15.679  0.00  0.00    +0.000 F 
ATOM     15  C   UNL     1      -3.879  11.644  17.786  0.00  0.00    +0.000 A 
ATOM     16  C   UNL     1      -2.942  11.680  18.823  0.00  0.00    +0.000 A 
ENDBRANCH   9  10
ENDBRANCH   7   9
ENDBRANCH   1   6
BRANCH   3  17
ATOM     17  C   UNL     1       1.958   5.306  20.758  0.00  0.00    +0.000 C 
BRANCH  17  18
ATOM     18  C   UNL     1       1.651   4.405  19.536  0.00  0.00    +0.000 C 
ATOM     19  C   UNL     1       1.027   3.082  19.992  0.00  0.00    +0.000 C 
ATOM     20  C   UNL     1       1.170   2.188  18.783  0.00  0.00    +0.000 C 
ATOM     21  C   UNL     1       2.533   2.553  18.229  0.00  0.00    +0.000 C 
ATOM     22  N   UNL     1       2.777   3.973  18.619  0.00  0.00    +0.000 NA
BRANCH  22  23
ATOM     23  S   UNL     1       4.395   4.380  18.920  0.00  0.00    +0.000 S 
ATOM     24  O   UNL     1       4.429   5.639  19.634  0.00  0.00    +0.000 OA
ATOM     25  O   UNL     1       5.031   3.199  19.465  0.00  0.00    +0.000 OA
BRANCH  23  26
ATOM     26  C   UNL     1       5.051   4.661  17.272  0.00  0.00    +0.000 A 
ATOM     27  C   UNL     1       4.948   5.929  16.695  0.00  0.00    +0.000 A 
ATOM     28  C   UNL     1       5.333   6.116  15.361  0.00  0.00    +0.000 A 
ATOM     29  C   UNL     1       5.827   5.042  14.616  0.00  0.00    +0.000 A 
ATOM     30  C   UNL     1       5.977   3.789  15.211  0.00  0.00    +0.000 A 
ATOM     31  C   UNL     1       5.599   3.596  16.545  0.00  0.00    +0.000 A 
ENDBRANCH  23  26
ENDBRANCH  22  23
ENDBRANCH  17  18
ENDBRANCH   3  17
TORSDOF 7
ENDMDL
MODEL 8
REMARK VINA RESULT:      -8.3      0.962      1.324
REMARK  Name = 
REMARK  7 active torsions:
REMARK  status: ('A' for Active; 'I' for Inactive)
REMARK    1  A    between atoms: C_2  and  C_12
REMARK    2  A    between atoms: N_3  and  C_4
REMARK    3  A    between atoms: C_4  and  C_5
REMARK    4  A    between atoms: N_14  and  C_15
REMARK    5  A    between atoms: C_15  and  C_16
REMARK    6  A    between atoms: N_20  and  S_21
REMARK    7  A    between atoms: S_21  and  C_24
REMARK                            x       y       z     vdW  Elec       q    Type
REMARK                         _______ _______ _______ _____ _____    ______ ____
ROOT
ATOM      1  C   UNL     1       1.500   8.625  19.744  0.00  0.00    +0.000 C 
ATOM      2  O   UNL     1       1.305   8.571  20.954  0.00  0.00    +0.000 OA
ATOM      3  N   UNL     1       2.168   7.607  19.070  0.00  0.00    +0.000 N 
ATOM      4  H   UNL     1       2.277   7.638  18.070  0.00  0.00    +0.000 HD
ENDROOT
BRANCH   1   6
ATOM      5  O   UNL     1       1.803  10.507  18.279  0.00  0.00    +0.000 OA
ATOM      6  C   UNL     1       0.994   9.878  18.956  0.00  0.00    +0.000 C 
ATOM      7  N   UNL     1      -0.342  10.254  19.051  0.00  0.00    +0.000 N 
ATOM      8  H   UNL     1      -0.985   9.760  19.639  0.00  0.00    +0.000 HD
BRANCH   7   9
ATOM      9  C   UNL     1      -0.794  11.504  18.450  0.00  0.00    +0.000 C 
BRANCH   9  10
ATOM     10  C   UNL     1      -2.278  11.519  18.160  0.00  0.00    +0.000 A 
ATOM     11  C   UNL     1      -3.199  11.957  19.125  0.00  0.00    +0.000 A 
ATOM     12  C   UNL     1      -4.570  11.991  18.840  0.00  0.00    +0.000 A 
ATOM     13  C   UNL     1      -5.025  11.589  17.590  0.00  0.00    +0.000 A 
ATOM     14  F   UNL     1      -6.334  11.619  17.323  0.00  0.00    +0.000 F 
ATOM     15  C   UNL     1      -4.130  11.161  16.615  0.00  0.00    +0.000 A 
ATOM     16  C   UNL     1      -2.761  11.126  16.900  0.00  0.00    +0.000 A 
ENDBRANCH   9  10
ENDBRANCH   7   9
ENDBRANCH   1   6
BRANCH   3  17
ATOM     17  C   UNL     1       2.623   6.387  19.784  0.00  0.00    +0.000 C 
BRANCH  17  18
ATOM     18  C   UNL     1       2.121   5.064  19.154  0.00  0.00    +0.000 C 
ATOM     19  C   UNL     1       1.145   4.359  20.102  0.00  0.00    +0.000 C 
ATOM     20  C   UNL     1       1.077   2.952  19.556  0.00  0.00    +0.000 C 
ATOM     21  C   UNL     1       2.505   2.662  19.137  0.00  0.00    +0.000 C 
ATOM     22  N   UNL     1       3.114   3.979  18.790  0.00  0.00    +0.000 NA
BRANCH  22  23
ATOM     23  S   UNL     1       4.772   4.126  19.116  0.00  0.00    +0.000 S 
ATOM     24  O   UNL     1       4.988   5.341  19.874  0.00  0.00    +0.000 OA
ATOM     25  O   UNL     1       5.215   2.845  19.622  0.00  0.00    +0.000 OA
BRANCH  23  26
ATOM     26  C   UNL     1       5.482   4.360  17.483  0.00  0.00    +0.000 A 
ATOM     27  C   UNL     1       4.690   4.156  16.350  0.00  0.00    +0.000 A 
ATOM     28  C   UNL     1       5.276   4.204  15.079  0.00  0.00    +0.000 A 
ATOM     29  C   UNL     1       6.642   4.463  14.944  0.00  0.00    +0.000 A 
ATOM     30  C   UNL     1       7.419   4.718  16.075  0.00  0.00    +0.000 A 
ATOM     31  C   UNL     1       6.840   4.678  17.348  0.00  0.00    +0.000 A 
ENDBRANCH  23  26
ENDBRANCH  22  23
ENDBRANCH  17  18
ENDBRANCH   3  17
TORSDOF 7
ENDMDL
MODEL 9
REMARK VINA RESULT:      -8.2      1.923      2.403
REMARK  Name = 
REMARK  7 active torsions:
REMARK  status: ('A' for Active; 'I' for Inactive)
REMARK    1  A    between atoms: C_2  and  C_12
REMARK    2  A    between atoms: N_3  and  C_4
REMARK    3  A    between atoms: C_4  and  C_5
REMARK    4  A    between atoms: N_14  and  C_15
REMARK    5  A    between atoms: C_15  and  C_16
REMARK    6  A    between atoms: N_20  and  S_21
REMARK    7  A    between atoms: S_21  and  C_24
REMARK                            x       y       z     vdW  Elec       q    Type
REMARK                         _______ _______ _______ _____ _____    ______ ____
ROOT
ATOM      1  C   UNL     1       2.163   7.939  18.916  0.00  0.00    +0.000 C 
ATOM      2  O   UNL     1       3.055   7.560  18.163  0.00  0.00    +0.000 OA
ATOM      3  N   UNL     1       1.732   7.158  19.983  0.00  0.00    +0.000 N 
ATOM      4  H   UNL     1       1.036   7.501  20.624  0.00  0.00    +0.000 HD
ENDROOT
BRANCH   1   6
ATOM      5  O   UNL     1       1.823   9.949  17.641  0.00  0.00    +0.000 OA
ATOM      6  C   UNL     1       1.495   9.328  18.649  0.00  0.00    +0.000 C 
ATOM      7  N   UNL     1       0.566   9.827  19.556  0.00  0.00    +0.000 N 
ATOM      8  H   UNL     1       0.336   9.333  20.397  0.00  0.00    +0.000 HD
BRANCH   7   9
ATOM      9  C   UNL     1       0.051  11.183  19.403  0.00  0.00    +0.000 C 
BRANCH   9  10
ATOM     10  C   UNL     1      -0.849  11.608  20.542  0.00  0.00    +0.000 A 
ATOM     11  C   UNL     1      -2.009  12.362  20.305  0.00  0.00    +0.000 A 
ATOM     12  C   UNL     1      -2.850  12.731  21.363  0.00  0.00    +0.000 A 
ATOM     13  C   UNL     1      -2.535  12.345  22.661  0.00  0.00    +0.000 A 
ATOM     14  F   UNL     1      -3.337  12.701  23.668  0.00  0.00    +0.000 F 
ATOM     15  C   UNL     1      -1.397  11.589  22.918  0.00  0.00    +0.000 A 
ATOM     16  C   UNL     1      -0.556  11.222  21.863  0.00  0.00    +0.000 A 
ENDBRANCH   9  10
ENDBRANCH   7   9
ENDBRANCH   1   6
BRANCH   3  17
ATOM     17  C   UNL     1       2.376   5.853  20.285  0.00  0.00    +0.000 C 
BRANCH  17  18
ATOM     18  C   UNL     1       2.001   4.722  19.297  0.00  0.00    +0.000 C 
ATOM     19  C   UNL     1       1.098   3.691  19.983  0.00  0.00    +0.000 C 
ATOM     20  C   UNL     1       1.163   2.495  19.062  0.00  0.00    +0.000 C 
ATOM     21  C   UNL     1       2.612   2.468  18.614  0.00  0.00    +0.000 C 
ATOM     22  N   UNL     1       3.092   3.880  18.667  0.00  0.00    +0.000 NA
BRANCH  22  23
ATOM     23  S   UNL     1       4.729   4.080  19.064  0.00  0.00    +0.000 S 
ATOM     24  O   UNL     1       4.885   5.341  19.759  0.00  0.00    +0.000 OA
ATOM     25  O   UNL     1       5.170   2.840  19.666  0.00  0.00    +0.000 OA
BRANCH  23  26
ATOM     26  C   UNL     1       5.514   4.235  17.456  0.00  0.00    +0.000 A 
ATOM     27  C   UNL     1       6.873   4.551  17.379  0.00  0.00    +0.000 A 
ATOM     28  C   UNL     1       7.454   4.806  16.130  0.00  0.00    +0.000 A 
ATOM     29  C   UNL     1       6.681   4.736  14.968  0.00  0.00    +0.000 A 
ATOM     30  C   UNL     1       5.337   4.370  15.044  0.00  0.00    +0.000 A 
ATOM     31  C   UNL     1       4.750   4.107  16.288  0.00  0.00    +0.000 A 
ENDBRANCH  23  26
ENDBRANCH  22  23
ENDBRANCH  17  18
ENDBRANCH   3  17
TORSDOF 7
ENDMDL
