MODEL 1
REMARK VINA RESULT:      -8.3      0.000      0.000
REMARK  Name = 
REMARK  7 active torsions:
REMARK  status: ('A' for Active; 'I' for Inactive)
REMARK    1  A    between atoms: O_1  and  C_2
REMARK    2  A    between atoms: C_2  and  C_3
REMARK    3  A    between atoms: C_6  and  C_7
REMARK    4  A    between atoms: N_11  and  C_12
REMARK    5  A    between atoms: C_15  and  O_16
REMARK    6  A    between atoms: O_16  and  C_17
REMARK    7  A    between atoms: C_17  and  C_18
REMARK                            x       y       z     vdW  Elec       q    Type
REMARK                         _______ _______ _______ _____ _____    ______ ____
ROOT
ATOM      1  C   UNL     1       3.428   6.823  17.931  0.00  0.00    +0.000 A 
ATOM      2  C   UNL     1       2.777   8.036  17.758  0.00  0.00    +0.000 A 
ATOM      3  C   UNL     1       1.952   8.267  18.892  0.00  0.00    +0.000 A 
ATOM      4  C   UNL     1       1.030   9.242  19.304  0.00  0.00    +0.000 A 
ATOM      5  N   UNL     1       0.749  10.396  18.534  0.00  0.00    +0.000 N 
ATOM      6  N   UNL     1       0.418   9.034  20.511  0.00  0.00    +0.000 NA
ATOM      7  C   UNL     1       0.764   7.980  21.269  0.00  0.00    +0.000 A 
ATOM      8  N   UNL     1       1.655   7.028  20.979  0.00  0.00    +0.000 NA
ATOM      9  C   UNL     1       2.198   7.224  19.770  0.00  0.00    +0.000 A 
ATOM     10  N   UNL     1       3.106   6.384  19.195  0.00  0.00    +0.000 N 
ATOM     11  H   UNL     1       1.202  10.408  17.624  0.00  0.00    +0.000 HD
ATOM     12  H   UNL     1       3.446   5.545  19.639  0.00  0.00    +0.000 HD
ENDROOT
BRANCH   5  13
ATOM     13  C   UNL     1       0.461  11.684  19.033  0.00  0.00    +0.000 A 
ATOM     14  C   UNL     1       1.444  12.672  19.119  0.00  0.00    +0.000 A 
ATOM     15  C   UNL     1       1.169  13.945  19.590  0.00  0.00    +0.000 A 
ATOM     16  C   UNL     1      -0.127  14.299  19.945  0.00  0.00    +0.000 A 
ATOM     17  C   UNL     1      -1.109  13.299  19.967  0.00  0.00    +0.000 A 
ATOM     18 CL   UNL     1      -2.714  13.639  20.511  0.00  0.00    +0.000 Cl
ATOM     19  C   UNL     1      -0.815  11.997  19.523  0.00  0.00    +0.000 A 
BRANCH  16  20
ATOM     20  O   UNL     1      -0.467  15.600  20.239  0.00  0.00    +0.000 OA
BRANCH  20  21
ATOM     21  C   UNL     1       0.615  16.520  20.025  0.00  0.00    +0.000 C 
BRANCH  21  22
ATOM     22  C   UNL     1       0.532  17.284  18.732  0.00  0.00    +0.000 A 
ATOM     23  C   UNL     1      -0.612  17.982  18.333  0.00  0.00    +0.000 A 
ATOM     24  C   UNL     1      -0.646  18.629  17.098  0.00  0.00    +0.000 A 
ATOM     25  C   UNL     1       0.471  18.593  16.255  0.00  0.00    +0.000 A 
ATOM     26  C   UNL     1       1.608  17.913  16.658  0.00  0.00    +0.000 A 
ATOM     27  F   UNL     1       2.679  17.872  15.853  0.00  0.00    +0.000 F 
ATOM     28  C   UNL     1       1.652  17.264  17.884  0.00  0.00    +0.000 A 
ENDBRANCH  21  22
ENDBRANCH  20  21
ENDBRANCH  16  20
ENDBRANCH   5  13
BRANCH   1  32
ATOM     29  C   UNL     1       5.633   4.587  15.031  0.00  0.00    +0.000 A 
ATOM     30  C   UNL     1       5.684   5.985  15.040  0.00  0.00    +0.000 A 
ATOM     31  C   UNL     1       5.002   6.712  16.018  0.00  0.00    +0.000 A 
ATOM     32  C   UNL     1       4.250   6.056  16.999  0.00  0.00    +0.000 A 
ATOM     33  C   UNL     1       4.230   4.657  17.013  0.00  0.00    +0.000 A 
ATOM     34  C   UNL     1       4.915   3.930  16.036  0.00  0.00    +0.000 A 
BRANCH  29  35
ATOM     35  C   UNL     1       6.294   3.800  13.936  0.00  0.00    +0.000 C 
BRANCH  35  36
ATOM     36  O   UNL     1       5.387   3.631  12.858  0.00  0.00    +0.000 OA
ATOM     37  H   UNL     1       5.464   2.706  12.572  0.00  0.00    +0.000 HD
ENDBRANCH  35  36
ENDBRANCH  29  35
ENDBRANCH   1  32
TORSDOF 7
ENDMDL
MODEL 2
REMARK VINA RESULT:      -8.2      4.387      5.935
REMARK  Name = 
REMARK  7 active torsions:
REMARK  status: ('A' for Active; 'I' for Inactive)
REMARK    1  A    between atoms: O_1  and  C_2
REMARK    2  A    between atoms: C_2  and  C_3
REMARK    3  A    between atoms: C_6  and  C_7
REMARK    4  A    between atoms: N_11  and  C_12
REMARK    5  A    between atoms: C_15  and  O_16
REMARK    6  A    between atoms: O_16  and  C_17
REMARK    7  A    between atoms: C_17  and  C_18
REMARK                            x       y       z     vdW  Elec       q    Type
REMARK                         _______ _______ _______ _____ _____    ______ ____
ROOT
ATOM      1  C   UNL     1       2.009   7.314  19.874  0.00  0.00    +0.000 A 
ATOM      2  C   UNL     1       1.258   8.106  20.731  0.00  0.00    +0.000 A 
ATOM      3  C   UNL     1       1.181   9.414  20.180  0.00  0.00    +0.000 A 
ATOM      4  C   UNL     1       0.638  10.653  20.557  0.00  0.00    +0.000 A 
ATOM      5  N   UNL     1      -0.100  10.825  21.752  0.00  0.00    +0.000 N 
ATOM      6  N   UNL     1       0.841  11.698  19.697  0.00  0.00    +0.000 NA
ATOM      7  C   UNL     1       1.465  11.494  18.525  0.00  0.00    +0.000 A 
ATOM      8  N   UNL     1       1.978  10.348  18.065  0.00  0.00    +0.000 NA
ATOM      9  C   UNL     1       1.816   9.355  18.950  0.00  0.00    +0.000 A 
ATOM     10  N   UNL     1       2.279   8.086  18.766  0.00  0.00    +0.000 N 
ATOM     11  H   UNL     1      -0.123  10.003  22.350  0.00  0.00    +0.000 HD
ATOM     12  H   UNL     1       2.782   7.791  17.943  0.00  0.00    +0.000 HD
ENDROOT
BRANCH   5  13
ATOM     13  C   UNL     1      -1.211  11.678  21.933  0.00  0.00    +0.000 A 
ATOM     14  C   UNL     1      -1.520  12.682  21.014  0.00  0.00    +0.000 A 
ATOM     15  C   UNL     1      -2.617  13.513  21.171  0.00  0.00    +0.000 A 
ATOM     16  C   UNL     1      -3.489  13.331  22.238  0.00  0.00    +0.000 A 
ATOM     17  C   UNL     1      -3.147  12.400  23.229  0.00  0.00    +0.000 A 
ATOM     18 CL   UNL     1      -4.121  12.205  24.642  0.00  0.00    +0.000 Cl
ATOM     19  C   UNL     1      -2.009  11.585  23.082  0.00  0.00    +0.000 A 
BRANCH  16  20
ATOM     20  O   UNL     1      -4.681  14.013  22.322  0.00  0.00    +0.000 OA
BRANCH  20  21
ATOM     21  C   UNL     1      -5.322  14.174  21.046  0.00  0.00    +0.000 C 
BRANCH  21  22
ATOM     22  C   UNL     1      -5.929  12.913  20.496  0.00  0.00    +0.000 A 
ATOM     23  C   UNL     1      -6.857  12.143  21.205  0.00  0.00    +0.000 A 
ATOM     24  C   UNL     1      -7.346  10.954  20.662  0.00  0.00    +0.000 A 
ATOM     25  C   UNL     1      -6.920  10.532  19.398  0.00  0.00    +0.000 A 
ATOM     26  C   UNL     1      -6.013  11.303  18.690  0.00  0.00    +0.000 A 
ATOM     27  F   UNL     1      -5.599  10.902  17.481  0.00  0.00    +0.000 F 
ATOM     28  C   UNL     1      -5.518  12.486  19.222  0.00  0.00    +0.000 A 
ENDBRANCH  21  22
ENDBRANCH  20  21
ENDBRANCH  16  20
ENDBRANCH   5  13
BRANCH   1  32
ATOM     29  C   UNL     1       3.392   3.280  20.157  0.00  0.00    +0.000 A 
ATOM     30  C   UNL     1       4.183   4.262  19.550  0.00  0.00    +0.000 A 
ATOM     31  C   UNL     1       3.750   5.589  19.502  0.00  0.00    +0.000 A 
ATOM     32  C   UNL     1       2.518   5.957  20.051  0.00  0.00    +0.000 A 
ATOM     33  C   UNL     1       1.744   4.982  20.692  0.00  0.00    +0.000 A 
ATOM     34  C   UNL     1       2.178   3.656  20.743  0.00  0.00    +0.000 A 
BRANCH  29  35
ATOM     35  C   UNL     1       3.810   1.837  20.141  0.00  0.00    +0.000 C 
BRANCH  35  36
ATOM     36  O   UNL     1       5.195   1.748  19.845  0.00  0.00    +0.000 OA
ATOM     37  H   UNL     1       5.667   1.854  20.687  0.00  0.00    +0.000 HD
ENDBRANCH  35  36
ENDBRANCH  29  35
ENDBRANCH   1  32
TORSDOF 7
ENDMDL
MODEL 3
REMARK VINA RESULT:      -8.2      4.853     11.491
REMARK  Name = 
REMARK  7 active torsions:
REMARK  status: ('A' for Active; 'I' for Inactive)
REMARK    1  A    between atoms: O_1  and  C_2
REMARK    2  A    between atoms: C_2  and  C_3
REMARK    3  A    between atoms: C_6  and  C_7
REMARK    4  A    between atoms: N_11  and  C_12
REMARK    5  A    between atoms: C_15  and  O_16
REMARK    6  A    between atoms: O_16  and  C_17
REMARK    7  A    between atoms: C_17  and  C_18
REMARK                            x       y       z     vdW  Elec       q    Type
REMARK                         _______ _______ _______ _____ _____    ______ ____
ROOT
ATOM      1  C   UNL     1      -1.073  12.282  20.630  0.00  0.00    +0.000 A 
ATOM      2  C   UNL     1      -0.663  11.023  20.214  0.00  0.00    +0.000 A 
ATOM      3  C   UNL     1       0.497  11.174  19.407  0.00  0.00    +0.000 A 
ATOM      4  C   UNL     1       1.342  10.334  18.663  0.00  0.00    +0.000 A 
ATOM      5  N   UNL     1       1.171   8.930  18.621  0.00  0.00    +0.000 N 
ATOM      6  N   UNL     1       2.364  10.942  17.983  0.00  0.00    +0.000 NA
ATOM      7  C   UNL     1       2.564  12.264  18.108  0.00  0.00    +0.000 A 
ATOM      8  N   UNL     1       1.840  13.132  18.822  0.00  0.00    +0.000 NA
ATOM      9  C   UNL     1       0.814  12.523  19.431  0.00  0.00    +0.000 A 
ATOM     10  N   UNL     1      -0.115  13.168  20.192  0.00  0.00    +0.000 N 
ATOM     11  H   UNL     1       0.337   8.598  19.098  0.00  0.00    +0.000 HD
ATOM     12  H   UNL     1      -0.102  14.163  20.359  0.00  0.00    +0.000 HD
ENDROOT
BRANCH   5  13
ATOM     13  C   UNL     1       2.199   7.965  18.554  0.00  0.00    +0.000 A 
ATOM     14  C   UNL     1       2.475   7.114  19.625  0.00  0.00    +0.000 A 
ATOM     15  C   UNL     1       3.469   6.152  19.565  0.00  0.00    +0.000 A 
ATOM     16  C   UNL     1       4.196   5.964  18.394  0.00  0.00    +0.000 A 
ATOM     17  C   UNL     1       4.011   6.871  17.342  0.00  0.00    +0.000 A 
ATOM     18 CL   UNL     1       4.963   6.772  15.903  0.00  0.00    +0.000 Cl
ATOM     19  C   UNL     1       3.025   7.871  17.424  0.00  0.00    +0.000 A 
BRANCH  16  20
ATOM     20  O   UNL     1       5.057   4.902  18.240  0.00  0.00    +0.000 OA
BRANCH  20  21
ATOM     21  C   UNL     1       4.409   3.732  17.715  0.00  0.00    +0.000 C 
BRANCH  21  22
ATOM     22  C   UNL     1       3.201   3.291  18.495  0.00  0.00    +0.000 A 
ATOM     23  C   UNL     1       1.919   3.226  17.941  0.00  0.00    +0.000 A 
ATOM     24  C   UNL     1       0.829   2.858  18.730  0.00  0.00    +0.000 A 
ATOM     25  C   UNL     1       1.015   2.540  20.080  0.00  0.00    +0.000 A 
ATOM     26  C   UNL     1       2.288   2.590  20.624  0.00  0.00    +0.000 A 
ATOM     27  F   UNL     1       2.472   2.289  21.917  0.00  0.00    +0.000 F 
ATOM     28  C   UNL     1       3.379   2.957  19.848  0.00  0.00    +0.000 A 
ENDBRANCH  21  22
ENDBRANCH  20  21
ENDBRANCH  16  20
ENDBRANCH   5  13
BRANCH   1  32
ATOM     29  C   UNL     1      -4.734  13.248  22.613  0.00  0.00    +0.000 A 
ATOM     30  C   UNL     1      -3.713  12.575  23.293  0.00  0.00    +0.000 A 
ATOM     31  C   UNL     1      -2.499  12.303  22.657  0.00  0.00    +0.000 A 
ATOM     32  C   UNL     1      -2.286  12.691  21.330  0.00  0.00    +0.000 A 
ATOM     33  C   UNL     1      -3.294  13.398  20.663  0.00  0.00    +0.000 A 
ATOM     34  C   UNL     1      -4.506  13.673  21.299  0.00  0.00    +0.000 A 
BRANCH  29  35
ATOM     35  C   UNL     1      -6.072  13.472  23.259  0.00  0.00    +0.000 C 
BRANCH  35  36
ATOM     36  O   UNL     1      -5.940  14.422  24.305  0.00  0.00    +0.000 OA
ATOM     37  H   UNL     1      -5.473  15.186  23.929  0.00  0.00    +0.000 HD
ENDBRANCH  35  36
ENDBRANCH  29  35
ENDBRANCH   1  32
TORSDOF 7
ENDMDL
MODEL 4
REMARK VINA RESULT:      -8.1      2.764      3.896
REMARK  Name = 
REMARK  7 active torsions:
REMARK  status: ('A' for Active; 'I' for Inactive)
REMARK    1  A    between atoms: O_1  and  C_2
REMARK    2  A    between atoms: C_2  and  C_3
REMARK    3  A    between atoms: C_6  and  C_7
REMARK    4  A    between atoms: N_11  and  C_12
REMARK    5  A    between atoms: C_15  and  O_16
REMARK    6  A    between atoms: O_16  and  C_17
REMARK    7  A    between atoms: C_17  and  C_18
REMARK                            x       y       z     vdW  Elec       q    Type
REMARK                         _______ _______ _______ _____ _____    ______ ____
ROOT
ATOM      1  C   UNL     1       3.147   7.140  18.307  0.00  0.00    +0.000 A 
ATOM      2  C   UNL     1       2.649   8.405  18.033  0.00  0.00    +0.000 A 
ATOM      3  C   UNL     1       1.763   8.775  19.080  0.00  0.00    +0.000 A 
ATOM      4  C   UNL     1       0.922   9.860  19.374  0.00  0.00    +0.000 A 
ATOM      5  N   UNL     1       0.835  11.000  18.540  0.00  0.00    +0.000 N 
ATOM      6  N   UNL     1       0.192   9.774  20.529  0.00  0.00    +0.000 NA
ATOM      7  C   UNL     1       0.355   8.726  21.353  0.00  0.00    +0.000 A 
ATOM      8  N   UNL     1       1.158   7.672  21.177  0.00  0.00    +0.000 NA
ATOM      9  C   UNL     1       1.818   7.753  20.015  0.00  0.00    +0.000 A 
ATOM     10  N   UNL     1       2.674   6.796  19.554  0.00  0.00    +0.000 N 
ATOM     11  H   UNL     1       1.360  10.923  17.673  0.00  0.00    +0.000 HD
ATOM     12  H   UNL     1       2.881   5.947  20.056  0.00  0.00    +0.000 HD
ENDROOT
BRANCH   5  13
ATOM     13  C   UNL     1       0.649  12.334  18.964  0.00  0.00    +0.000 A 
ATOM     14  C   UNL     1      -0.260  13.184  18.331  0.00  0.00    +0.000 A 
ATOM     15  C   UNL     1      -0.463  14.488  18.750  0.00  0.00    +0.000 A 
ATOM     16  C   UNL     1       0.202  14.980  19.867  0.00  0.00    +0.000 A 
ATOM     17  C   UNL     1       1.194  14.184  20.457  0.00  0.00    +0.000 A 
ATOM     18 CL   UNL     1       2.144  14.775  21.774  0.00  0.00    +0.000 Cl
ATOM     19  C   UNL     1       1.423  12.872  20.003  0.00  0.00    +0.000 A 
BRANCH  16  20
ATOM     20  O   UNL     1      -0.113  16.201  20.417  0.00  0.00    +0.000 OA
BRANCH  20  21
ATOM     21  C   UNL     1      -1.505  16.319  20.752  0.00  0.00    +0.000 C 
BRANCH  21  22
ATOM     22  C   UNL     1      -1.945  15.433  21.885  0.00  0.00    +0.000 A 
ATOM     23  C   UNL     1      -1.318  15.427  23.134  0.00  0.00    +0.000 A 
ATOM     24  C   UNL     1      -1.740  14.545  24.130  0.00  0.00    +0.000 A 
ATOM     25  C   UNL     1      -2.804  13.669  23.886  0.00  0.00    +0.000 A 
ATOM     26  C   UNL     1      -3.434  13.686  22.653  0.00  0.00    +0.000 A 
ATOM     27  F   UNL     1      -4.450  12.847  22.413  0.00  0.00    +0.000 F 
ATOM     28  C   UNL     1      -3.020  14.558  21.655  0.00  0.00    +0.000 A 
ENDBRANCH  21  22
ENDBRANCH  20  21
ENDBRANCH  16  20
ENDBRANCH   5  13
BRANCH   1  32
ATOM     29  C   UNL     1       5.329   4.552  15.697  0.00  0.00    +0.000 A 
ATOM     30  C   UNL     1       5.537   5.935  15.665  0.00  0.00    +0.000 A 
ATOM     31  C   UNL     1       4.859   6.774  16.552  0.00  0.00    +0.000 A 
ATOM     32  C   UNL     1       3.955   6.248  17.481  0.00  0.00    +0.000 A 
ATOM     33  C   UNL     1       3.775   4.861  17.538  0.00  0.00    +0.000 A 
ATOM     34  C   UNL     1       4.456   4.022  16.653  0.00  0.00    +0.000 A 
BRANCH  29  35
ATOM     35  C   UNL     1       5.990   3.651  14.694  0.00  0.00    +0.000 C 
BRANCH  35  36
ATOM     36  O   UNL     1       6.748   4.431  13.782  0.00  0.00    +0.000 OA
ATOM     37  H   UNL     1       7.606   4.599  14.206  0.00  0.00    +0.000 HD
ENDBRANCH  35  36
ENDBRANCH  29  35
ENDBRANCH   1  32
TORSDOF 7
ENDMDL
MODEL 5
REMARK VINA RESULT:      -8.1      3.620     10.766
REMARK  Name = 
REMARK  7 active torsions:
REMARK  status: ('A' for Active; 'I' for Inactive)
REMARK    1  A    between atoms: O_1  and  C_2
REMARK    2  A    between atoms: C_2  and  C_3
REMARK    3  A    between atoms: C_6  and  C_7
REMARK    4  A    between atoms: N_11  and  C_12
REMARK    5  A    between atoms: C_15  and  O_16
REMARK    6  A    between atoms: O_16  and  C_17
REMARK    7  A    between atoms: C_17  and  C_18
REMARK                            x       y       z     vdW  Elec       q    Type
REMARK                         _______ _______ _______ _____ _____    ______ ____
ROOT
ATOM      1  C   UNL     1      -0.547  12.887  20.544  0.00  0.00    +0.000 A 
ATOM      2  C   UNL     1       0.249  11.892  19.995  0.00  0.00    +0.000 A 
ATOM      3  C   UNL     1       0.380  10.846  20.948  0.00  0.00    +0.000 A 
ATOM      4  C   UNL     1       1.066   9.624  21.039  0.00  0.00    +0.000 A 
ATOM      5  N   UNL     1       1.854   9.116  19.980  0.00  0.00    +0.000 N 
ATOM      6  N   UNL     1       0.922   8.928  22.209  0.00  0.00    +0.000 NA
ATOM      7  C   UNL     1       0.098   9.382  23.167  0.00  0.00    +0.000 A 
ATOM      8  N   UNL     1      -0.623  10.507  23.152  0.00  0.00    +0.000 NA
ATOM      9  C   UNL     1      -0.422  11.198  22.023  0.00  0.00    +0.000 A 
ATOM     10  N   UNL     1      -0.994  12.405  21.754  0.00  0.00    +0.000 N 
ATOM     11  H   UNL     1       1.952   9.751  19.192  0.00  0.00    +0.000 HD
ATOM     12  H   UNL     1      -1.621  12.878  22.387  0.00  0.00    +0.000 HD
ENDROOT
BRANCH   5  13
ATOM     13  C   UNL     1       2.001   7.758  19.625  0.00  0.00    +0.000 A 
ATOM     14  C   UNL     1       2.217   7.366  18.303  0.00  0.00    +0.000 A 
ATOM     15  C   UNL     1       2.382   6.038  17.945  0.00  0.00    +0.000 A 
ATOM     16  C   UNL     1       2.392   5.044  18.917  0.00  0.00    +0.000 A 
ATOM     17  C   UNL     1       2.074   5.397  20.236  0.00  0.00    +0.000 A 
ATOM     18 CL   UNL     1       1.951   4.198  21.475  0.00  0.00    +0.000 Cl
ATOM     19  C   UNL     1       1.871   6.745  20.586  0.00  0.00    +0.000 A 
BRANCH  16  20
ATOM     20  O   UNL     1       2.734   3.745  18.620  0.00  0.00    +0.000 OA
BRANCH  20  21
ATOM     21  C   UNL     1       4.113   3.455  18.899  0.00  0.00    +0.000 C 
BRANCH  21  22
ATOM     22  C   UNL     1       5.085   4.090  17.944  0.00  0.00    +0.000 A 
ATOM     23  C   UNL     1       5.052   3.867  16.564  0.00  0.00    +0.000 A 
ATOM     24  C   UNL     1       6.014   4.446  15.735  0.00  0.00    +0.000 A 
ATOM     25  C   UNL     1       7.009   5.265  16.279  0.00  0.00    +0.000 A 
ATOM     26  C   UNL     1       7.031   5.497  17.644  0.00  0.00    +0.000 A 
ATOM     27  F   UNL     1       7.985   6.277  18.171  0.00  0.00    +0.000 F 
ATOM     28  C   UNL     1       6.081   4.924  18.478  0.00  0.00    +0.000 A 
ENDBRANCH  21  22
ENDBRANCH  20  21
ENDBRANCH  16  20
ENDBRANCH   5  13
BRANCH   1  32
ATOM     29  C   UNL     1      -1.234  16.902  19.247  0.00  0.00    +0.000 A 
ATOM     30  C   UNL     1      -0.346  16.072  18.553  0.00  0.00    +0.000 A 
ATOM     31  C   UNL     1      -0.159  14.746  18.950  0.00  0.00    +0.000 A 
ATOM     32  C   UNL     1      -0.850  14.227  20.050  0.00  0.00    +0.000 A 
ATOM     33  C   UNL     1      -1.767  15.046  20.720  0.00  0.00    +0.000 A 
ATOM     34  C   UNL     1      -1.956  16.371  20.322  0.00  0.00    +0.000 A 
BRANCH  29  35
ATOM     35  C   UNL     1      -1.379  18.351  18.880  0.00  0.00    +0.000 C 
BRANCH  35  36
ATOM     36  O   UNL     1      -1.085  18.523  17.502  0.00  0.00    +0.000 OA
ATOM     37  H   UNL     1      -1.023  17.633  17.118  0.00  0.00    +0.000 HD
ENDBRANCH  35  36
ENDBRANCH  29  35
ENDBRANCH   1  32
TORSDOF 7
ENDMDL
MODEL 6
REMARK VINA RESULT:      -7.9      4.304      5.804
REMARK  Name = 
REMARK  7 active torsions:
REMARK  status: ('A' for Active; 'I' for Inactive)
REMARK    1  A    between atoms: O_1  and  C_2
REMARK    2  A    between atoms: C_2  and  C_3
REMARK    3  A    between atoms: C_6  and  C_7
REMARK    4  A    between atoms: N_11  and  C_12
REMARK    5  A    between atoms: C_15  and  O_16
REMARK    6  A    between atoms: O_16  and  C_17
REMARK    7  A    between atoms: C_17  and  C_18
REMARK                            x       y       z     vdW  Elec       q    Type
REMARK                         _______ _______ _______ _____ _____    ______ ____
ROOT
ATOM      1  C   UNL     1       2.168   7.627  19.112  0.00  0.00    +0.000 A 
ATOM      2  C   UNL     1       1.350   8.287  20.019  0.00  0.00    +0.000 A 
ATOM      3  C   UNL     1       1.292   9.659  19.652  0.00  0.00    +0.000 A 
ATOM      4  C   UNL     1       0.707  10.830  20.161  0.00  0.00    +0.000 A 
ATOM      5  N   UNL     1      -0.111  10.830  21.316  0.00  0.00    +0.000 N 
ATOM      6  N   UNL     1       0.952  11.986  19.470  0.00  0.00    +0.000 NA
ATOM      7  C   UNL     1       1.655  11.951  18.327  0.00  0.00    +0.000 A 
ATOM      8  N   UNL     1       2.213  10.884  17.747  0.00  0.00    +0.000 NA
ATOM      9  C   UNL     1       2.007   9.776  18.471  0.00  0.00    +0.000 A 
ATOM     10  N   UNL     1       2.499   8.547  18.144  0.00  0.00    +0.000 N 
ATOM     11  H   UNL     1      -0.161   9.932  21.790  0.00  0.00    +0.000 HD
ATOM     12  H   UNL     1       3.059   8.373  17.323  0.00  0.00    +0.000 HD
ENDROOT
BRANCH   5  13
ATOM     13  C   UNL     1      -1.242  11.643  21.538  0.00  0.00    +0.000 A 
ATOM     14  C   UNL     1      -1.740  12.493  20.548  0.00  0.00    +0.000 A 
ATOM     15  C   UNL     1      -2.860  13.282  20.749  0.00  0.00    +0.000 A 
ATOM     16  C   UNL     1      -3.567  13.208  21.944  0.00  0.00    +0.000 A 
ATOM     17  C   UNL     1      -3.032  12.444  22.990  0.00  0.00    +0.000 A 
ATOM     18 CL   UNL     1      -3.792  12.401  24.541  0.00  0.00    +0.000 Cl
ATOM     19  C   UNL     1      -1.872  11.673  22.791  0.00  0.00    +0.000 A 
BRANCH  16  20
ATOM     20  O   UNL     1      -4.781  13.836  22.105  0.00  0.00    +0.000 OA
BRANCH  20  21
ATOM     21  C   UNL     1      -5.896  12.951  21.911  0.00  0.00    +0.000 C 
BRANCH  21  22
ATOM     22  C   UNL     1      -6.254  12.716  20.470  0.00  0.00    +0.000 A 
ATOM     23  C   UNL     1      -6.350  13.748  19.531  0.00  0.00    +0.000 A 
ATOM     24  C   UNL     1      -6.737  13.472  18.219  0.00  0.00    +0.000 A 
ATOM     25  C   UNL     1      -7.020  12.157  17.832  0.00  0.00    +0.000 A 
ATOM     26  C   UNL     1      -6.911  11.134  18.759  0.00  0.00    +0.000 A 
ATOM     27  F   UNL     1      -7.184   9.874  18.395  0.00  0.00    +0.000 F 
ATOM     28  C   UNL     1      -6.528  11.398  20.067  0.00  0.00    +0.000 A 
ENDBRANCH  21  22
ENDBRANCH  20  21
ENDBRANCH  16  20
ENDBRANCH   5  13
BRANCH   1  32
ATOM     29  C   UNL     1       3.443   3.547  19.067  0.00  0.00    +0.000 A 
ATOM     30  C   UNL     1       3.660   4.373  17.958  0.00  0.00    +0.000 A 
ATOM     31  C   UNL     1       3.286   5.718  17.994  0.00  0.00    +0.000 A 
ATOM     32  C   UNL     1       2.682   6.261  19.133  0.00  0.00    +0.000 A 
ATOM     33  C   UNL     1       2.500   5.445  20.255  0.00  0.00    +0.000 A 
ATOM     34  C   UNL     1       2.877   4.100  20.222  0.00  0.00    +0.000 A 
BRANCH  29  35
ATOM     35  C   UNL     1       3.766   2.081  19.011  0.00  0.00    +0.000 C 
BRANCH  35  36
ATOM     36  O   UNL     1       4.885   1.810  19.840  0.00  0.00    +0.000 OA
ATOM     37  H   UNL     1       5.056   2.619  20.349  0.00  0.00    +0.000 HD
ENDBRANCH  35  36
ENDBRANCH  29  35
ENDBRANCH   1  32
TORSDOF 7
ENDMDL
MODEL 7
REMARK VINA RESULT:      -7.9      3.755     10.551
REMARK  Name = 
REMARK  7 active torsions:
REMARK  status: ('A' for Active; 'I' for Inactive)
REMARK    1  A    between atoms: O_1  and  C_2
REMARK    2  A    between atoms: C_2  and  C_3
REMARK    3  A    between atoms: C_6  and  C_7
REMARK    4  A    between atoms: N_11  and  C_12
REMARK    5  A    between atoms: C_15  and  O_16
REMARK    6  A    between atoms: O_16  and  C_17
REMARK    7  A    between atoms: C_17  and  C_18
REMARK                            x       y       z     vdW  Elec       q    Type
REMARK                         _______ _______ _______ _____ _____    ______ ____
ROOT
ATOM      1  C   UNL     1       0.499  12.569  19.850  0.00  0.00    +0.000 A 
ATOM      2  C   UNL     1       1.182  11.404  19.532  0.00  0.00    +0.000 A 
ATOM      3  C   UNL     1       0.807  10.397  20.462  0.00  0.00    +0.000 A 
ATOM      4  C   UNL     1       1.158   9.062  20.721  0.00  0.00    +0.000 A 
ATOM      5  N   UNL     1       2.084   8.352  19.922  0.00  0.00    +0.000 N 
ATOM      6  N   UNL     1       0.542   8.464  21.788  0.00  0.00    +0.000 NA
ATOM      7  C   UNL     1      -0.401   9.124  22.479  0.00  0.00    +0.000 A 
ATOM      8  N   UNL     1      -0.827  10.376  22.281  0.00  0.00    +0.000 NA
ATOM      9  C   UNL     1      -0.169  10.958  21.270  0.00  0.00    +0.000 A 
ATOM     10  N   UNL     1      -0.366  12.247  20.872  0.00  0.00    +0.000 N 
ATOM     11  H   UNL     1       2.536   8.916  19.207  0.00  0.00    +0.000 HD
ATOM     12  H   UNL     1      -1.029  12.869  21.310  0.00  0.00    +0.000 HD
ENDROOT
BRANCH   5  13
ATOM     13  C   UNL     1       2.028   6.979  19.597  0.00  0.00    +0.000 A 
ATOM     14  C   UNL     1       1.983   6.542  18.272  0.00  0.00    +0.000 A 
ATOM     15  C   UNL     1       1.946   5.197  17.941  0.00  0.00    +0.000 A 
ATOM     16  C   UNL     1       2.010   4.226  18.934  0.00  0.00    +0.000 A 
ATOM     17  C   UNL     1       1.950   4.637  20.273  0.00  0.00    +0.000 A 
ATOM     18 CL   UNL     1       1.904   3.482  21.557  0.00  0.00    +0.000 Cl
ATOM     19  C   UNL     1       1.950   6.005  20.602  0.00  0.00    +0.000 A 
BRANCH  16  20
ATOM     20  O   UNL     1       2.160   2.893  18.632  0.00  0.00    +0.000 OA
BRANCH  20  21
ATOM     21  C   UNL     1       3.528   2.458  18.697  0.00  0.00    +0.000 C 
BRANCH  21  22
ATOM     22  C   UNL     1       4.509   3.408  18.069  0.00  0.00    +0.000 A 
ATOM     23  C   UNL     1       5.354   4.236  18.815  0.00  0.00    +0.000 A 
ATOM     24  C   UNL     1       6.207   5.134  18.173  0.00  0.00    +0.000 A 
ATOM     25  C   UNL     1       6.231   5.203  16.776  0.00  0.00    +0.000 A 
ATOM     26  C   UNL     1       5.405   4.372  16.037  0.00  0.00    +0.000 A 
ATOM     27  F   UNL     1       5.421   4.437  14.699  0.00  0.00    +0.000 F 
ATOM     28  C   UNL     1       4.551   3.477  16.666  0.00  0.00    +0.000 A 
ENDBRANCH  21  22
ENDBRANCH  20  21
ENDBRANCH  16  20
ENDBRANCH   5  13
BRANCH   1  32
ATOM     29  C   UNL     1       0.968  16.610  18.538  0.00  0.00    +0.000 A 
ATOM     30  C   UNL     1       2.077  15.765  18.651  0.00  0.00    +0.000 A 
ATOM     31  C   UNL     1       1.916  14.432  19.034  0.00  0.00    +0.000 A 
ATOM     32  C   UNL     1       0.645  13.920  19.317  0.00  0.00    +0.000 A 
ATOM     33  C   UNL     1      -0.469  14.754  19.167  0.00  0.00    +0.000 A 
ATOM     34  C   UNL     1      -0.308  16.087  18.781  0.00  0.00    +0.000 A 
BRANCH  29  35
ATOM     35  C   UNL     1       1.138  18.065  18.208  0.00  0.00    +0.000 C 
BRANCH  35  36
ATOM     36  O   UNL     1       1.785  18.193  16.951  0.00  0.00    +0.000 OA
ATOM     37  H   UNL     1       1.085  18.205  16.278  0.00  0.00    +0.000 HD
ENDBRANCH  35  36
ENDBRANCH  29  35
ENDBRANCH   1  32
TORSDOF 7
ENDMDL
MODEL 8
REMARK VINA RESULT:      -7.9      1.734      2.617
REMARK  Name = 
REMARK  7 active torsions:
REMARK  status: ('A' for Active; 'I' for Inactive)
REMARK    1  A    between atoms: O_1  and  C_2
REMARK    2  A    between atoms: C_2  and  C_3
REMARK    3  A    between atoms: C_6  and  C_7
REMARK    4  A    between atoms: N_11  and  C_12
REMARK    5  A    between atoms: C_15  and  O_16
REMARK    6  A    between atoms: O_16  and  C_17
REMARK    7  A    between atoms: C_17  and  C_18
REMARK                            x       y       z     vdW  Elec       q    Type
REMARK                         _______ _______ _______ _____ _____    ______ ____
ROOT
ATOM      1  C   UNL     1       1.827   8.053  19.798  0.00  0.00    +0.000 A 
ATOM      2  C   UNL     1       1.372   9.337  19.532  0.00  0.00    +0.000 A 
ATOM      3  C   UNL     1       0.629   9.790  20.655  0.00  0.00    +0.000 A 
ATOM      4  C   UNL     1      -0.114  10.932  20.998  0.00  0.00    +0.000 A 
ATOM      5  N   UNL     1      -0.232  12.047  20.136  0.00  0.00    +0.000 N 
ATOM      6  N   UNL     1      -0.715  10.924  22.228  0.00  0.00    +0.000 NA
ATOM      7  C   UNL     1      -0.517   9.895  23.068  0.00  0.00    +0.000 A 
ATOM      8  N   UNL     1       0.203   8.791  22.846  0.00  0.00    +0.000 NA
ATOM      9  C   UNL     1       0.732   8.797  21.616  0.00  0.00    +0.000 A 
ATOM     10  N   UNL     1       1.478   7.778  21.101  0.00  0.00    +0.000 N 
ATOM     11  H   UNL     1       0.189  11.912  19.220  0.00  0.00    +0.000 HD
ATOM     12  H   UNL     1       1.693   6.934  21.610  0.00  0.00    +0.000 HD
ENDROOT
BRANCH   5  13
ATOM     13  C   UNL     1      -0.296  13.402  20.526  0.00  0.00    +0.000 A 
ATOM     14  C   UNL     1       0.802  14.054  21.090  0.00  0.00    +0.000 A 
ATOM     15  C   UNL     1       0.756  15.388  21.461  0.00  0.00    +0.000 A 
ATOM     16  C   UNL     1      -0.386  16.144  21.226  0.00  0.00    +0.000 A 
ATOM     17  C   UNL     1      -1.535  15.490  20.758  0.00  0.00    +0.000 A 
ATOM     18 CL   UNL     1      -3.025  16.342  20.556  0.00  0.00    +0.000 Cl
ATOM     19  C   UNL     1      -1.493  14.126  20.419  0.00  0.00    +0.000 A 
BRANCH  16  20
ATOM     20  O   UNL     1      -0.402  17.508  21.411  0.00  0.00    +0.000 OA
BRANCH  20  21
ATOM     21  C   UNL     1       0.657  18.177  20.707  0.00  0.00    +0.000 C 
BRANCH  21  22
ATOM     22  C   UNL     1       0.454  18.260  19.219  0.00  0.00    +0.000 A 
ATOM     23  C   UNL     1      -0.765  18.621  18.636  0.00  0.00    +0.000 A 
ATOM     24  C   UNL     1      -0.905  18.631  17.248  0.00  0.00    +0.000 A 
ATOM     25  C   UNL     1       0.179  18.291  16.430  0.00  0.00    +0.000 A 
ATOM     26  C   UNL     1       1.390  17.949  17.009  0.00  0.00    +0.000 A 
ATOM     27  F   UNL     1       2.430  17.620  16.231  0.00  0.00    +0.000 F 
ATOM     28  C   UNL     1       1.539  17.934  18.389  0.00  0.00    +0.000 A 
ENDBRANCH  21  22
ENDBRANCH  20  21
ENDBRANCH  16  20
ENDBRANCH   5  13
BRANCH   1  32
ATOM     29  C   UNL     1       3.965   5.228  17.407  0.00  0.00    +0.000 A 
ATOM     30  C   UNL     1       3.093   4.794  18.412  0.00  0.00    +0.000 A 
ATOM     31  C   UNL     1       2.359   5.718  19.159  0.00  0.00    +0.000 A 
ATOM     32  C   UNL     1       2.488   7.090  18.923  0.00  0.00    +0.000 A 
ATOM     33  C   UNL     1       3.332   7.522  17.892  0.00  0.00    +0.000 A 
ATOM     34  C   UNL     1       4.063   6.599  17.142  0.00  0.00    +0.000 A 
BRANCH  29  35
ATOM     35  C   UNL     1       4.820   4.249  16.654  0.00  0.00    +0.000 C 
BRANCH  35  36
ATOM     36  O   UNL     1       4.869   3.020  17.362  0.00  0.00    +0.000 OA
ATOM     37  H   UNL     1       3.957   2.815  17.626  0.00  0.00    +0.000 HD
ENDBRANCH  35  36
ENDBRANCH  29  35
ENDBRANCH   1  32
TORSDOF 7
ENDMDL
MODEL 9
REMARK VINA RESULT:      -7.8      2.940      3.955
REMARK  Name = 
REMARK  7 active torsions:
REMARK  status: ('A' for Active; 'I' for Inactive)
REMARK    1  A    between atoms: O_1  and  C_2
REMARK    2  A    between atoms: C_2  and  C_3
REMARK    3  A    between atoms: C_6  and  C_7
REMARK    4  A    between atoms: N_11  and  C_12
REMARK    5  A    between atoms: C_15  and  O_16
REMARK    6  A    between atoms: O_16  and  C_17
REMARK    7  A    between atoms: C_17  and  C_18
REMARK                            x       y       z     vdW  Elec       q    Type
REMARK                         _______ _______ _______ _____ _____    ______ ____
ROOT
ATOM      1  C   UNL     1       3.064   7.163  18.369  0.00  0.00    +0.000 A 
ATOM      2  C   UNL     1       2.453   8.363  18.036  0.00  0.00    +0.000 A 
ATOM      3  C   UNL     1       1.593   8.739  19.104  0.00  0.00    +0.000 A 
ATOM      4  C   UNL     1       0.683   9.776  19.369  0.00  0.00    +0.000 A 
ATOM      5  N   UNL     1       0.463  10.841  18.464  0.00  0.00    +0.000 N 
ATOM      6  N   UNL     1       0.022   9.718  20.566  0.00  0.00    +0.000 NA
ATOM      7  C   UNL     1       0.311   8.749  21.450  0.00  0.00    +0.000 A 
ATOM      8  N   UNL     1       1.186   7.750  21.303  0.00  0.00    +0.000 NA
ATOM      9  C   UNL     1       1.778   7.796  20.102  0.00  0.00    +0.000 A 
ATOM     10  N   UNL     1       2.684   6.877  19.661  0.00  0.00    +0.000 N 
ATOM     11  H   UNL     1       0.949  10.741  17.577  0.00  0.00    +0.000 HD
ATOM     12  H   UNL     1       2.984   6.085  20.209  0.00  0.00    +0.000 HD
ENDROOT
BRANCH   5  13
ATOM     13  C   UNL     1       0.192  12.184  18.805  0.00  0.00    +0.000 A 
ATOM     14  C   UNL     1      -1.076  12.592  19.224  0.00  0.00    +0.000 A 
ATOM     15  C   UNL     1      -1.348  13.902  19.578  0.00  0.00    +0.000 A 
ATOM     16  C   UNL     1      -0.336  14.855  19.581  0.00  0.00    +0.000 A 
ATOM     17  C   UNL     1       0.918  14.498  19.067  0.00  0.00    +0.000 A 
ATOM     18 CL   UNL     1       2.189  15.661  18.929  0.00  0.00    +0.000 Cl
ATOM     19  C   UNL     1       1.178  13.172  18.673  0.00  0.00    +0.000 A 
BRANCH  16  20
ATOM     20  O   UNL     1      -0.530  16.114  20.101  0.00  0.00    +0.000 OA
BRANCH  20  21
ATOM     21  C   UNL     1      -1.742  16.221  20.864  0.00  0.00    +0.000 C 
BRANCH  21  22
ATOM     22  C   UNL     1      -1.559  16.035  22.345  0.00  0.00    +0.000 A 
ATOM     23  C   UNL     1      -0.545  16.667  23.072  0.00  0.00    +0.000 A 
ATOM     24  C   UNL     1      -0.395  16.414  24.436  0.00  0.00    +0.000 A 
ATOM     25  C   UNL     1      -1.268  15.535  25.087  0.00  0.00    +0.000 A 
ATOM     26  C   UNL     1      -2.280  14.921  24.369  0.00  0.00    +0.000 A 
ATOM     27  F   UNL     1      -3.116  14.076  24.987  0.00  0.00    +0.000 F 
ATOM     28  C   UNL     1      -2.437  15.164  23.012  0.00  0.00    +0.000 A 
ENDBRANCH  21  22
ENDBRANCH  20  21
ENDBRANCH  16  20
ENDBRANCH   5  13
BRANCH   1  32
ATOM     29  C   UNL     1       5.337   4.608  15.805  0.00  0.00    +0.000 A 
ATOM     30  C   UNL     1       5.587   5.984  15.841  0.00  0.00    +0.000 A 
ATOM     31  C   UNL     1       4.876   6.810  16.715  0.00  0.00    +0.000 A 
ATOM     32  C   UNL     1       3.899   6.278  17.562  0.00  0.00    +0.000 A 
ATOM     33  C   UNL     1       3.676   4.896  17.554  0.00  0.00    +0.000 A 
ATOM     34  C   UNL     1       4.389   4.070  16.682  0.00  0.00    +0.000 A 
BRANCH  29  35
ATOM     35  C   UNL     1       6.037   3.724  14.812  0.00  0.00    +0.000 C 
BRANCH  35  36
ATOM     36  O   UNL     1       6.760   4.526  13.891  0.00  0.00    +0.000 OA
ATOM     37  H   UNL     1       7.260   5.171  14.417  0.00  0.00    +0.000 HD
ENDBRANCH  35  36
ENDBRANCH  29  35
ENDBRANCH   1  32
TORSDOF 7
ENDMDL
