MODEL 1
REMARK VINA RESULT:      -7.5      0.000      0.000
REMARK  Name = 
REMARK  3 active torsions:
REMARK  status: ('A' for Active; 'I' for Inactive)
REMARK    1  A    between atoms: C_2  and  C_3
REMARK    2  A    between atoms: C_2  and  C_9
REMARK    3  A    between atoms: N_13  and  C_14
REMARK                            x       y       z     vdW  Elec       q    Type
REMARK                         _______ _______ _______ _____ _____    ______ ____
ROOT
ATOM      1  C   UNL     1       6.385   4.775  14.791  0.00  0.00    +0.000 A 
ATOM      2  C   UNL     1       5.111   5.152  15.159  0.00  0.00    +0.000 A 
ATOM      3  N   UNL     1       4.790   4.963  16.482  0.00  0.00    +0.000 NA
ATOM      4  C   UNL     1       5.830   4.531  17.155  0.00  0.00    +0.000 A 
ATOM      5  N   UNL     1       5.840   4.278  18.485  0.00  0.00    +0.000 N 
ATOM      6  S   UNL     1       7.256   4.327  16.204  0.00  0.00    +0.000 S 
ATOM      7  H   UNL     1       6.728   4.226  18.968  0.00  0.00    +0.000 HD
ENDROOT
BRANCH   5   8
ATOM      8  C   UNL     1       4.703   3.967  19.255  0.00  0.00    +0.000 A 
ATOM      9  C   UNL     1       4.534   2.667  19.742  0.00  0.00    +0.000 A 
ATOM     10  C   UNL     1       3.456   2.349  20.578  0.00  0.00    +0.000 A 
ATOM     11  C   UNL     1       2.524   3.328  20.931  0.00  0.00    +0.000 A 
ATOM     12 CL   UNL     1       1.219   2.867  21.963  0.00  0.00    +0.000 Cl
ATOM     13  C   UNL     1       2.678   4.629  20.451  0.00  0.00    +0.000 A 
ATOM     14 CL   UNL     1       1.563   5.897  20.825  0.00  0.00    +0.000 Cl
ATOM     15  C   UNL     1       3.768   4.943  19.632  0.00  0.00    +0.000 A 
ENDBRANCH   5   8
BRANCH   1  17
ATOM     16  O   UNL     1       7.820   5.609  13.104  0.00  0.00    +0.000 OA
ATOM     17  C   UNL     1       7.018   4.758  13.487  0.00  0.00    +0.000 C 
BRANCH  17  18
ATOM     18  C   UNL     1       6.678   3.662  12.529  0.00  0.00    +0.000 A 
ATOM     19  C   UNL     1       5.351   3.276  12.285  0.00  0.00    +0.000 A 
ATOM     20  C   UNL     1       5.074   2.256  11.371  0.00  0.00    +0.000 A 
ATOM     21  C   UNL     1       6.118   1.602  10.718  0.00  0.00    +0.000 A 
ATOM     22  C   UNL     1       7.441   1.962  10.978  0.00  0.00    +0.000 A 
ATOM     23  C   UNL     1       7.721   2.988  11.883  0.00  0.00    +0.000 A 
ENDBRANCH  17  18
ENDBRANCH   1  17
TORSDOF 3
ENDMDL
MODEL 2
REMARK VINA RESULT:      -7.5      0.156      1.043
REMARK  Name = 
REMARK  3 active torsions:
REMARK  status: ('A' for Active; 'I' for Inactive)
REMARK    1  A    between atoms: C_2  and  C_3
REMARK    2  A    between atoms: C_2  and  C_9
REMARK    3  A    between atoms: N_13  and  C_14
REMARK                            x       y       z     vdW  Elec       q    Type
REMARK                         _______ _______ _______ _____ _____    ______ ____
ROOT
ATOM      1  C   UNL     1       6.401   4.784  14.706  0.00  0.00    +0.000 A 
ATOM      2  C   UNL     1       5.080   5.041  15.007  0.00  0.00    +0.000 A 
ATOM      3  N   UNL     1       4.738   4.932  16.333  0.00  0.00    +0.000 NA
ATOM      4  C   UNL     1       5.797   4.685  17.068  0.00  0.00    +0.000 A 
ATOM      5  N   UNL     1       5.791   4.552  18.416  0.00  0.00    +0.000 N 
ATOM      6  S   UNL     1       7.268   4.566  16.174  0.00  0.00    +0.000 S 
ATOM      7  H   UNL     1       6.661   4.646  18.922  0.00  0.00    +0.000 HD
ENDROOT
BRANCH   5   8
ATOM      8  C   UNL     1       4.671   4.180  19.183  0.00  0.00    +0.000 A 
ATOM      9  C   UNL     1       4.545   2.858  19.624  0.00  0.00    +0.000 A 
ATOM     10  C   UNL     1       3.485   2.478  20.457  0.00  0.00    +0.000 A 
ATOM     11  C   UNL     1       2.528   3.415  20.853  0.00  0.00    +0.000 A 
ATOM     12 CL   UNL     1       1.246   2.878  21.878  0.00  0.00    +0.000 Cl
ATOM     13  C   UNL     1       2.638   4.737  20.419  0.00  0.00    +0.000 A 
ATOM     14 CL   UNL     1       1.489   5.956  20.848  0.00  0.00    +0.000 Cl
ATOM     15  C   UNL     1       3.710   5.112  19.603  0.00  0.00    +0.000 A 
ENDBRANCH   5   8
BRANCH   1  17
ATOM     16  O   UNL     1       7.894   5.563  13.043  0.00  0.00    +0.000 OA
ATOM     17  C   UNL     1       7.076   4.727  13.424  0.00  0.00    +0.000 C 
BRANCH  17  18
ATOM     18  C   UNL     1       6.762   3.605  12.487  0.00  0.00    +0.000 A 
ATOM     19  C   UNL     1       7.770   2.887  11.826  0.00  0.00    +0.000 A 
ATOM     20  C   UNL     1       7.435   1.835  10.969  0.00  0.00    +0.000 A 
ATOM     21  C   UNL     1       6.097   1.514  10.748  0.00  0.00    +0.000 A 
ATOM     22  C   UNL     1       5.089   2.244  11.380  0.00  0.00    +0.000 A 
ATOM     23  C   UNL     1       5.420   3.289  12.246  0.00  0.00    +0.000 A 
ENDBRANCH  17  18
ENDBRANCH   1  17
TORSDOF 3
ENDMDL
MODEL 3
REMARK VINA RESULT:      -7.5      6.178      9.062
REMARK  Name = 
REMARK  3 active torsions:
REMARK  status: ('A' for Active; 'I' for Inactive)
REMARK    1  A    between atoms: C_2  and  C_3
REMARK    2  A    between atoms: C_2  and  C_9
REMARK    3  A    between atoms: N_13  and  C_14
REMARK                            x       y       z     vdW  Elec       q    Type
REMARK                         _______ _______ _______ _____ _____    ______ ____
ROOT
ATOM      1  C   UNL     1       0.994   9.749  19.356  0.00  0.00    +0.000 A 
ATOM      2  C   UNL     1       1.228   8.695  20.215  0.00  0.00    +0.000 A 
ATOM      3  N   UNL     1       1.967   7.658  19.700  0.00  0.00    +0.000 NA
ATOM      4  C   UNL     1       2.382   7.940  18.487  0.00  0.00    +0.000 A 
ATOM      5  N   UNL     1       3.157   7.130  17.727  0.00  0.00    +0.000 N 
ATOM      6  S   UNL     1       1.884   9.487  17.909  0.00  0.00    +0.000 S 
ATOM      7  H   UNL     1       3.658   7.526  16.942  0.00  0.00    +0.000 HD
ENDROOT
BRANCH   5   8
ATOM      8  C   UNL     1       3.245   5.732  17.869  0.00  0.00    +0.000 A 
ATOM      9  C   UNL     1       4.499   5.113  17.833  0.00  0.00    +0.000 A 
ATOM     10  C   UNL     1       4.624   3.735  18.054  0.00  0.00    +0.000 A 
ATOM     11  C   UNL     1       3.493   2.954  18.304  0.00  0.00    +0.000 A 
ATOM     12 CL   UNL     1       3.719   1.263  18.565  0.00  0.00    +0.000 Cl
ATOM     13  C   UNL     1       2.235   3.558  18.340  0.00  0.00    +0.000 A 
ATOM     14 CL   UNL     1       0.782   2.664  18.626  0.00  0.00    +0.000 Cl
ATOM     15  C   UNL     1       2.120   4.937  18.137  0.00  0.00    +0.000 A 
ENDBRANCH   5   8
BRANCH   1  17
ATOM     16  O   UNL     1       0.593  11.948  20.131  0.00  0.00    +0.000 OA
ATOM     17  C   UNL     1       0.197  10.947  19.537  0.00  0.00    +0.000 C 
BRANCH  17  18
ATOM     18  C   UNL     1      -1.194  10.982  18.993  0.00  0.00    +0.000 A 
ATOM     19  C   UNL     1      -1.622  10.097  17.992  0.00  0.00    +0.000 A 
ATOM     20  C   UNL     1      -2.937  10.153  17.521  0.00  0.00    +0.000 A 
ATOM     21  C   UNL     1      -3.819  11.107  18.026  0.00  0.00    +0.000 A 
ATOM     22  C   UNL     1      -3.391  12.009  19.001  0.00  0.00    +0.000 A 
ATOM     23  C   UNL     1      -2.081  11.950  19.482  0.00  0.00    +0.000 A 
ENDBRANCH  17  18
ENDBRANCH   1  17
TORSDOF 3
ENDMDL
MODEL 4
REMARK VINA RESULT:      -7.4      6.158      8.984
REMARK  Name = 
REMARK  3 active torsions:
REMARK  status: ('A' for Active; 'I' for Inactive)
REMARK    1  A    between atoms: C_2  and  C_3
REMARK    2  A    between atoms: C_2  and  C_9
REMARK    3  A    between atoms: N_13  and  C_14
REMARK                            x       y       z     vdW  Elec       q    Type
REMARK                         _______ _______ _______ _____ _____    ______ ____
ROOT
ATOM      1  C   UNL     1       1.006   9.775  19.299  0.00  0.00    +0.000 A 
ATOM      2  C   UNL     1       1.191   8.713  20.159  0.00  0.00    +0.000 A 
ATOM      3  N   UNL     1       1.948   7.675  19.673  0.00  0.00    +0.000 NA
ATOM      4  C   UNL     1       2.423   7.964  18.484  0.00  0.00    +0.000 A 
ATOM      5  N   UNL     1       3.230   7.155  17.755  0.00  0.00    +0.000 N 
ATOM      6  S   UNL     1       1.965   9.520  17.896  0.00  0.00    +0.000 S 
ATOM      7  H   UNL     1       3.771   7.555  17.000  0.00  0.00    +0.000 HD
ENDROOT
BRANCH   5   8
ATOM      8  C   UNL     1       3.301   5.756  17.890  0.00  0.00    +0.000 A 
ATOM      9  C   UNL     1       4.549   5.124  17.869  0.00  0.00    +0.000 A 
ATOM     10  C   UNL     1       4.657   3.743  18.081  0.00  0.00    +0.000 A 
ATOM     11  C   UNL     1       3.515   2.973  18.309  0.00  0.00    +0.000 A 
ATOM     12 CL   UNL     1       3.721   1.277  18.562  0.00  0.00    +0.000 Cl
ATOM     13  C   UNL     1       2.263   3.589  18.331  0.00  0.00    +0.000 A 
ATOM     14 CL   UNL     1       0.797   2.708  18.589  0.00  0.00    +0.000 Cl
ATOM     15  C   UNL     1       2.165   4.970  18.136  0.00  0.00    +0.000 A 
ENDBRANCH   5   8
BRANCH   1  17
ATOM     16  O   UNL     1       0.611  11.998  20.007  0.00  0.00    +0.000 OA
ATOM     17  C   UNL     1       0.209  10.977  19.452  0.00  0.00    +0.000 C 
BRANCH  17  18
ATOM     18  C   UNL     1      -1.190  10.992  18.927  0.00  0.00    +0.000 A 
ATOM     19  C   UNL     1      -2.158  11.881  19.420  0.00  0.00    +0.000 A 
ATOM     20  C   UNL     1      -3.451  11.873  18.893  0.00  0.00    +0.000 A 
ATOM     21  C   UNL     1      -3.792  10.964  17.892  0.00  0.00    +0.000 A 
ATOM     22  C   UNL     1      -2.842  10.058  17.418  0.00  0.00    +0.000 A 
ATOM     23  C   UNL     1      -1.545  10.069  17.935  0.00  0.00    +0.000 A 
ENDBRANCH  17  18
ENDBRANCH   1  17
TORSDOF 3
ENDMDL
MODEL 5
REMARK VINA RESULT:      -7.4      3.299      4.465
REMARK  Name = 
REMARK  3 active torsions:
REMARK  status: ('A' for Active; 'I' for Inactive)
REMARK    1  A    between atoms: C_2  and  C_3
REMARK    2  A    between atoms: C_2  and  C_9
REMARK    3  A    between atoms: N_13  and  C_14
REMARK                            x       y       z     vdW  Elec       q    Type
REMARK                         _______ _______ _______ _____ _____    ______ ____
ROOT
ATOM      1  C   UNL     1       6.166   5.482  16.953  0.00  0.00    +0.000 A 
ATOM      2  C   UNL     1       6.142   6.835  17.221  0.00  0.00    +0.000 A 
ATOM      3  N   UNL     1       5.035   7.291  17.894  0.00  0.00    +0.000 NA
ATOM      4  C   UNL     1       4.251   6.293  18.228  0.00  0.00    +0.000 A 
ATOM      5  N   UNL     1       3.096   6.416  18.926  0.00  0.00    +0.000 N 
ATOM      6  S   UNL     1       4.823   4.743  17.731  0.00  0.00    +0.000 S 
ATOM      7  H   UNL     1       2.708   5.600  19.380  0.00  0.00    +0.000 HD
ENDROOT
BRANCH   5   8
ATOM      8  C   UNL     1       2.313   7.584  18.987  0.00  0.00    +0.000 A 
ATOM      9  C   UNL     1       2.023   8.283  17.810  0.00  0.00    +0.000 A 
ATOM     10  C   UNL     1       1.180   9.401  17.830  0.00  0.00    +0.000 A 
ATOM     11  C   UNL     1       0.621   9.842  19.031  0.00  0.00    +0.000 A 
ATOM     12 CL   UNL     1      -0.409  11.228  18.983  0.00  0.00    +0.000 Cl
ATOM     13  C   UNL     1       0.902   9.157  20.214  0.00  0.00    +0.000 A 
ATOM     14 CL   UNL     1       0.266   9.645  21.746  0.00  0.00    +0.000 Cl
ATOM     15  C   UNL     1       1.730   8.031  20.183  0.00  0.00    +0.000 A 
ENDBRANCH   5   8
BRANCH   1  17
ATOM     16  O   UNL     1       8.103   4.145  16.705  0.00  0.00    +0.000 OA
ATOM     17  C   UNL     1       7.123   4.692  16.203  0.00  0.00    +0.000 C 
BRANCH  17  18
ATOM     18  C   UNL     1       6.937   4.533  14.728  0.00  0.00    +0.000 A 
ATOM     19  C   UNL     1       7.739   5.217  13.802  0.00  0.00    +0.000 A 
ATOM     20  C   UNL     1       7.542   5.030  12.431  0.00  0.00    +0.000 A 
ATOM     21  C   UNL     1       6.530   4.185  11.980  0.00  0.00    +0.000 A 
ATOM     22  C   UNL     1       5.710   3.525  12.896  0.00  0.00    +0.000 A 
ATOM     23  C   UNL     1       5.910   3.700  14.267  0.00  0.00    +0.000 A 
ENDBRANCH  17  18
ENDBRANCH   1  17
TORSDOF 3
ENDMDL
MODEL 6
REMARK VINA RESULT:      -7.3      4.991      6.797
REMARK  Name = 
REMARK  3 active torsions:
REMARK  status: ('A' for Active; 'I' for Inactive)
REMARK    1  A    between atoms: C_2  and  C_3
REMARK    2  A    between atoms: C_2  and  C_9
REMARK    3  A    between atoms: N_13  and  C_14
REMARK                            x       y       z     vdW  Elec       q    Type
REMARK                         _______ _______ _______ _____ _____    ______ ____
ROOT
ATOM      1  C   UNL     1       2.763   5.897  18.524  0.00  0.00    +0.000 A 
ATOM      2  C   UNL     1       2.591   7.226  18.199  0.00  0.00    +0.000 A 
ATOM      3  N   UNL     1       2.049   8.017  19.183  0.00  0.00    +0.000 NA
ATOM      4  C   UNL     1       1.885   7.332  20.291  0.00  0.00    +0.000 A 
ATOM      5  N   UNL     1       1.398   7.839  21.449  0.00  0.00    +0.000 N 
ATOM      6  S   UNL     1       2.381   5.683  20.186  0.00  0.00    +0.000 S 
ATOM      7  H   UNL     1       1.566   7.339  22.312  0.00  0.00    +0.000 HD
ENDROOT
BRANCH   5   8
ATOM      8  C   UNL     1       0.566   8.971  21.546  0.00  0.00    +0.000 A 
ATOM      9  C   UNL     1       0.099   9.377  22.801  0.00  0.00    +0.000 A 
ATOM     10  C   UNL     1      -0.662  10.545  22.938  0.00  0.00    +0.000 A 
ATOM     11  C   UNL     1      -0.976  11.319  21.818  0.00  0.00    +0.000 A 
ATOM     12 CL   UNL     1      -1.919  12.745  22.060  0.00  0.00    +0.000 Cl
ATOM     13  C   UNL     1      -0.519  10.925  20.560  0.00  0.00    +0.000 A 
ATOM     14 CL   UNL     1      -0.876  11.814  19.120  0.00  0.00    +0.000 Cl
ATOM     15  C   UNL     1       0.256   9.767  20.434  0.00  0.00    +0.000 A 
ENDBRANCH   5   8
BRANCH   1  17
ATOM     16  O   UNL     1       2.489   3.889  17.301  0.00  0.00    +0.000 OA
ATOM     17  C   UNL     1       3.223   4.786  17.714  0.00  0.00    +0.000 C 
BRANCH  17  18
ATOM     18  C   UNL     1       4.673   4.695  17.363  0.00  0.00    +0.000 A 
ATOM     19  C   UNL     1       5.681   5.003  18.289  0.00  0.00    +0.000 A 
ATOM     20  C   UNL     1       7.025   4.891  17.926  0.00  0.00    +0.000 A 
ATOM     21  C   UNL     1       7.369   4.498  16.633  0.00  0.00    +0.000 A 
ATOM     22  C   UNL     1       6.371   4.218  15.699  0.00  0.00    +0.000 A 
ATOM     23  C   UNL     1       5.026   4.319  16.061  0.00  0.00    +0.000 A 
ENDBRANCH  17  18
ENDBRANCH   1  17
TORSDOF 3
ENDMDL
MODEL 7
REMARK VINA RESULT:      -7.3      4.394      6.026
REMARK  Name = 
REMARK  3 active torsions:
REMARK  status: ('A' for Active; 'I' for Inactive)
REMARK    1  A    between atoms: C_2  and  C_3
REMARK    2  A    between atoms: C_2  and  C_9
REMARK    3  A    between atoms: N_13  and  C_14
REMARK                            x       y       z     vdW  Elec       q    Type
REMARK                         _______ _______ _______ _____ _____    ______ ____
ROOT
ATOM      1  C   UNL     1       3.993   5.387  18.841  0.00  0.00    +0.000 A 
ATOM      2  C   UNL     1       2.938   5.240  19.718  0.00  0.00    +0.000 A 
ATOM      3  N   UNL     1       2.112   6.330  19.847  0.00  0.00    +0.000 NA
ATOM      4  C   UNL     1       2.464   7.281  19.013  0.00  0.00    +0.000 A 
ATOM      5  N   UNL     1       1.827   8.469  18.881  0.00  0.00    +0.000 N 
ATOM      6  S   UNL     1       3.829   6.894  18.031  0.00  0.00    +0.000 S 
ATOM      7  H   UNL     1       1.977   9.015  18.043  0.00  0.00    +0.000 HD
ENDROOT
BRANCH   5   8
ATOM      8  C   UNL     1       1.038   9.075  19.877  0.00  0.00    +0.000 A 
ATOM      9  C   UNL     1       1.240   8.736  21.219  0.00  0.00    +0.000 A 
ATOM     10  C   UNL     1       0.528   9.382  22.237  0.00  0.00    +0.000 A 
ATOM     11  C   UNL     1      -0.407  10.372  21.925  0.00  0.00    +0.000 A 
ATOM     12 CL   UNL     1      -1.251  11.127  23.229  0.00  0.00    +0.000 Cl
ATOM     13  C   UNL     1      -0.622  10.720  20.591  0.00  0.00    +0.000 A 
ATOM     14 CL   UNL     1      -1.772  11.922  20.116  0.00  0.00    +0.000 Cl
ATOM     15  C   UNL     1       0.107  10.083  19.582  0.00  0.00    +0.000 A 
ENDBRANCH   5   8
BRANCH   1  17
ATOM     16  O   UNL     1       5.583   3.706  19.340  0.00  0.00    +0.000 OA
ATOM     17  C   UNL     1       5.086   4.487  18.530  0.00  0.00    +0.000 C 
BRANCH  17  18
ATOM     18  C   UNL     1       5.670   4.503  17.154  0.00  0.00    +0.000 A 
ATOM     19  C   UNL     1       6.975   4.958  16.908  0.00  0.00    +0.000 A 
ATOM     20  C   UNL     1       7.489   4.943  15.609  0.00  0.00    +0.000 A 
ATOM     21  C   UNL     1       6.698   4.502  14.549  0.00  0.00    +0.000 A 
ATOM     22  C   UNL     1       5.390   4.076  14.784  0.00  0.00    +0.000 A 
ATOM     23  C   UNL     1       4.875   4.079  16.082  0.00  0.00    +0.000 A 
ENDBRANCH  17  18
ENDBRANCH   1  17
TORSDOF 3
ENDMDL
MODEL 8
REMARK VINA RESULT:      -7.3      4.807      6.532
REMARK  Name = 
REMARK  3 active torsions:
REMARK  status: ('A' for Active; 'I' for Inactive)
REMARK    1  A    between atoms: C_2  and  C_3
REMARK    2  A    between atoms: C_2  and  C_9
REMARK    3  A    between atoms: N_13  and  C_14
REMARK                            x       y       z     vdW  Elec       q    Type
REMARK                         _______ _______ _______ _____ _____    ______ ____
ROOT
ATOM      1  C   UNL     1       2.919   5.652  18.411  0.00  0.00    +0.000 A 
ATOM      2  C   UNL     1       2.807   6.988  18.087  0.00  0.00    +0.000 A 
ATOM      3  N   UNL     1       2.256   7.794  19.054  0.00  0.00    +0.000 NA
ATOM      4  C   UNL     1       2.027   7.111  20.151  0.00  0.00    +0.000 A 
ATOM      5  N   UNL     1       1.514   7.631  21.293  0.00  0.00    +0.000 N 
ATOM      6  S   UNL     1       2.468   5.446  20.057  0.00  0.00    +0.000 S 
ATOM      7  H   UNL     1       1.632   7.123  22.159  0.00  0.00    +0.000 HD
ENDROOT
BRANCH   5   8
ATOM      8  C   UNL     1       0.720   8.791  21.364  0.00  0.00    +0.000 A 
ATOM      9  C   UNL     1       0.292   9.258  22.612  0.00  0.00    +0.000 A 
ATOM     10  C   UNL     1      -0.430  10.453  22.721  0.00  0.00    +0.000 A 
ATOM     11  C   UNL     1      -0.744  11.195  21.579  0.00  0.00    +0.000 A 
ATOM     12 CL   UNL     1      -1.638  12.657  21.785  0.00  0.00    +0.000 Cl
ATOM     13  C   UNL     1      -0.326  10.740  20.327  0.00  0.00    +0.000 A 
ATOM     14 CL   UNL     1      -0.686  11.587  18.862  0.00  0.00    +0.000 Cl
ATOM     15  C   UNL     1       0.410   9.556  20.229  0.00  0.00    +0.000 A 
ENDBRANCH   5   8
BRANCH   1  17
ATOM     16  O   UNL     1       2.677   3.544  17.364  0.00  0.00    +0.000 OA
ATOM     17  C   UNL     1       3.370   4.529  17.614  0.00  0.00    +0.000 C 
BRANCH  17  18
ATOM     18  C   UNL     1       4.762   4.538  17.068  0.00  0.00    +0.000 A 
ATOM     19  C   UNL     1       5.020   4.409  15.694  0.00  0.00    +0.000 A 
ATOM     20  C   UNL     1       6.335   4.437  15.222  0.00  0.00    +0.000 A 
ATOM     21  C   UNL     1       7.396   4.566  16.118  0.00  0.00    +0.000 A 
ATOM     22  C   UNL     1       7.146   4.666  17.487  0.00  0.00    +0.000 A 
ATOM     23  C   UNL     1       5.833   4.649  17.963  0.00  0.00    +0.000 A 
ENDBRANCH  17  18
ENDBRANCH   1  17
TORSDOF 3
ENDMDL
MODEL 9
REMARK VINA RESULT:      -7.3      4.354      5.860
REMARK  Name = 
REMARK  3 active torsions:
REMARK  status: ('A' for Active; 'I' for Inactive)
REMARK    1  A    between atoms: C_2  and  C_3
REMARK    2  A    between atoms: C_2  and  C_9
REMARK    3  A    between atoms: N_13  and  C_14
REMARK                            x       y       z     vdW  Elec       q    Type
REMARK                         _______ _______ _______ _____ _____    ______ ____
ROOT
ATOM      1  C   UNL     1       4.091   5.487  18.697  0.00  0.00    +0.000 A 
ATOM      2  C   UNL     1       3.046   5.297  19.576  0.00  0.00    +0.000 A 
ATOM      3  N   UNL     1       2.194   6.363  19.731  0.00  0.00    +0.000 NA
ATOM      4  C   UNL     1       2.516   7.338  18.914  0.00  0.00    +0.000 A 
ATOM      5  N   UNL     1       1.849   8.512  18.809  0.00  0.00    +0.000 N 
ATOM      6  S   UNL     1       3.884   7.005  17.917  0.00  0.00    +0.000 S 
ATOM      7  H   UNL     1       1.980   9.078  17.981  0.00  0.00    +0.000 HD
ENDROOT
BRANCH   5   8
ATOM      8  C   UNL     1       1.051   9.080  19.821  0.00  0.00    +0.000 A 
ATOM      9  C   UNL     1       1.253   8.700  21.152  0.00  0.00    +0.000 A 
ATOM     10  C   UNL     1       0.532   9.307  22.188  0.00  0.00    +0.000 A 
ATOM     11  C   UNL     1      -0.411  10.298  21.905  0.00  0.00    +0.000 A 
ATOM     12 CL   UNL     1      -1.266  11.003  23.229  0.00  0.00    +0.000 Cl
ATOM     13  C   UNL     1      -0.626  10.685  20.581  0.00  0.00    +0.000 A 
ATOM     14 CL   UNL     1      -1.785  11.891  20.141  0.00  0.00    +0.000 Cl
ATOM     15  C   UNL     1       0.112  10.087  19.555  0.00  0.00    +0.000 A 
ENDBRANCH   5   8
BRANCH   1  17
ATOM     16  O   UNL     1       5.792   3.914  19.178  0.00  0.00    +0.000 OA
ATOM     17  C   UNL     1       5.204   4.620  18.361  0.00  0.00    +0.000 C 
BRANCH  17  18
ATOM     18  C   UNL     1       5.693   4.580  16.949  0.00  0.00    +0.000 A 
ATOM     19  C   UNL     1       4.904   4.071  15.906  0.00  0.00    +0.000 A 
ATOM     20  C   UNL     1       5.393   4.065  14.597  0.00  0.00    +0.000 A 
ATOM     21  C   UNL     1       6.675   4.541  14.328  0.00  0.00    +0.000 A 
ATOM     22  C   UNL     1       7.475   5.022  15.365  0.00  0.00    +0.000 A 
ATOM     23  C   UNL     1       6.987   5.039  16.674  0.00  0.00    +0.000 A 
ENDBRANCH  17  18
ENDBRANCH   1  17
TORSDOF 3
ENDMDL
