MODEL 1
REMARK VINA RESULT:      -8.2      0.000      0.000
REMARK  Name = 
REMARK  8 active torsions:
REMARK  status: ('A' for Active; 'I' for Inactive)
REMARK    1  A    between atoms: C_1  and  C_2
REMARK    2  A    between atoms: C_2  and  C_3
REMARK    3  A    between atoms: C_6  and  C_7
REMARK    4  A    between atoms: C_8  and  C_9
REMARK    5  A    between atoms: C_15  and  C_16
REMARK    6  A    between atoms: C_16  and  C_18
REMARK    7  A    between atoms: C_21  and  O_22
REMARK    8  A    between atoms: O_22  and  C_23
REMARK                            x       y       z     vdW  Elec       q    Type
REMARK                         _______ _______ _______ _____ _____    ______ ____
ROOT
ATOM      1  C   UNL     1       5.014   4.128  17.302  0.00  0.00    +0.000 C 
ATOM      2  O   UNL     1       4.928   2.908  17.153  0.00  0.00    +0.000 OA
ATOM      3  N   UNL     1       4.114   4.794  18.139  0.00  0.00    +0.000 N 
ATOM      4  C   UNL     1       3.280   4.019  19.059  0.00  0.00    +0.000 C 
ATOM      5  C   UNL     1       1.801   4.340  18.859  0.00  0.00    +0.000 C 
ATOM      6  C   UNL     1       1.540   5.841  18.996  0.00  0.00    +0.000 C 
ATOM      7  C   UNL     1       2.433   6.625  18.035  0.00  0.00    +0.000 C 
ATOM      8  C   UNL     1       3.902   6.232  18.183  0.00  0.00    +0.000 C 
ENDROOT
BRANCH   1  14
ATOM      9  C   UNL     1       6.285   4.785  15.157  0.00  0.00    +0.000 A 
ATOM     10  N   UNL     1       7.311   5.559  14.787  0.00  0.00    +0.000 NA
ATOM     11  O   UNL     1       7.792   6.121  15.941  0.00  0.00    +0.000 OA
ATOM     12  C   UNL     1       7.067   5.691  17.008  0.00  0.00    +0.000 A 
ATOM     13  C   UNL     1       7.567   6.203  18.303  0.00  0.00    +0.000 C 
ATOM     14  C   UNL     1       6.042   4.864  16.569  0.00  0.00    +0.000 A 
BRANCH   9  16
ATOM     15  C   UNL     1       6.412   3.749  12.873  0.00  0.00    +0.000 C 
ATOM     16  C   UNL     1       5.561   4.006  14.108  0.00  0.00    +0.000 C 
ENDBRANCH   9  16
ENDBRANCH   1  14
BRANCH   7  17
ATOM     17  C   UNL     1       2.345   8.127  18.271  0.00  0.00    +0.000 C 
ATOM     18  O   UNL     1       2.891   8.940  17.530  0.00  0.00    +0.000 OA
BRANCH  17  19
ATOM     19  C   UNL     1       1.513   8.626  19.394  0.00  0.00    +0.000 A 
ATOM     20  C   UNL     1       1.713   8.177  20.704  0.00  0.00    +0.000 A 
ATOM     21  C   UNL     1       0.887   8.644  21.725  0.00  0.00    +0.000 A 
ATOM     22  C   UNL     1      -0.136   9.557  21.463  0.00  0.00    +0.000 A 
ATOM     23  C   UNL     1      -0.318  10.010  20.153  0.00  0.00    +0.000 A 
ATOM     24  F   UNL     1      -1.278  10.889  19.840  0.00  0.00    +0.000 F 
ATOM     25  C   UNL     1       0.505   9.554  19.120  0.00  0.00    +0.000 A 
BRANCH  22  26
ATOM     26  O   UNL     1      -0.861   9.904  22.569  0.00  0.00    +0.000 OA
ATOM     27  C   UNL     1      -0.938  11.284  22.890  0.00  0.00    +0.000 C 
ENDBRANCH  22  26
ENDBRANCH  17  19
ENDBRANCH   7  17
TORSDOF 5
ENDMDL
MODEL 2
REMARK VINA RESULT:      -8.0      2.112      3.161
REMARK  Name = 
REMARK  8 active torsions:
REMARK  status: ('A' for Active; 'I' for Inactive)
REMARK    1  A    between atoms: C_1  and  C_2
REMARK    2  A    between atoms: C_2  and  C_3
REMARK    3  A    between atoms: C_6  and  C_7
REMARK    4  A    between atoms: C_8  and  C_9
REMARK    5  A    between atoms: C_15  and  C_16
REMARK    6  A    between atoms: C_16  and  C_18
REMARK    7  A    between atoms: C_21  and  O_22
REMARK    8  A    between atoms: O_22  and  C_23
REMARK                            x       y       z     vdW  Elec       q    Type
REMARK                         _______ _______ _______ _____ _____    ______ ____
ROOT
ATOM      1  C   UNL     1       5.321   4.105  16.848  0.00  0.00    +0.000 C 
ATOM      2  O   UNL     1       5.477   3.348  15.888  0.00  0.00    +0.000 OA
ATOM      3  N   UNL     1       4.446   3.754  17.879  0.00  0.00    +0.000 N 
ATOM      4  C   UNL     1       3.957   2.377  17.969  0.00  0.00    +0.000 C 
ATOM      5  C   UNL     1       2.431   2.339  17.996  0.00  0.00    +0.000 C 
ATOM      6  C   UNL     1       1.880   3.204  19.131  0.00  0.00    +0.000 C 
ATOM      7  C   UNL     1       2.416   4.631  19.020  0.00  0.00    +0.000 C 
ATOM      8  C   UNL     1       3.940   4.653  18.904  0.00  0.00    +0.000 C 
ENDROOT
BRANCH   1  14
ATOM      9  C   UNL     1       7.188   5.683  17.669  0.00  0.00    +0.000 A 
ATOM     10  N   UNL     1       7.600   6.942  17.489  0.00  0.00    +0.000 NA
ATOM     11  O   UNL     1       6.709   7.506  16.613  0.00  0.00    +0.000 OA
ATOM     12  C   UNL     1       5.759   6.598  16.263  0.00  0.00    +0.000 A 
ATOM     13  C   UNL     1       4.718   7.151  15.367  0.00  0.00    +0.000 C 
ATOM     14  C   UNL     1       6.036   5.381  16.870  0.00  0.00    +0.000 A 
BRANCH   9  16
ATOM     15  C   UNL     1       8.191   5.464  19.962  0.00  0.00    +0.000 C 
ATOM     16  C   UNL     1       7.952   4.808  18.609  0.00  0.00    +0.000 C 
ENDBRANCH   9  16
ENDBRANCH   1  14
BRANCH   7  17
ATOM     17  C   UNL     1       2.047   5.476  20.232  0.00  0.00    +0.000 C 
ATOM     18  O   UNL     1       2.027   5.015  21.370  0.00  0.00    +0.000 OA
BRANCH  17  19
ATOM     19  C   UNL     1       1.771   6.920  20.038  0.00  0.00    +0.000 A 
ATOM     20  C   UNL     1       1.199   7.695  21.053  0.00  0.00    +0.000 A 
ATOM     21  C   UNL     1       0.923   9.041  20.820  0.00  0.00    +0.000 A 
ATOM     22  C   UNL     1       1.211   9.632  19.589  0.00  0.00    +0.000 A 
ATOM     23  C   UNL     1       1.796   8.853  18.586  0.00  0.00    +0.000 A 
ATOM     24  F   UNL     1       2.100   9.364  17.386  0.00  0.00    +0.000 F 
ATOM     25  C   UNL     1       2.082   7.503  18.807  0.00  0.00    +0.000 A 
BRANCH  22  26
ATOM     26  O   UNL     1       0.868  10.953  19.518  0.00  0.00    +0.000 OA
ATOM     27  C   UNL     1      -0.365  11.272  18.891  0.00  0.00    +0.000 C 
ENDBRANCH  22  26
ENDBRANCH  17  19
ENDBRANCH   7  17
TORSDOF 5
ENDMDL
MODEL 3
REMARK VINA RESULT:      -7.9      1.133      1.245
REMARK  Name = 
REMARK  8 active torsions:
REMARK  status: ('A' for Active; 'I' for Inactive)
REMARK    1  A    between atoms: C_1  and  C_2
REMARK    2  A    between atoms: C_2  and  C_3
REMARK    3  A    between atoms: C_6  and  C_7
REMARK    4  A    between atoms: C_8  and  C_9
REMARK    5  A    between atoms: C_15  and  C_16
REMARK    6  A    between atoms: C_16  and  C_18
REMARK    7  A    between atoms: C_21  and  O_22
REMARK    8  A    between atoms: O_22  and  C_23
REMARK                            x       y       z     vdW  Elec       q    Type
REMARK                         _______ _______ _______ _____ _____    ______ ____
ROOT
ATOM      1  C   UNL     1       5.051   4.057  18.940  0.00  0.00    +0.000 C 
ATOM      2  O   UNL     1       5.056   2.836  19.109  0.00  0.00    +0.000 OA
ATOM      3  N   UNL     1       4.049   4.838  19.522  0.00  0.00    +0.000 N 
ATOM      4  C   UNL     1       3.198   4.257  20.562  0.00  0.00    +0.000 C 
ATOM      5  C   UNL     1       1.721   4.393  20.200  0.00  0.00    +0.000 C 
ATOM      6  C   UNL     1       1.354   5.853  19.927  0.00  0.00    +0.000 C 
ATOM      7  C   UNL     1       2.266   6.437  18.848  0.00  0.00    +0.000 C 
ATOM      8  C   UNL     1       3.742   6.217  19.178  0.00  0.00    +0.000 C 
ENDROOT
BRANCH   1  14
ATOM      9  C   UNL     1       6.156   4.585  16.671  0.00  0.00    +0.000 A 
ATOM     10  N   UNL     1       7.231   5.221  16.194  0.00  0.00    +0.000 NA
ATOM     11  O   UNL     1       7.910   5.686  17.291  0.00  0.00    +0.000 OA
ATOM     12  C   UNL     1       7.254   5.335  18.429  0.00  0.00    +0.000 A 
ATOM     13  C   UNL     1       7.960   5.744  19.664  0.00  0.00    +0.000 C 
ATOM     14  C   UNL     1       6.084   4.664  18.102  0.00  0.00    +0.000 A 
BRANCH   9  16
ATOM     15  C   UNL     1       5.565   4.245  14.254  0.00  0.00    +0.000 C 
ATOM     16  C   UNL     1       5.222   3.935  15.704  0.00  0.00    +0.000 C 
ENDBRANCH   9  16
ENDBRANCH   1  14
BRANCH   7  17
ATOM     17  C   UNL     1       2.064   7.937  18.681  0.00  0.00    +0.000 C 
ATOM     18  O   UNL     1       2.290   8.514  17.620  0.00  0.00    +0.000 OA
BRANCH  17  19
ATOM     19  C   UNL     1       1.507   8.714  19.815  0.00  0.00    +0.000 A 
ATOM     20  C   UNL     1       1.591   8.244  21.130  0.00  0.00    +0.000 A 
ATOM     21  C   UNL     1       1.025   8.988  22.165  0.00  0.00    +0.000 A 
ATOM     22  C   UNL     1       0.377  10.197  21.911  0.00  0.00    +0.000 A 
ATOM     23  C   UNL     1       0.311  10.665  20.595  0.00  0.00    +0.000 A 
ATOM     24  F   UNL     1      -0.293  11.820  20.289  0.00  0.00    +0.000 F 
ATOM     25  C   UNL     1       0.877   9.933  19.549  0.00  0.00    +0.000 A 
BRANCH  22  26
ATOM     26  O   UNL     1      -0.134  10.793  23.030  0.00  0.00    +0.000 OA
ATOM     27  C   UNL     1      -1.511  11.139  23.012  0.00  0.00    +0.000 C 
ENDBRANCH  22  26
ENDBRANCH  17  19
ENDBRANCH   7  17
TORSDOF 5
ENDMDL
MODEL 4
REMARK VINA RESULT:      -7.9      4.475      9.376
REMARK  Name = 
REMARK  8 active torsions:
REMARK  status: ('A' for Active; 'I' for Inactive)
REMARK    1  A    between atoms: C_1  and  C_2
REMARK    2  A    between atoms: C_2  and  C_3
REMARK    3  A    between atoms: C_6  and  C_7
REMARK    4  A    between atoms: C_8  and  C_9
REMARK    5  A    between atoms: C_15  and  C_16
REMARK    6  A    between atoms: C_16  and  C_18
REMARK    7  A    between atoms: C_21  and  O_22
REMARK    8  A    between atoms: O_22  and  C_23
REMARK                            x       y       z     vdW  Elec       q    Type
REMARK                         _______ _______ _______ _____ _____    ______ ____
ROOT
ATOM      1  C   UNL     1      -2.598  12.626  20.440  0.00  0.00    +0.000 C 
ATOM      2  O   UNL     1      -3.828  12.614  20.520  0.00  0.00    +0.000 OA
ATOM      3  N   UNL     1      -1.965  12.043  19.339  0.00  0.00    +0.000 N 
ATOM      4  C   UNL     1      -2.755  11.694  18.157  0.00  0.00    +0.000 C 
ATOM      5  C   UNL     1      -2.573  10.223  17.791  0.00  0.00    +0.000 C 
ATOM      6  C   UNL     1      -1.094   9.884  17.597  0.00  0.00    +0.000 C 
ATOM      7  C   UNL     1      -0.293  10.270  18.839  0.00  0.00    +0.000 C 
ATOM      8  C   UNL     1      -0.550  11.719  19.248  0.00  0.00    +0.000 C 
ENDROOT
BRANCH   1  14
ATOM      9  C   UNL     1      -1.311  12.538  22.672  0.00  0.00    +0.000 A 
ATOM     10  N   UNL     1      -0.661  13.366  23.497  0.00  0.00    +0.000 NA
ATOM     11  O   UNL     1      -0.767  14.613  22.939  0.00  0.00    +0.000 OA
ATOM     12  C   UNL     1      -1.480  14.548  21.782  0.00  0.00    +0.000 A 
ATOM     13  C   UNL     1      -1.697  15.868  21.150  0.00  0.00    +0.000 C 
ATOM     14  C   UNL     1      -1.821  13.228  21.522  0.00  0.00    +0.000 A 
BRANCH   9  16
ATOM     15  C   UNL     1      -0.131  10.322  22.682  0.00  0.00    +0.000 C 
ATOM     16  C   UNL     1      -1.397  11.091  23.031  0.00  0.00    +0.000 C 
ENDBRANCH   9  16
ENDBRANCH   1  14
BRANCH   7  17
ATOM     17  C   UNL     1       1.207  10.127  18.618  0.00  0.00    +0.000 C 
ATOM     18  O   UNL     1       1.931  11.092  18.387  0.00  0.00    +0.000 OA
BRANCH  17  19
ATOM     19  C   UNL     1       1.825   8.785  18.758  0.00  0.00    +0.000 A 
ATOM     20  C   UNL     1       1.600   7.994  19.889  0.00  0.00    +0.000 A 
ATOM     21  C   UNL     1       2.227   6.753  19.999  0.00  0.00    +0.000 A 
ATOM     22  C   UNL     1       3.076   6.285  18.995  0.00  0.00    +0.000 A 
ATOM     23  C   UNL     1       3.283   7.078  17.862  0.00  0.00    +0.000 A 
ATOM     24  F   UNL     1       4.082   6.681  16.863  0.00  0.00    +0.000 F 
ATOM     25  C   UNL     1       2.658   8.321  17.736  0.00  0.00    +0.000 A 
BRANCH  22  26
ATOM     26  O   UNL     1       3.620   5.060  19.260  0.00  0.00    +0.000 OA
ATOM     27  C   UNL     1       3.010   4.285  20.281  0.00  0.00    +0.000 C 
ENDBRANCH  22  26
ENDBRANCH  17  19
ENDBRANCH   7  17
TORSDOF 5
ENDMDL
MODEL 5
REMARK VINA RESULT:      -7.9      1.130      1.460
REMARK  Name = 
REMARK  8 active torsions:
REMARK  status: ('A' for Active; 'I' for Inactive)
REMARK    1  A    between atoms: C_1  and  C_2
REMARK    2  A    between atoms: C_2  and  C_3
REMARK    3  A    between atoms: C_6  and  C_7
REMARK    4  A    between atoms: C_8  and  C_9
REMARK    5  A    between atoms: C_15  and  C_16
REMARK    6  A    between atoms: C_16  and  C_18
REMARK    7  A    between atoms: C_21  and  O_22
REMARK    8  A    between atoms: O_22  and  C_23
REMARK                            x       y       z     vdW  Elec       q    Type
REMARK                         _______ _______ _______ _____ _____    ______ ____
ROOT
ATOM      1  C   UNL     1       5.224   4.501  18.174  0.00  0.00    +0.000 C 
ATOM      2  O   UNL     1       5.283   3.277  18.300  0.00  0.00    +0.000 OA
ATOM      3  N   UNL     1       4.246   5.227  18.859  0.00  0.00    +0.000 N 
ATOM      4  C   UNL     1       3.502   4.584  19.943  0.00  0.00    +0.000 C 
ATOM      5  C   UNL     1       1.996   4.678  19.704  0.00  0.00    +0.000 C 
ATOM      6  C   UNL     1       1.561   6.131  19.511  0.00  0.00    +0.000 C 
ATOM      7  C   UNL     1       2.362   6.781  18.384  0.00  0.00    +0.000 C 
ATOM      8  C   UNL     1       3.867   6.605  18.587  0.00  0.00    +0.000 C 
ENDROOT
BRANCH   1  14
ATOM      9  C   UNL     1       6.244   4.988  15.856  0.00  0.00    +0.000 A 
ATOM     10  N   UNL     1       7.224   5.721  15.317  0.00  0.00    +0.000 NA
ATOM     11  O   UNL     1       7.837   6.358  16.365  0.00  0.00    +0.000 OA
ATOM     12  C   UNL     1       7.236   6.014  17.535  0.00  0.00    +0.000 A 
ATOM     13  C   UNL     1       7.884   6.611  18.725  0.00  0.00    +0.000 C 
ATOM     14  C   UNL     1       6.165   5.170  17.277  0.00  0.00    +0.000 A 
BRANCH   9  16
ATOM     15  C   UNL     1       6.027   3.944  13.582  0.00  0.00    +0.000 C 
ATOM     16  C   UNL     1       5.402   4.145  14.955  0.00  0.00    +0.000 C 
ENDBRANCH   9  16
ENDBRANCH   1  14
BRANCH   7  17
ATOM     17  C   UNL     1       2.097   8.278  18.283  0.00  0.00    +0.000 C 
ATOM     18  O   UNL     1       2.483   8.949  17.330  0.00  0.00    +0.000 OA
BRANCH  17  19
ATOM     19  C   UNL     1       1.285   8.932  19.339  0.00  0.00    +0.000 A 
ATOM     20  C   UNL     1       0.195   9.748  19.017  0.00  0.00    +0.000 A 
ATOM     21  C   UNL     1      -0.522  10.373  20.037  0.00  0.00    +0.000 A 
ATOM     22  C   UNL     1      -0.171  10.196  21.376  0.00  0.00    +0.000 A 
ATOM     23  C   UNL     1       0.911   9.367  21.687  0.00  0.00    +0.000 A 
ATOM     24  F   UNL     1       1.293   9.154  22.953  0.00  0.00    +0.000 F 
ATOM     25  C   UNL     1       1.636   8.731  20.676  0.00  0.00    +0.000 A 
BRANCH  22  26
ATOM     26  O   UNL     1      -0.964  10.887  22.249  0.00  0.00    +0.000 OA
ATOM     27  C   UNL     1      -1.464  12.143  21.818  0.00  0.00    +0.000 C 
ENDBRANCH  22  26
ENDBRANCH  17  19
ENDBRANCH   7  17
TORSDOF 5
ENDMDL
MODEL 6
REMARK VINA RESULT:      -7.8      4.115      9.370
REMARK  Name = 
REMARK  8 active torsions:
REMARK  status: ('A' for Active; 'I' for Inactive)
REMARK    1  A    between atoms: C_1  and  C_2
REMARK    2  A    between atoms: C_2  and  C_3
REMARK    3  A    between atoms: C_6  and  C_7
REMARK    4  A    between atoms: C_8  and  C_9
REMARK    5  A    between atoms: C_15  and  C_16
REMARK    6  A    between atoms: C_16  and  C_18
REMARK    7  A    between atoms: C_21  and  O_22
REMARK    8  A    between atoms: O_22  and  C_23
REMARK                            x       y       z     vdW  Elec       q    Type
REMARK                         _______ _______ _______ _____ _____    ______ ____
ROOT
ATOM      1  C   UNL     1      -2.122  12.560  20.184  0.00  0.00    +0.000 C 
ATOM      2  O   UNL     1      -3.349  12.612  20.290  0.00  0.00    +0.000 OA
ATOM      3  N   UNL     1      -1.543  11.934  19.077  0.00  0.00    +0.000 N 
ATOM      4  C   UNL     1      -2.374  11.614  17.915  0.00  0.00    +0.000 C 
ATOM      5  C   UNL     1      -2.275  10.132  17.562  0.00  0.00    +0.000 C 
ATOM      6  C   UNL     1      -0.821   9.715  17.342  0.00  0.00    +0.000 C 
ATOM      7  C   UNL     1       0.025  10.071  18.564  0.00  0.00    +0.000 C 
ATOM      8  C   UNL     1      -0.148  11.536  18.962  0.00  0.00    +0.000 C 
ENDROOT
BRANCH   1  14
ATOM      9  C   UNL     1      -1.333  12.767  22.630  0.00  0.00    +0.000 A 
ATOM     10  N   UNL     1      -0.470  13.485  23.356  0.00  0.00    +0.000 NA
ATOM     11  O   UNL     1       0.117  14.362  22.482  0.00  0.00    +0.000 OA
ATOM     12  C   UNL     1      -0.385  14.182  21.231  0.00  0.00    +0.000 A 
ATOM     13  C   UNL     1       0.153  15.139  20.239  0.00  0.00    +0.000 C 
ATOM     14  C   UNL     1      -1.292  13.132  21.243  0.00  0.00    +0.000 A 
BRANCH   9  16
ATOM     15  C   UNL     1      -3.463  12.288  23.873  0.00  0.00    +0.000 C 
ATOM     16  C   UNL     1      -2.159  11.730  23.319  0.00  0.00    +0.000 C 
ENDBRANCH   9  16
ENDBRANCH   1  14
BRANCH   7  17
ATOM     17  C   UNL     1       1.511   9.848  18.314  0.00  0.00    +0.000 C 
ATOM     18  O   UNL     1       2.258  10.754  17.954  0.00  0.00    +0.000 OA
BRANCH  17  19
ATOM     19  C   UNL     1       2.088   8.509  18.585  0.00  0.00    +0.000 A 
ATOM     20  C   UNL     1       2.986   7.909  17.695  0.00  0.00    +0.000 A 
ATOM     21  C   UNL     1       3.479   6.634  17.968  0.00  0.00    +0.000 A 
ATOM     22  C   UNL     1       3.093   5.945  19.119  0.00  0.00    +0.000 A 
ATOM     23  C   UNL     1       2.207   6.559  20.009  0.00  0.00    +0.000 A 
ATOM     24  F   UNL     1       1.803   5.950  21.132  0.00  0.00    +0.000 F 
ATOM     25  C   UNL     1       1.708   7.838  19.750  0.00  0.00    +0.000 A 
BRANCH  22  26
ATOM     26  O   UNL     1       3.654   4.704  19.231  0.00  0.00    +0.000 OA
ATOM     27  C   UNL     1       5.031   4.581  18.907  0.00  0.00    +0.000 C 
ENDBRANCH  22  26
ENDBRANCH  17  19
ENDBRANCH   7  17
TORSDOF 5
ENDMDL
MODEL 7
REMARK VINA RESULT:      -7.8      1.737      2.394
REMARK  Name = 
REMARK  8 active torsions:
REMARK  status: ('A' for Active; 'I' for Inactive)
REMARK    1  A    between atoms: C_1  and  C_2
REMARK    2  A    between atoms: C_2  and  C_3
REMARK    3  A    between atoms: C_6  and  C_7
REMARK    4  A    between atoms: C_8  and  C_9
REMARK    5  A    between atoms: C_15  and  C_16
REMARK    6  A    between atoms: C_16  and  C_18
REMARK    7  A    between atoms: C_21  and  O_22
REMARK    8  A    between atoms: O_22  and  C_23
REMARK                            x       y       z     vdW  Elec       q    Type
REMARK                         _______ _______ _______ _____ _____    ______ ____
ROOT
ATOM      1  C   UNL     1       4.996   3.781  17.277  0.00  0.00    +0.000 C 
ATOM      2  O   UNL     1       5.013   2.852  16.467  0.00  0.00    +0.000 OA
ATOM      3  N   UNL     1       4.009   3.827  18.266  0.00  0.00    +0.000 N 
ATOM      4  C   UNL     1       3.196   2.638  18.525  0.00  0.00    +0.000 C 
ATOM      5  C   UNL     1       1.707   2.959  18.416  0.00  0.00    +0.000 C 
ATOM      6  C   UNL     1       1.324   4.113  19.344  0.00  0.00    +0.000 C 
ATOM      7  C   UNL     1       2.197   5.335  19.061  0.00  0.00    +0.000 C 
ATOM      8  C   UNL     1       3.684   4.984  19.085  0.00  0.00    +0.000 C 
ENDROOT
BRANCH   1  14
ATOM      9  C   UNL     1       6.383   5.507  15.956  0.00  0.00    +0.000 A 
ATOM     10  N   UNL     1       7.342   6.412  16.173  0.00  0.00    +0.000 NA
ATOM     11  O   UNL     1       7.641   6.330  17.508  0.00  0.00    +0.000 OA
ATOM     12  C   UNL     1       6.871   5.378  18.101  0.00  0.00    +0.000 A 
ATOM     13  C   UNL     1       7.180   5.181  19.535  0.00  0.00    +0.000 C 
ATOM     14  C   UNL     1       5.998   4.840  17.166  0.00  0.00    +0.000 A 
BRANCH   9  16
ATOM     15  C   UNL     1       6.564   4.222  13.805  0.00  0.00    +0.000 C 
ATOM     16  C   UNL     1       5.861   5.337  14.566  0.00  0.00    +0.000 C 
ENDBRANCH   9  16
ENDBRANCH   1  14
BRANCH   7  17
ATOM     17  C   UNL     1       1.982   6.441  20.085  0.00  0.00    +0.000 C 
ATOM     18  O   UNL     1       2.053   6.237  21.294  0.00  0.00    +0.000 OA
BRANCH  17  19
ATOM     19  C   UNL     1       1.748   7.825  19.604  0.00  0.00    +0.000 A 
ATOM     20  C   UNL     1       2.113   8.217  18.312  0.00  0.00    +0.000 A 
ATOM     21  C   UNL     1       1.909   9.537  17.909  0.00  0.00    +0.000 A 
ATOM     22  C   UNL     1       1.344  10.474  18.775  0.00  0.00    +0.000 A 
ATOM     23  C   UNL     1       0.970  10.068  20.060  0.00  0.00    +0.000 A 
ATOM     24  F   UNL     1       0.419  10.919  20.934  0.00  0.00    +0.000 F 
ATOM     25  C   UNL     1       1.165   8.748  20.475  0.00  0.00    +0.000 A 
BRANCH  22  26
ATOM     26  O   UNL     1       1.225  11.723  18.233  0.00  0.00    +0.000 OA
ATOM     27  C   UNL     1       2.171  12.701  18.637  0.00  0.00    +0.000 C 
ENDBRANCH  22  26
ENDBRANCH  17  19
ENDBRANCH   7  17
TORSDOF 5
ENDMDL
MODEL 8
REMARK VINA RESULT:      -7.7      4.171      9.556
REMARK  Name = 
REMARK  8 active torsions:
REMARK  status: ('A' for Active; 'I' for Inactive)
REMARK    1  A    between atoms: C_1  and  C_2
REMARK    2  A    between atoms: C_2  and  C_3
REMARK    3  A    between atoms: C_6  and  C_7
REMARK    4  A    between atoms: C_8  and  C_9
REMARK    5  A    between atoms: C_15  and  C_16
REMARK    6  A    between atoms: C_16  and  C_18
REMARK    7  A    between atoms: C_21  and  O_22
REMARK    8  A    between atoms: O_22  and  C_23
REMARK                            x       y       z     vdW  Elec       q    Type
REMARK                         _______ _______ _______ _____ _____    ______ ____
ROOT
ATOM      1  C   UNL     1      -2.583  12.432  20.467  0.00  0.00    +0.000 C 
ATOM      2  O   UNL     1      -3.814  12.416  20.531  0.00  0.00    +0.000 OA
ATOM      3  N   UNL     1      -1.937  11.928  19.335  0.00  0.00    +0.000 N 
ATOM      4  C   UNL     1      -2.712  11.668  18.120  0.00  0.00    +0.000 C 
ATOM      5  C   UNL     1      -2.527  10.227  17.651  0.00  0.00    +0.000 C 
ATOM      6  C   UNL     1      -1.047   9.900  17.451  0.00  0.00    +0.000 C 
ATOM      7  C   UNL     1      -0.260  10.192  18.728  0.00  0.00    +0.000 C 
ATOM      8  C   UNL     1      -0.521  11.609  19.238  0.00  0.00    +0.000 C 
ENDROOT
BRANCH   1  14
ATOM      9  C   UNL     1      -1.460  14.323  21.811  0.00  0.00    +0.000 A 
ATOM     10  N   UNL     1      -0.738  14.480  22.926  0.00  0.00    +0.000 NA
ATOM     11  O   UNL     1      -0.566  13.222  23.442  0.00  0.00    +0.000 OA
ATOM     12  C   UNL     1      -1.177  12.303  22.646  0.00  0.00    +0.000 A 
ATOM     13  C   UNL     1      -0.981  10.908  23.101  0.00  0.00    +0.000 C 
ATOM     14  C   UNL     1      -1.818  12.951  21.599  0.00  0.00    +0.000 A 
BRANCH   9  16
ATOM     15  C   UNL     1      -3.212  16.025  21.228  0.00  0.00    +0.000 C 
ATOM     16  C   UNL     1      -1.791  15.531  20.998  0.00  0.00    +0.000 C 
ENDBRANCH   9  16
ENDBRANCH   1  14
BRANCH   7  17
ATOM     17  C   UNL     1       1.242  10.063  18.516  0.00  0.00    +0.000 C 
ATOM     18  O   UNL     1       1.953  11.029  18.250  0.00  0.00    +0.000 OA
BRANCH  17  19
ATOM     19  C   UNL     1       1.879   8.736  18.708  0.00  0.00    +0.000 A 
ATOM     20  C   UNL     1       2.765   8.210  17.761  0.00  0.00    +0.000 A 
ATOM     21  C   UNL     1       3.315   6.945  17.962  0.00  0.00    +0.000 A 
ATOM     22  C   UNL     1       2.999   6.193  19.095  0.00  0.00    +0.000 A 
ATOM     23  C   UNL     1       2.123   6.735  20.041  0.00  0.00    +0.000 A 
ATOM     24  F   UNL     1       1.785   6.065  21.150  0.00  0.00    +0.000 F 
ATOM     25  C   UNL     1       1.568   8.003  19.856  0.00  0.00    +0.000 A 
BRANCH  22  26
ATOM     26  O   UNL     1       3.610   4.972  19.134  0.00  0.00    +0.000 OA
ATOM     27  C   UNL     1       5.030   4.954  19.120  0.00  0.00    +0.000 C 
ENDBRANCH  22  26
ENDBRANCH  17  19
ENDBRANCH   7  17
TORSDOF 5
ENDMDL
MODEL 9
REMARK VINA RESULT:      -7.7      1.985      3.094
REMARK  Name = 
REMARK  8 active torsions:
REMARK  status: ('A' for Active; 'I' for Inactive)
REMARK    1  A    between atoms: C_1  and  C_2
REMARK    2  A    between atoms: C_2  and  C_3
REMARK    3  A    between atoms: C_6  and  C_7
REMARK    4  A    between atoms: C_8  and  C_9
REMARK    5  A    between atoms: C_15  and  C_16
REMARK    6  A    between atoms: C_16  and  C_18
REMARK    7  A    between atoms: C_21  and  O_22
REMARK    8  A    between atoms: O_22  and  C_23
REMARK                            x       y       z     vdW  Elec       q    Type
REMARK                         _______ _______ _______ _____ _____    ______ ____
ROOT
ATOM      1  C   UNL     1       5.289   4.047  16.776  0.00  0.00    +0.000 C 
ATOM      2  O   UNL     1       5.425   3.242  15.852  0.00  0.00    +0.000 OA
ATOM      3  N   UNL     1       4.411   3.762  17.825  0.00  0.00    +0.000 N 
ATOM      4  C   UNL     1       3.894   2.401  17.981  0.00  0.00    +0.000 C 
ATOM      5  C   UNL     1       2.367   2.396  18.014  0.00  0.00    +0.000 C 
ATOM      6  C   UNL     1       1.838   3.324  19.108  0.00  0.00    +0.000 C 
ATOM      7  C   UNL     1       2.403   4.733  18.929  0.00  0.00    +0.000 C 
ATOM      8  C   UNL     1       3.927   4.718  18.809  0.00  0.00    +0.000 C 
ENDROOT
BRANCH   1  14
ATOM      9  C   UNL     1       7.211   5.609  17.493  0.00  0.00    +0.000 A 
ATOM     10  N   UNL     1       7.643   6.853  17.260  0.00  0.00    +0.000 NA
ATOM     11  O   UNL     1       6.738   7.408  16.392  0.00  0.00    +0.000 OA
ATOM     12  C   UNL     1       5.760   6.509  16.100  0.00  0.00    +0.000 A 
ATOM     13  C   UNL     1       4.704   7.056  15.218  0.00  0.00    +0.000 C 
ATOM     14  C   UNL     1       6.030   5.306  16.738  0.00  0.00    +0.000 A 
BRANCH   9  16
ATOM     15  C   UNL     1       8.212   5.412  19.788  0.00  0.00    +0.000 C 
ATOM     16  C   UNL     1       7.985   4.748  18.437  0.00  0.00    +0.000 C 
ENDBRANCH   9  16
ENDBRANCH   1  14
BRANCH   7  17
ATOM     17  C   UNL     1       2.056   5.641  20.101  0.00  0.00    +0.000 C 
ATOM     18  O   UNL     1       2.071   5.245  21.264  0.00  0.00    +0.000 OA
BRANCH  17  19
ATOM     19  C   UNL     1       1.759   7.070  19.834  0.00  0.00    +0.000 A 
ATOM     20  C   UNL     1       2.058   7.657  18.600  0.00  0.00    +0.000 A 
ATOM     21  C   UNL     1       1.796   9.012  18.400  0.00  0.00    +0.000 A 
ATOM     22  C   UNL     1       1.235   9.793  19.412  0.00  0.00    +0.000 A 
ATOM     23  C   UNL     1       0.927   9.193  20.636  0.00  0.00    +0.000 A 
ATOM     24  F   UNL     1       0.384   9.889  21.644  0.00  0.00    +0.000 F 
ATOM     25  C   UNL     1       1.181   7.836  20.849  0.00  0.00    +0.000 A 
BRANCH  22  26
ATOM     26  O   UNL     1       1.054  11.102  19.061  0.00  0.00    +0.000 OA
ATOM     27  C   UNL     1      -0.280  11.539  18.846  0.00  0.00    +0.000 C 
ENDBRANCH  22  26
ENDBRANCH  17  19
ENDBRANCH   7  17
TORSDOF 5
ENDMDL
