MODEL 1
REMARK VINA RESULT:      -7.0      0.000      0.000
REMARK  Name = 
REMARK  5 active torsions:
REMARK  status: ('A' for Active; 'I' for Inactive)
REMARK    1  A    between atoms: C_1  and  N_2
REMARK    2  A    between atoms: N_2  and  C_3
REMARK    3  A    between atoms: N_2  and  S_4
REMARK    4  A    between atoms: S_4  and  C_7
REMARK    5  A    between atoms: C_11  and  O_12
REMARK                            x       y       z     vdW  Elec       q    Type
REMARK                         _______ _______ _______ _____ _____    ______ ____
ROOT
ATOM      1  C   UNL     1       4.066   3.845  18.064  0.00  0.00    +0.000 A 
ATOM      2  C   UNL     1       4.904   3.560  16.974  0.00  0.00    +0.000 A 
ATOM      3  C   UNL     1       5.248   4.566  16.089  0.00  0.00    +0.000 A 
ATOM      4 BR   UNL     1       6.349   4.145  14.607  0.00  0.00    +0.000 Br
ATOM      5  C   UNL     1       4.781   5.862  16.298  0.00  0.00    +0.000 A 
ATOM      6  C   UNL     1       3.965   6.190  17.391  0.00  0.00    +0.000 A 
ATOM      7  N   UNL     1       3.564   7.471  17.538  0.00  0.00    +0.000 NA
ATOM      8  C   UNL     1       2.788   7.814  18.581  0.00  0.00    +0.000 A 
ATOM      9  C   UNL     1       2.351   6.910  19.516  0.00  0.00    +0.000 A 
ATOM     10  C   UNL     1       2.748   5.586  19.369  0.00  0.00    +0.000 A 
ATOM     11  C   UNL     1       3.588   5.170  18.301  0.00  0.00    +0.000 A 
ENDROOT
BRANCH   1  12
ATOM     12  S   UNL     1       3.712   2.449  19.136  0.00  0.00    +0.000 S 
ATOM     13  O   UNL     1       4.596   2.490  20.281  0.00  0.00    +0.000 OA
ATOM     14  O   UNL     1       3.676   1.271  18.295  0.00  0.00    +0.000 OA
BRANCH  12  16
ATOM     15  C   UNL     1       1.024   2.338  18.774  0.00  0.00    +0.000 C 
ATOM     16  N   UNL     1       2.122   2.754  19.658  0.00  0.00    +0.000 NA
ATOM     17  C   UNL     1       1.836   2.543  21.088  0.00  0.00    +0.000 C 
ENDBRANCH  12  16
ENDBRANCH   1  12
BRANCH   5  18
ATOM     18  O   UNL     1       5.124   6.861  15.409  0.00  0.00    +0.000 OA
ATOM     19  H   UNL     1       5.155   7.705  15.890  0.00  0.00    +0.000 HD
ENDBRANCH   5  18
TORSDOF 3
ENDMDL
MODEL 2
REMARK VINA RESULT:      -6.9      2.326      2.891
REMARK  Name = 
REMARK  5 active torsions:
REMARK  status: ('A' for Active; 'I' for Inactive)
REMARK    1  A    between atoms: C_1  and  N_2
REMARK    2  A    between atoms: N_2  and  C_3
REMARK    3  A    between atoms: N_2  and  S_4
REMARK    4  A    between atoms: S_4  and  C_7
REMARK    5  A    between atoms: C_11  and  O_12
REMARK                            x       y       z     vdW  Elec       q    Type
REMARK                         _______ _______ _______ _____ _____    ______ ____
ROOT
ATOM      1  C   UNL     1       4.737   3.878  17.095  0.00  0.00    +0.000 A 
ATOM      2  C   UNL     1       4.761   3.615  15.716  0.00  0.00    +0.000 A 
ATOM      3  C   UNL     1       5.781   4.127  14.935  0.00  0.00    +0.000 A 
ATOM      4 BR   UNL     1       5.766   3.787  13.072  0.00  0.00    +0.000 Br
ATOM      5  C   UNL     1       6.792   4.884  15.525  0.00  0.00    +0.000 A 
ATOM      6  C   UNL     1       6.817   5.144  16.902  0.00  0.00    +0.000 A 
ATOM      7  N   UNL     1       7.838   5.872  17.405  0.00  0.00    +0.000 NA
ATOM      8  C   UNL     1       7.890   6.129  18.724  0.00  0.00    +0.000 A 
ATOM      9  C   UNL     1       6.929   5.705  19.606  0.00  0.00    +0.000 A 
ATOM     10  C   UNL     1       5.867   4.965  19.099  0.00  0.00    +0.000 A 
ATOM     11  C   UNL     1       5.772   4.641  17.719  0.00  0.00    +0.000 A 
ENDROOT
BRANCH   1  12
ATOM     12  S   UNL     1       3.366   3.140  17.987  0.00  0.00    +0.000 S 
ATOM     13  O   UNL     1       3.873   2.144  18.905  0.00  0.00    +0.000 OA
ATOM     14  O   UNL     1       2.372   2.772  17.001  0.00  0.00    +0.000 OA
BRANCH  12  16
ATOM     15  C   UNL     1       2.274   5.622  18.136  0.00  0.00    +0.000 C 
ATOM     16  N   UNL     1       2.739   4.444  18.883  0.00  0.00    +0.000 NA
ATOM     17  C   UNL     1       1.891   4.112  20.041  0.00  0.00    +0.000 C 
ENDBRANCH  12  16
ENDBRANCH   1  12
BRANCH   5  18
ATOM     18  O   UNL     1       7.804   5.397  14.738  0.00  0.00    +0.000 OA
ATOM     19  H   UNL     1       8.001   4.757  14.034  0.00  0.00    +0.000 HD
ENDBRANCH   5  18
TORSDOF 3
ENDMDL
MODEL 3
REMARK VINA RESULT:      -6.8      1.070      1.401
REMARK  Name = 
REMARK  5 active torsions:
REMARK  status: ('A' for Active; 'I' for Inactive)
REMARK    1  A    between atoms: C_1  and  N_2
REMARK    2  A    between atoms: N_2  and  C_3
REMARK    3  A    between atoms: N_2  and  S_4
REMARK    4  A    between atoms: S_4  and  C_7
REMARK    5  A    between atoms: C_11  and  O_12
REMARK                            x       y       z     vdW  Elec       q    Type
REMARK                         _______ _______ _______ _____ _____    ______ ____
ROOT
ATOM      1  C   UNL     1       3.624   3.821  17.811  0.00  0.00    +0.000 A 
ATOM      2  C   UNL     1       4.562   3.519  16.811  0.00  0.00    +0.000 A 
ATOM      3  C   UNL     1       5.139   4.540  16.077  0.00  0.00    +0.000 A 
ATOM      4 BR   UNL     1       6.373   4.100  14.709  0.00  0.00    +0.000 Br
ATOM      5  C   UNL     1       4.804   5.865  16.351  0.00  0.00    +0.000 A 
ATOM      6  C   UNL     1       3.894   6.207  17.361  0.00  0.00    +0.000 A 
ATOM      7  N   UNL     1       3.630   7.513  17.579  0.00  0.00    +0.000 NA
ATOM      8  C   UNL     1       2.767   7.868  18.547  0.00  0.00    +0.000 A 
ATOM      9  C   UNL     1       2.104   6.956  19.328  0.00  0.00    +0.000 A 
ATOM     10  C   UNL     1       2.357   5.608  19.104  0.00  0.00    +0.000 A 
ATOM     11  C   UNL     1       3.278   5.174  18.114  0.00  0.00    +0.000 A 
ENDROOT
BRANCH   1  12
ATOM     12  S   UNL     1       2.967   2.402  18.691  0.00  0.00    +0.000 S 
ATOM     13  O   UNL     1       3.577   1.196  18.178  0.00  0.00    +0.000 OA
ATOM     14  O   UNL     1       1.525   2.537  18.689  0.00  0.00    +0.000 OA
BRANCH  12  16
ATOM     15  C   UNL     1       2.481   2.723  21.343  0.00  0.00    +0.000 C 
ATOM     16  N   UNL     1       3.501   2.653  20.287  0.00  0.00    +0.000 NA
ATOM     17  C   UNL     1       4.726   1.946  20.700  0.00  0.00    +0.000 C 
ENDBRANCH  12  16
ENDBRANCH   1  12
BRANCH   5  18
ATOM     18  O   UNL     1       5.381   6.878  15.612  0.00  0.00    +0.000 OA
ATOM     19  H   UNL     1       4.858   7.004  14.802  0.00  0.00    +0.000 HD
ENDBRANCH   5  18
TORSDOF 3
ENDMDL
MODEL 4
REMARK VINA RESULT:      -6.7      2.611      3.127
REMARK  Name = 
REMARK  5 active torsions:
REMARK  status: ('A' for Active; 'I' for Inactive)
REMARK    1  A    between atoms: C_1  and  N_2
REMARK    2  A    between atoms: N_2  and  C_3
REMARK    3  A    between atoms: N_2  and  S_4
REMARK    4  A    between atoms: S_4  and  C_7
REMARK    5  A    between atoms: C_11  and  O_12
REMARK                            x       y       z     vdW  Elec       q    Type
REMARK                         _______ _______ _______ _____ _____    ______ ____
ROOT
ATOM      1  C   UNL     1       4.403   4.287  17.039  0.00  0.00    +0.000 A 
ATOM      2  C   UNL     1       4.439   4.027  15.660  0.00  0.00    +0.000 A 
ATOM      3  C   UNL     1       5.582   4.315  14.935  0.00  0.00    +0.000 A 
ATOM      4 BR   UNL     1       5.589   3.989  13.070  0.00  0.00    +0.000 Br
ATOM      5  C   UNL     1       6.698   4.841  15.582  0.00  0.00    +0.000 A 
ATOM      6  C   UNL     1       6.709   5.088  16.963  0.00  0.00    +0.000 A 
ATOM      7  N   UNL     1       7.833   5.583  17.523  0.00  0.00    +0.000 NA
ATOM      8  C   UNL     1       7.872   5.821  18.846  0.00  0.00    +0.000 A 
ATOM      9  C   UNL     1       6.801   5.607  19.675  0.00  0.00    +0.000 A 
ATOM     10  C   UNL     1       5.634   5.108  19.108  0.00  0.00    +0.000 A 
ATOM     11  C   UNL     1       5.542   4.813  17.722  0.00  0.00    +0.000 A 
ENDROOT
BRANCH   1  12
ATOM     12  S   UNL     1       2.864   3.852  17.855  0.00  0.00    +0.000 S 
ATOM     13  O   UNL     1       1.996   3.183  16.912  0.00  0.00    +0.000 OA
ATOM     14  O   UNL     1       2.403   5.040  18.543  0.00  0.00    +0.000 OA
BRANCH  12  16
ATOM     15  C   UNL     1       2.640   2.744  20.324  0.00  0.00    +0.000 C 
ATOM     16  N   UNL     1       3.356   2.734  19.040  0.00  0.00    +0.000 NA
ATOM     17  C   UNL     1       3.708   1.381  18.575  0.00  0.00    +0.000 C 
ENDBRANCH  12  16
ENDBRANCH   1  12
BRANCH   5  18
ATOM     18  O   UNL     1       7.833   5.131  14.852  0.00  0.00    +0.000 OA
ATOM     19  H   UNL     1       7.760   6.041  14.517  0.00  0.00    +0.000 HD
ENDBRANCH   5  18
TORSDOF 3
ENDMDL
MODEL 5
REMARK VINA RESULT:      -6.7      3.044      5.184
REMARK  Name = 
REMARK  5 active torsions:
REMARK  status: ('A' for Active; 'I' for Inactive)
REMARK    1  A    between atoms: C_1  and  N_2
REMARK    2  A    between atoms: N_2  and  C_3
REMARK    3  A    between atoms: N_2  and  S_4
REMARK    4  A    between atoms: S_4  and  C_7
REMARK    5  A    between atoms: C_11  and  O_12
REMARK                            x       y       z     vdW  Elec       q    Type
REMARK                         _______ _______ _______ _____ _____    ______ ____
ROOT
ATOM      1  C   UNL     1       4.006   5.901  17.806  0.00  0.00    +0.000 A 
ATOM      2  C   UNL     1       3.386   7.160  17.843  0.00  0.00    +0.000 A 
ATOM      3  C   UNL     1       2.455   7.440  18.827  0.00  0.00    +0.000 A 
ATOM      4 BR   UNL     1       1.608   9.134  18.830  0.00  0.00    +0.000 Br
ATOM      5  C   UNL     1       2.154   6.479  19.790  0.00  0.00    +0.000 A 
ATOM      6  C   UNL     1       2.773   5.221  19.801  0.00  0.00    +0.000 A 
ATOM      7  N   UNL     1       2.442   4.346  20.776  0.00  0.00    +0.000 NA
ATOM      8  C   UNL     1       3.027   3.135  20.814  0.00  0.00    +0.000 A 
ATOM      9  C   UNL     1       3.945   2.719  19.884  0.00  0.00    +0.000 A 
ATOM     10  C   UNL     1       4.285   3.607  18.869  0.00  0.00    +0.000 A 
ATOM     11  C   UNL     1       3.719   4.908  18.792  0.00  0.00    +0.000 A 
ENDROOT
BRANCH   1  12
ATOM     12  S   UNL     1       5.201   5.680  16.485  0.00  0.00    +0.000 S 
ATOM     13  O   UNL     1       5.147   6.819  15.595  0.00  0.00    +0.000 OA
ATOM     14  O   UNL     1       5.005   4.345  15.959  0.00  0.00    +0.000 OA
BRANCH  12  16
ATOM     15  C   UNL     1       7.569   4.524  17.142  0.00  0.00    +0.000 C 
ATOM     16  N   UNL     1       6.692   5.693  17.305  0.00  0.00    +0.000 NA
ATOM     17  C   UNL     1       7.421   6.972  17.344  0.00  0.00    +0.000 C 
ENDBRANCH  12  16
ENDBRANCH   1  12
BRANCH   5  18
ATOM     18  O   UNL     1       1.220   6.763  20.766  0.00  0.00    +0.000 OA
ATOM     19  H   UNL     1       0.561   7.373  20.393  0.00  0.00    +0.000 HD
ENDBRANCH   5  18
TORSDOF 3
ENDMDL
MODEL 6
REMARK VINA RESULT:      -6.6      2.999      5.373
REMARK  Name = 
REMARK  5 active torsions:
REMARK  status: ('A' for Active; 'I' for Inactive)
REMARK    1  A    between atoms: C_1  and  N_2
REMARK    2  A    between atoms: N_2  and  C_3
REMARK    3  A    between atoms: N_2  and  S_4
REMARK    4  A    between atoms: S_4  and  C_7
REMARK    5  A    between atoms: C_11  and  O_12
REMARK                            x       y       z     vdW  Elec       q    Type
REMARK                         _______ _______ _______ _____ _____    ______ ____
ROOT
ATOM      1  C   UNL     1       3.959   5.465  17.686  0.00  0.00    +0.000 A 
ATOM      2  C   UNL     1       3.448   6.620  18.300  0.00  0.00    +0.000 A 
ATOM      3  C   UNL     1       2.487   6.505  19.288  0.00  0.00    +0.000 A 
ATOM      4 BR   UNL     1       1.788   8.081  20.073  0.00  0.00    +0.000 Br
ATOM      5  C   UNL     1       2.047   5.243  19.685  0.00  0.00    +0.000 A 
ATOM      6  C   UNL     1       2.555   4.067  19.113  0.00  0.00    +0.000 A 
ATOM      7  N   UNL     1       2.093   2.880  19.560  0.00  0.00    +0.000 NA
ATOM      8  C   UNL     1       2.569   1.737  19.035  0.00  0.00    +0.000 A 
ATOM      9  C   UNL     1       3.502   1.708  18.030  0.00  0.00    +0.000 A 
ATOM     10  C   UNL     1       3.977   2.925  17.554  0.00  0.00    +0.000 A 
ATOM     11  C   UNL     1       3.530   4.163  18.087  0.00  0.00    +0.000 A 
ENDROOT
BRANCH   1  12
ATOM     12  S   UNL     1       5.208   5.761  16.431  0.00  0.00    +0.000 S 
ATOM     13  O   UNL     1       5.005   7.071  15.853  0.00  0.00    +0.000 OA
ATOM     14  O   UNL     1       5.232   4.592  15.577  0.00  0.00    +0.000 OA
BRANCH  12  16
ATOM     15  C   UNL     1       7.518   4.583  17.239  0.00  0.00    +0.000 C 
ATOM     16  N   UNL     1       6.657   5.772  17.322  0.00  0.00    +0.000 NA
ATOM     17  C   UNL     1       7.410   7.039  17.358  0.00  0.00    +0.000 C 
ENDBRANCH  12  16
ENDBRANCH   1  12
BRANCH   5  18
ATOM     18  O   UNL     1       1.084   5.137  20.668  0.00  0.00    +0.000 OA
ATOM     19  H   UNL     1       0.234   5.433  20.300  0.00  0.00    +0.000 HD
ENDBRANCH   5  18
TORSDOF 3
ENDMDL
MODEL 7
REMARK VINA RESULT:      -6.6      2.634      4.573
REMARK  Name = 
REMARK  5 active torsions:
REMARK  status: ('A' for Active; 'I' for Inactive)
REMARK    1  A    between atoms: C_1  and  N_2
REMARK    2  A    between atoms: N_2  and  C_3
REMARK    3  A    between atoms: N_2  and  S_4
REMARK    4  A    between atoms: S_4  and  C_7
REMARK    5  A    between atoms: C_11  and  O_12
REMARK                            x       y       z     vdW  Elec       q    Type
REMARK                         _______ _______ _______ _____ _____    ______ ____
ROOT
ATOM      1  C   UNL     1       4.630   5.001  17.025  0.00  0.00    +0.000 A 
ATOM      2  C   UNL     1       4.492   3.636  17.324  0.00  0.00    +0.000 A 
ATOM      3  C   UNL     1       3.554   3.227  18.255  0.00  0.00    +0.000 A 
ATOM      4 BR   UNL     1       3.415   1.383  18.666  0.00  0.00    +0.000 Br
ATOM      5  C   UNL     1       2.737   4.170  18.876  0.00  0.00    +0.000 A 
ATOM      6  C   UNL     1       2.827   5.538  18.583  0.00  0.00    +0.000 A 
ATOM      7  N   UNL     1       1.990   6.391  19.212  0.00  0.00    +0.000 NA
ATOM      8  C   UNL     1       2.051   7.708  18.943  0.00  0.00    +0.000 A 
ATOM      9  C   UNL     1       2.952   8.249  18.062  0.00  0.00    +0.000 A 
ATOM     10  C   UNL     1       3.827   7.382  17.417  0.00  0.00    +0.000 A 
ATOM     11  C   UNL     1       3.793   5.980  17.641  0.00  0.00    +0.000 A 
ENDROOT
BRANCH   1  12
ATOM     12  S   UNL     1       5.874   5.386  15.790  0.00  0.00    +0.000 S 
ATOM     13  O   UNL     1       5.496   6.595  15.092  0.00  0.00    +0.000 OA
ATOM     14  O   UNL     1       6.117   4.169  15.044  0.00  0.00    +0.000 OA
BRANCH  12  16
ATOM     15  C   UNL     1       7.414   7.050  17.284  0.00  0.00    +0.000 C 
ATOM     16  N   UNL     1       7.262   5.700  16.722  0.00  0.00    +0.000 NA
ATOM     17  C   UNL     1       7.711   4.632  17.632  0.00  0.00    +0.000 C 
ENDBRANCH  12  16
ENDBRANCH   1  12
BRANCH   5  18
ATOM     18  O   UNL     1       1.807   3.755  19.808  0.00  0.00    +0.000 OA
ATOM     19  H   UNL     1       1.277   4.524  20.078  0.00  0.00    +0.000 HD
ENDBRANCH   5  18
TORSDOF 3
ENDMDL
MODEL 8
REMARK VINA RESULT:      -6.5      2.521      3.597
REMARK  Name = 
REMARK  5 active torsions:
REMARK  status: ('A' for Active; 'I' for Inactive)
REMARK    1  A    between atoms: C_1  and  N_2
REMARK    2  A    between atoms: N_2  and  C_3
REMARK    3  A    between atoms: N_2  and  S_4
REMARK    4  A    between atoms: S_4  and  C_7
REMARK    5  A    between atoms: C_11  and  O_12
REMARK                            x       y       z     vdW  Elec       q    Type
REMARK                         _______ _______ _______ _____ _____    ______ ____
ROOT
ATOM      1  C   UNL     1       3.352   4.639  19.483  0.00  0.00    +0.000 A 
ATOM      2  C   UNL     1       2.523   5.539  20.171  0.00  0.00    +0.000 A 
ATOM      3  C   UNL     1       2.365   6.830  19.698  0.00  0.00    +0.000 A 
ATOM      4 BR   UNL     1       1.271   8.033  20.668  0.00  0.00    +0.000 Br
ATOM      5  C   UNL     1       3.012   7.222  18.528  0.00  0.00    +0.000 A 
ATOM      6  C   UNL     1       3.826   6.343  17.798  0.00  0.00    +0.000 A 
ATOM      7  N   UNL     1       4.407   6.790  16.664  0.00  0.00    +0.000 NA
ATOM      8  C   UNL     1       5.185   5.965  15.942  0.00  0.00    +0.000 A 
ATOM      9  C   UNL     1       5.448   4.671  16.312  0.00  0.00    +0.000 A 
ATOM     10  C   UNL     1       4.864   4.203  17.484  0.00  0.00    +0.000 A 
ATOM     11  C   UNL     1       4.013   5.020  18.275  0.00  0.00    +0.000 A 
ENDROOT
BRANCH   1  12
ATOM     12  S   UNL     1       3.454   2.997  20.200  0.00  0.00    +0.000 S 
ATOM     13  O   UNL     1       2.736   2.979  21.456  0.00  0.00    +0.000 OA
ATOM     14  O   UNL     1       4.848   2.606  20.161  0.00  0.00    +0.000 OA
BRANCH  12  16
ATOM     15  C   UNL     1       1.340   2.536  18.559  0.00  0.00    +0.000 C 
ATOM     16  N   UNL     1       2.620   2.030  19.077  0.00  0.00    +0.000 NA
ATOM     17  C   UNL     1       3.431   1.338  18.059  0.00  0.00    +0.000 C 
ENDBRANCH  12  16
ENDBRANCH   1  12
BRANCH   5  18
ATOM     18  O   UNL     1       2.855   8.513  18.064  0.00  0.00    +0.000 OA
ATOM     19  H   UNL     1       2.362   9.022  18.730  0.00  0.00    +0.000 HD
ENDBRANCH   5  18
TORSDOF 3
ENDMDL
MODEL 9
REMARK VINA RESULT:      -6.5      2.156      3.266
REMARK  Name = 
REMARK  5 active torsions:
REMARK  status: ('A' for Active; 'I' for Inactive)
REMARK    1  A    between atoms: C_1  and  N_2
REMARK    2  A    between atoms: N_2  and  C_3
REMARK    3  A    between atoms: N_2  and  S_4
REMARK    4  A    between atoms: S_4  and  C_7
REMARK    5  A    between atoms: C_11  and  O_12
REMARK                            x       y       z     vdW  Elec       q    Type
REMARK                         _______ _______ _______ _____ _____    ______ ____
ROOT
ATOM      1  C   UNL     1       3.747   4.377  18.477  0.00  0.00    +0.000 A 
ATOM      2  C   UNL     1       2.960   5.340  19.130  0.00  0.00    +0.000 A 
ATOM      3  C   UNL     1       2.944   6.643  18.667  0.00  0.00    +0.000 A 
ATOM      4 BR   UNL     1       1.903   7.929  19.589  0.00  0.00    +0.000 Br
ATOM      5  C   UNL     1       3.691   6.989  17.543  0.00  0.00    +0.000 A 
ATOM      6  C   UNL     1       4.467   6.048  16.849  0.00  0.00    +0.000 A 
ATOM      7  N   UNL     1       5.152   6.453  15.758  0.00  0.00    +0.000 NA
ATOM      8  C   UNL     1       5.896   5.570  15.070  0.00  0.00    +0.000 A 
ATOM      9  C   UNL     1       6.022   4.254  15.436  0.00  0.00    +0.000 A 
ATOM     10  C   UNL     1       5.331   3.828  16.564  0.00  0.00    +0.000 A 
ATOM     11  C   UNL     1       4.509   4.709  17.316  0.00  0.00    +0.000 A 
ENDROOT
BRANCH   1  12
ATOM     12  S   UNL     1       3.661   2.725  19.175  0.00  0.00    +0.000 S 
ATOM     13  O   UNL     1       4.832   2.489  19.991  0.00  0.00    +0.000 OA
ATOM     14  O   UNL     1       3.348   1.824  18.086  0.00  0.00    +0.000 OA
BRANCH  12  16
ATOM     15  C   UNL     1       1.033   2.252  19.667  0.00  0.00    +0.000 C 
ATOM     16  N   UNL     1       2.294   2.801  20.185  0.00  0.00    +0.000 NA
ATOM     17  C   UNL     1       2.506   2.530  21.618  0.00  0.00    +0.000 C 
ENDBRANCH  12  16
ENDBRANCH   1  12
BRANCH   5  18
ATOM     18  O   UNL     1       3.675   8.293  17.090  0.00  0.00    +0.000 OA
ATOM     19  H   UNL     1       4.577   8.651  17.148  0.00  0.00    +0.000 HD
ENDBRANCH   5  18
TORSDOF 3
ENDMDL
