MODEL 1
REMARK VINA RESULT:      -7.5      0.000      0.000
REMARK  Name = 
REMARK  2 active torsions:
REMARK  status: ('A' for Active; 'I' for Inactive)
REMARK    1  A    between atoms: C_4  and  C_5
REMARK    2  A    between atoms: C_5  and  C_6
REMARK                            x       y       z     vdW  Elec       q    Type
REMARK                         _______ _______ _______ _____ _____    ______ ____
ROOT
ATOM      1  O   UNL     1       0.953  10.470  18.069  0.00  0.00    +0.000 OA
ATOM      2  C   UNL     1       1.369   9.408  18.508  0.00  0.00    +0.000 C 
ATOM      3  C   UNL     1       2.166   8.476  17.646  0.00  0.00    +0.000 C 
ATOM      4  C   UNL     1       2.329   7.210  18.470  0.00  0.00    +0.000 C 
ATOM      5  C   UNL     1       1.693   7.550  19.794  0.00  0.00    +0.000 C 
ATOM      6  O   UNL     1       1.697   6.763  20.733  0.00  0.00    +0.000 OA
ATOM      7  N   UNL     1       1.184   8.822  19.739  0.00  0.00    +0.000 N 
ATOM      8  C   UNL     1       0.556   9.495  20.815  0.00  0.00    +0.000 A 
ATOM      9  C   UNL     1       0.017   8.801  21.898  0.00  0.00    +0.000 A 
ATOM     10  C   UNL     1      -0.594   9.503  22.938  0.00  0.00    +0.000 A 
ATOM     11  C   UNL     1      -0.644  10.887  22.890  0.00  0.00    +0.000 A 
ATOM     12  C   UNL     1      -0.083  11.511  21.795  0.00  0.00    +0.000 A 
ATOM     13  N   UNL     1       0.503  10.846  20.775  0.00  0.00    +0.000 NA
ENDROOT
BRANCH   4  14
ATOM     14  C   UNL     1       3.786   6.785  18.687  0.00  0.00    +0.000 C 
BRANCH  14  15
ATOM     15  C   UNL     1       4.372   6.012  17.526  0.00  0.00    +0.000 A 
ATOM     16  C   UNL     1       4.196   4.624  17.438  0.00  0.00    +0.000 A 
ATOM     17  C   UNL     1       4.767   3.901  16.390  0.00  0.00    +0.000 A 
ATOM     18  C   UNL     1       5.504   4.564  15.411  0.00  0.00    +0.000 A 
ATOM     19 CL   UNL     1       6.223   3.674  14.128  0.00  0.00    +0.000 Cl
ATOM     20  C   UNL     1       5.661   5.947  15.467  0.00  0.00    +0.000 A 
ATOM     21  C   UNL     1       5.095   6.669  16.521  0.00  0.00    +0.000 A 
ENDBRANCH  14  15
ENDBRANCH   4  14
TORSDOF 2
ENDMDL
MODEL 2
REMARK VINA RESULT:      -7.5      0.754      1.196
REMARK  Name = 
REMARK  2 active torsions:
REMARK  status: ('A' for Active; 'I' for Inactive)
REMARK    1  A    between atoms: C_4  and  C_5
REMARK    2  A    between atoms: C_5  and  C_6
REMARK                            x       y       z     vdW  Elec       q    Type
REMARK                         _______ _______ _______ _____ _____    ______ ____
ROOT
ATOM      1  O   UNL     1       1.548   9.979  17.996  0.00  0.00    +0.000 OA
ATOM      2  C   UNL     1       1.820   8.901  18.505  0.00  0.00    +0.000 C 
ATOM      3  C   UNL     1       2.605   7.869  17.751  0.00  0.00    +0.000 C 
ATOM      4  C   UNL     1       2.571   6.626  18.623  0.00  0.00    +0.000 C 
ATOM      5  C   UNL     1       1.848   7.071  19.868  0.00  0.00    +0.000 C 
ATOM      6  O   UNL     1       1.691   6.323  20.825  0.00  0.00    +0.000 OA
ATOM      7  N   UNL     1       1.467   8.381  19.727  0.00  0.00    +0.000 N 
ATOM      8  C   UNL     1       0.807   9.148  20.718  0.00  0.00    +0.000 A 
ATOM      9  C   UNL     1       0.106   8.546  21.763  0.00  0.00    +0.000 A 
ATOM     10  C   UNL     1      -0.532   9.339  22.719  0.00  0.00    +0.000 A 
ATOM     11  C   UNL     1      -0.447  10.719  22.626  0.00  0.00    +0.000 A 
ATOM     12  C   UNL     1       0.269  11.248  21.573  0.00  0.00    +0.000 A 
ATOM     13  N   UNL     1       0.884  10.496  20.634  0.00  0.00    +0.000 NA
ENDROOT
BRANCH   4  14
ATOM     14  C   UNL     1       3.956   6.080  18.992  0.00  0.00    +0.000 C 
BRANCH  14  15
ATOM     15  C   UNL     1       4.789   5.679  17.795  0.00  0.00    +0.000 A 
ATOM     16  C   UNL     1       5.983   6.353  17.505  0.00  0.00    +0.000 A 
ATOM     17  C   UNL     1       6.736   6.011  16.379  0.00  0.00    +0.000 A 
ATOM     18  C   UNL     1       6.308   4.980  15.547  0.00  0.00    +0.000 A 
ATOM     19 CL   UNL     1       7.224   4.569  14.151  0.00  0.00    +0.000 Cl
ATOM     20  C   UNL     1       5.140   4.279  15.840  0.00  0.00    +0.000 A 
ATOM     21  C   UNL     1       4.384   4.626  16.962  0.00  0.00    +0.000 A 
ENDBRANCH  14  15
ENDBRANCH   4  14
TORSDOF 2
ENDMDL
MODEL 3
REMARK VINA RESULT:      -7.4      5.302      8.478
REMARK  Name = 
REMARK  2 active torsions:
REMARK  status: ('A' for Active; 'I' for Inactive)
REMARK    1  A    between atoms: C_4  and  C_5
REMARK    2  A    between atoms: C_5  and  C_6
REMARK                            x       y       z     vdW  Elec       q    Type
REMARK                         _______ _______ _______ _____ _____    ______ ____
ROOT
ATOM      1  O   UNL     1       7.971   6.554  16.259  0.00  0.00    +0.000 OA
ATOM      2  C   UNL     1       6.975   5.911  16.556  0.00  0.00    +0.000 C 
ATOM      3  C   UNL     1       6.344   6.048  17.909  0.00  0.00    +0.000 C 
ATOM      4  C   UNL     1       5.273   4.972  17.961  0.00  0.00    +0.000 C 
ATOM      5  C   UNL     1       5.303   4.358  16.585  0.00  0.00    +0.000 C 
ATOM      6  O   UNL     1       4.516   3.480  16.252  0.00  0.00    +0.000 OA
ATOM      7  N   UNL     1       6.288   4.957  15.842  0.00  0.00    +0.000 N 
ATOM      8  C   UNL     1       6.575   4.669  14.486  0.00  0.00    +0.000 A 
ATOM      9  C   UNL     1       6.179   3.470  13.893  0.00  0.00    +0.000 A 
ATOM     10  C   UNL     1       6.482   3.225  12.552  0.00  0.00    +0.000 A 
ATOM     11  C   UNL     1       7.161   4.186  11.820  0.00  0.00    +0.000 A 
ATOM     12  C   UNL     1       7.515   5.352  12.466  0.00  0.00    +0.000 A 
ATOM     13  N   UNL     1       7.238   5.601  13.765  0.00  0.00    +0.000 NA
ENDROOT
BRANCH   4  14
ATOM     14  C   UNL     1       3.866   5.500  18.265  0.00  0.00    +0.000 C 
BRANCH  14  15
ATOM     15  C   UNL     1       3.114   4.673  19.284  0.00  0.00    +0.000 A 
ATOM     16  C   UNL     1       1.815   5.033  19.669  0.00  0.00    +0.000 A 
ATOM     17  C   UNL     1       1.132   4.295  20.638  0.00  0.00    +0.000 A 
ATOM     18  C   UNL     1       1.737   3.180  21.213  0.00  0.00    +0.000 A 
ATOM     19 CL   UNL     1       0.904   2.279  22.418  0.00  0.00    +0.000 Cl
ATOM     20  C   UNL     1       3.014   2.791  20.817  0.00  0.00    +0.000 A 
ATOM     21  C   UNL     1       3.700   3.534  19.854  0.00  0.00    +0.000 A 
ENDBRANCH  14  15
ENDBRANCH   4  14
TORSDOF 2
ENDMDL
MODEL 4
REMARK VINA RESULT:      -7.4      5.252      8.464
REMARK  Name = 
REMARK  2 active torsions:
REMARK  status: ('A' for Active; 'I' for Inactive)
REMARK    1  A    between atoms: C_4  and  C_5
REMARK    2  A    between atoms: C_5  and  C_6
REMARK                            x       y       z     vdW  Elec       q    Type
REMARK                         _______ _______ _______ _____ _____    ______ ____
ROOT
ATOM      1  O   UNL     1       8.000   6.585  16.201  0.00  0.00    +0.000 OA
ATOM      2  C   UNL     1       7.004   5.945  16.504  0.00  0.00    +0.000 C 
ATOM      3  C   UNL     1       6.377   6.090  17.858  0.00  0.00    +0.000 C 
ATOM      4  C   UNL     1       5.305   5.016  17.919  0.00  0.00    +0.000 C 
ATOM      5  C   UNL     1       5.330   4.395  16.546  0.00  0.00    +0.000 C 
ATOM      6  O   UNL     1       4.540   3.517  16.220  0.00  0.00    +0.000 OA
ATOM      7  N   UNL     1       6.313   4.989  15.797  0.00  0.00    +0.000 N 
ATOM      8  C   UNL     1       6.595   4.693  14.441  0.00  0.00    +0.000 A 
ATOM      9  C   UNL     1       6.195   3.492  13.856  0.00  0.00    +0.000 A 
ATOM     10  C   UNL     1       6.494   3.240  12.515  0.00  0.00    +0.000 A 
ATOM     11  C   UNL     1       7.172   4.196  11.777  0.00  0.00    +0.000 A 
ATOM     12  C   UNL     1       7.530   5.365  12.415  0.00  0.00    +0.000 A 
ATOM     13  N   UNL     1       7.258   5.621  13.714  0.00  0.00    +0.000 NA
ENDROOT
BRANCH   4  14
ATOM     14  C   UNL     1       3.900   5.547  18.225  0.00  0.00    +0.000 C 
BRANCH  14  15
ATOM     15  C   UNL     1       3.166   4.751  19.281  0.00  0.00    +0.000 A 
ATOM     16  C   UNL     1       3.713   3.562  19.780  0.00  0.00    +0.000 A 
ATOM     17  C   UNL     1       3.021   2.804  20.726  0.00  0.00    +0.000 A 
ATOM     18  C   UNL     1       1.785   3.241  21.195  0.00  0.00    +0.000 A 
ATOM     19 CL   UNL     1       0.923   2.301  22.348  0.00  0.00    +0.000 Cl
ATOM     20  C   UNL     1       1.242   4.438  20.732  0.00  0.00    +0.000 A 
ATOM     21  C   UNL     1       1.932   5.192  19.779  0.00  0.00    +0.000 A 
ENDBRANCH  14  15
ENDBRANCH   4  14
TORSDOF 2
ENDMDL
MODEL 5
REMARK VINA RESULT:      -7.2      4.112      6.842
REMARK  Name = 
REMARK  2 active torsions:
REMARK  status: ('A' for Active; 'I' for Inactive)
REMARK    1  A    between atoms: C_4  and  C_5
REMARK    2  A    between atoms: C_5  and  C_6
REMARK                            x       y       z     vdW  Elec       q    Type
REMARK                         _______ _______ _______ _____ _____    ______ ____
ROOT
ATOM      1  O   UNL     1       4.184   5.135  17.226  0.00  0.00    +0.000 OA
ATOM      2  C   UNL     1       3.540   6.003  17.796  0.00  0.00    +0.000 C 
ATOM      3  C   UNL     1       3.499   7.406  17.267  0.00  0.00    +0.000 C 
ATOM      4  C   UNL     1       2.774   8.213  18.329  0.00  0.00    +0.000 C 
ATOM      5  C   UNL     1       2.361   7.185  19.351  0.00  0.00    +0.000 C 
ATOM      6  O   UNL     1       1.693   7.485  20.334  0.00  0.00    +0.000 OA
ATOM      7  N   UNL     1       2.822   5.952  18.967  0.00  0.00    +0.000 N 
ATOM      8  C   UNL     1       2.582   4.741  19.661  0.00  0.00    +0.000 A 
ATOM      9  C   UNL     1       2.221   4.728  21.008  0.00  0.00    +0.000 A 
ATOM     10  C   UNL     1       1.994   3.511  21.654  0.00  0.00    +0.000 A 
ATOM     11  C   UNL     1       2.117   2.329  20.943  0.00  0.00    +0.000 A 
ATOM     12  C   UNL     1       2.468   2.414  19.612  0.00  0.00    +0.000 A 
ATOM     13  N   UNL     1       2.701   3.582  18.974  0.00  0.00    +0.000 NA
ENDROOT
BRANCH   4  14
ATOM     14  C   UNL     1       1.539   8.962  17.814  0.00  0.00    +0.000 C 
BRANCH  14  15
ATOM     15  C   UNL     1       1.404  10.363  18.367  0.00  0.00    +0.000 A 
ATOM     16  C   UNL     1       0.367  10.678  19.255  0.00  0.00    +0.000 A 
ATOM     17  C   UNL     1       0.216  11.979  19.738  0.00  0.00    +0.000 A 
ATOM     18  C   UNL     1       1.114  12.971  19.350  0.00  0.00    +0.000 A 
ATOM     19 CL   UNL     1       0.920  14.578  19.930  0.00  0.00    +0.000 Cl
ATOM     20  C   UNL     1       2.169  12.666  18.493  0.00  0.00    +0.000 A 
ATOM     21  C   UNL     1       2.315  11.365  18.005  0.00  0.00    +0.000 A 
ENDBRANCH  14  15
ENDBRANCH   4  14
TORSDOF 2
ENDMDL
MODEL 6
REMARK VINA RESULT:      -7.1      4.102      6.899
REMARK  Name = 
REMARK  2 active torsions:
REMARK  status: ('A' for Active; 'I' for Inactive)
REMARK    1  A    between atoms: C_4  and  C_5
REMARK    2  A    between atoms: C_5  and  C_6
REMARK                            x       y       z     vdW  Elec       q    Type
REMARK                         _______ _______ _______ _____ _____    ______ ____
ROOT
ATOM      1  O   UNL     1       4.313   5.132  17.296  0.00  0.00    +0.000 OA
ATOM      2  C   UNL     1       3.633   5.993  17.835  0.00  0.00    +0.000 C 
ATOM      3  C   UNL     1       3.596   7.393  17.300  0.00  0.00    +0.000 C 
ATOM      4  C   UNL     1       2.815   8.193  18.327  0.00  0.00    +0.000 C 
ATOM      5  C   UNL     1       2.372   7.163  19.334  0.00  0.00    +0.000 C 
ATOM      6  O   UNL     1       1.659   7.456  20.286  0.00  0.00    +0.000 OA
ATOM      7  N   UNL     1       2.866   5.936  18.974  0.00  0.00    +0.000 N 
ATOM      8  C   UNL     1       2.614   4.723  19.661  0.00  0.00    +0.000 A 
ATOM      9  C   UNL     1       2.196   4.709  20.992  0.00  0.00    +0.000 A 
ATOM     10  C   UNL     1       1.959   3.491  21.632  0.00  0.00    +0.000 A 
ATOM     11  C   UNL     1       2.128   2.308  20.931  0.00  0.00    +0.000 A 
ATOM     12  C   UNL     1       2.535   2.395  19.616  0.00  0.00    +0.000 A 
ATOM     13  N   UNL     1       2.778   3.564  18.984  0.00  0.00    +0.000 NA
ENDROOT
BRANCH   4  14
ATOM     14  C   UNL     1       1.592   8.923  17.757  0.00  0.00    +0.000 C 
BRANCH  14  15
ATOM     15  C   UNL     1       1.399  10.314  18.319  0.00  0.00    +0.000 A 
ATOM     16  C   UNL     1       2.309  11.335  18.012  0.00  0.00    +0.000 A 
ATOM     17  C   UNL     1       2.156  12.610  18.560  0.00  0.00    +0.000 A 
ATOM     18  C   UNL     1       1.081  12.878  19.403  0.00  0.00    +0.000 A 
ATOM     19 CL   UNL     1       0.900  14.443  20.092  0.00  0.00    +0.000 Cl
ATOM     20  C   UNL     1       0.150  11.883  19.692  0.00  0.00    +0.000 A 
ATOM     21  C   UNL     1       0.308  10.604  19.150  0.00  0.00    +0.000 A 
ENDBRANCH  14  15
ENDBRANCH   4  14
TORSDOF 2
ENDMDL
MODEL 7
REMARK VINA RESULT:      -7.1      2.223      3.334
REMARK  Name = 
REMARK  2 active torsions:
REMARK  status: ('A' for Active; 'I' for Inactive)
REMARK    1  A    between atoms: C_4  and  C_5
REMARK    2  A    between atoms: C_5  and  C_6
REMARK                            x       y       z     vdW  Elec       q    Type
REMARK                         _______ _______ _______ _____ _____    ______ ____
ROOT
ATOM      1  O   UNL     1       0.674   8.618  21.719  0.00  0.00    +0.000 OA
ATOM      2  C   UNL     1       1.131   8.544  20.587  0.00  0.00    +0.000 C 
ATOM      3  C   UNL     1       1.892   7.331  20.141  0.00  0.00    +0.000 C 
ATOM      4  C   UNL     1       2.450   7.690  18.775  0.00  0.00    +0.000 C 
ATOM      5  C   UNL     1       1.878   9.056  18.493  0.00  0.00    +0.000 C 
ATOM      6  O   UNL     1       2.080   9.634  17.432  0.00  0.00    +0.000 OA
ATOM      7  N   UNL     1       1.128   9.464  19.567  0.00  0.00    +0.000 N 
ATOM      8  C   UNL     1       0.402  10.678  19.638  0.00  0.00    +0.000 A 
ATOM      9  C   UNL     1       0.705  11.762  18.814  0.00  0.00    +0.000 A 
ATOM     10  C   UNL     1      -0.037  12.941  18.917  0.00  0.00    +0.000 A 
ATOM     11  C   UNL     1      -1.078  13.013  19.828  0.00  0.00    +0.000 A 
ATOM     12  C   UNL     1      -1.330  11.901  20.604  0.00  0.00    +0.000 A 
ATOM     13  N   UNL     1      -0.616  10.757  20.525  0.00  0.00    +0.000 NA
ENDROOT
BRANCH   4  14
ATOM     14  C   UNL     1       2.050   6.718  17.658  0.00  0.00    +0.000 C 
BRANCH  14  15
ATOM     15  C   UNL     1       2.497   5.294  17.903  0.00  0.00    +0.000 A 
ATOM     16  C   UNL     1       3.854   5.001  18.091  0.00  0.00    +0.000 A 
ATOM     17  C   UNL     1       4.276   3.683  18.279  0.00  0.00    +0.000 A 
ATOM     18  C   UNL     1       3.340   2.652  18.300  0.00  0.00    +0.000 A 
ATOM     19 CL   UNL     1       3.858   1.027  18.514  0.00  0.00    +0.000 Cl
ATOM     20  C   UNL     1       1.984   2.932  18.146  0.00  0.00    +0.000 A 
ATOM     21  C   UNL     1       1.563   4.250  17.951  0.00  0.00    +0.000 A 
ENDBRANCH  14  15
ENDBRANCH   4  14
TORSDOF 2
ENDMDL
MODEL 8
REMARK VINA RESULT:      -7.1      3.799      7.939
REMARK  Name = 
REMARK  2 active torsions:
REMARK  status: ('A' for Active; 'I' for Inactive)
REMARK    1  A    between atoms: C_4  and  C_5
REMARK    2  A    between atoms: C_5  and  C_6
REMARK                            x       y       z     vdW  Elec       q    Type
REMARK                         _______ _______ _______ _____ _____    ______ ____
ROOT
ATOM      1  O   UNL     1       2.804   3.848  19.807  0.00  0.00    +0.000 OA
ATOM      2  C   UNL     1       2.577   5.049  19.804  0.00  0.00    +0.000 C 
ATOM      3  C   UNL     1       1.621   5.656  20.786  0.00  0.00    +0.000 C 
ATOM      4  C   UNL     1       1.462   7.101  20.350  0.00  0.00    +0.000 C 
ATOM      5  C   UNL     1       2.425   7.244  19.199  0.00  0.00    +0.000 C 
ATOM      6  O   UNL     1       2.601   8.317  18.634  0.00  0.00    +0.000 OA
ATOM      7  N   UNL     1       3.030   6.037  18.961  0.00  0.00    +0.000 N 
ATOM      8  C   UNL     1       4.028   5.805  17.984  0.00  0.00    +0.000 A 
ATOM      9  C   UNL     1       4.198   6.658  16.893  0.00  0.00    +0.000 A 
ATOM     10  C   UNL     1       5.194   6.392  15.952  0.00  0.00    +0.000 A 
ATOM     11  C   UNL     1       6.015   5.288  16.122  0.00  0.00    +0.000 A 
ATOM     12  C   UNL     1       5.799   4.492  17.227  0.00  0.00    +0.000 A 
ATOM     13  N   UNL     1       4.833   4.729  18.142  0.00  0.00    +0.000 NA
ENDROOT
BRANCH   4  14
ATOM     14  C   UNL     1       1.798   8.127  21.439  0.00  0.00    +0.000 C 
BRANCH  14  15
ATOM     15  C   UNL     1       0.723   9.172  21.642  0.00  0.00    +0.000 A 
ATOM     16  C   UNL     1       0.284   9.955  20.566  0.00  0.00    +0.000 A 
ATOM     17  C   UNL     1      -0.681  10.946  20.756  0.00  0.00    +0.000 A 
ATOM     18  C   UNL     1      -1.226  11.148  22.021  0.00  0.00    +0.000 A 
ATOM     19 CL   UNL     1      -2.402  12.379  22.262  0.00  0.00    +0.000 Cl
ATOM     20  C   UNL     1      -0.823  10.356  23.094  0.00  0.00    +0.000 A 
ATOM     21  C   UNL     1       0.147   9.370  22.905  0.00  0.00    +0.000 A 
ENDBRANCH  14  15
ENDBRANCH   4  14
TORSDOF 2
ENDMDL
MODEL 9
REMARK VINA RESULT:      -7.1      2.211      3.224
REMARK  Name = 
REMARK  2 active torsions:
REMARK  status: ('A' for Active; 'I' for Inactive)
REMARK    1  A    between atoms: C_4  and  C_5
REMARK    2  A    between atoms: C_5  and  C_6
REMARK                            x       y       z     vdW  Elec       q    Type
REMARK                         _______ _______ _______ _____ _____    ______ ____
ROOT
ATOM      1  O   UNL     1       0.688   8.620  21.793  0.00  0.00    +0.000 OA
ATOM      2  C   UNL     1       1.122   8.546  20.652  0.00  0.00    +0.000 C 
ATOM      3  C   UNL     1       1.857   7.326  20.184  0.00  0.00    +0.000 C 
ATOM      4  C   UNL     1       2.394   7.686  18.810  0.00  0.00    +0.000 C 
ATOM      5  C   UNL     1       1.837   9.062  18.548  0.00  0.00    +0.000 C 
ATOM      6  O   UNL     1       2.027   9.643  17.486  0.00  0.00    +0.000 OA
ATOM      7  N   UNL     1       1.114   9.474  19.638  0.00  0.00    +0.000 N 
ATOM      8  C   UNL     1       0.407  10.697  19.730  0.00  0.00    +0.000 A 
ATOM      9  C   UNL     1       0.711  11.782  18.908  0.00  0.00    +0.000 A 
ATOM     10  C   UNL     1      -0.012  12.971  19.033  0.00  0.00    +0.000 A 
ATOM     11  C   UNL     1      -1.035  13.053  19.963  0.00  0.00    +0.000 A 
ATOM     12  C   UNL     1      -1.288  11.939  20.737  0.00  0.00    +0.000 A 
ATOM     13  N   UNL     1      -0.593  10.785  20.637  0.00  0.00    +0.000 NA
ENDROOT
BRANCH   4  14
ATOM     14  C   UNL     1       1.958   6.727  17.695  0.00  0.00    +0.000 C 
BRANCH  14  15
ATOM     15  C   UNL     1       2.446   5.309  17.889  0.00  0.00    +0.000 A 
ATOM     16  C   UNL     1       1.538   4.241  17.886  0.00  0.00    +0.000 A 
ATOM     17  C   UNL     1       1.978   2.934  18.104  0.00  0.00    +0.000 A 
ATOM     18  C   UNL     1       3.333   2.684  18.306  0.00  0.00    +0.000 A 
ATOM     19 CL   UNL     1       3.875   1.077  18.591  0.00  0.00    +0.000 Cl
ATOM     20  C   UNL     1       4.251   3.731  18.280  0.00  0.00    +0.000 A 
ATOM     21  C   UNL     1       3.809   5.039  18.070  0.00  0.00    +0.000 A 
ENDBRANCH  14  15
ENDBRANCH   4  14
TORSDOF 2
ENDMDL
