MODEL 1
REMARK VINA RESULT:      -7.2      0.000      0.000
REMARK  Name = 
REMARK  5 active torsions:
REMARK  status: ('A' for Active; 'I' for Inactive)
REMARK    1  A    between atoms: C_1  and  O_2
REMARK    2  A    between atoms: O_2  and  C_3
REMARK    3  A    between atoms: C_8  and  N_9
REMARK    4  A    between atoms: N_12  and  C_13
REMARK    5  A    between atoms: C_13  and  C_14
REMARK                            x       y       z     vdW  Elec       q    Type
REMARK                         _______ _______ _______ _____ _____    ______ ____
ROOT
ATOM      1  N   UNL     1       1.799   6.950  20.020  0.00  0.00    +0.000 N 
ATOM      2  C   UNL     1       1.675   5.675  20.740  0.00  0.00    +0.000 C 
ATOM      3  C   UNL     1       1.599   4.503  19.726  0.00  0.00    +0.000 C 
ATOM      4  N   UNL     1       2.695   4.439  18.731  0.00  0.00    +0.000 NA
ATOM      5  C   UNL     1       2.816   5.781  18.096  0.00  0.00    +0.000 C 
ATOM      6  C   UNL     1       2.912   6.990  19.064  0.00  0.00    +0.000 C 
ENDROOT
BRANCH   1  12
ATOM      7  C   UNL     1       1.015   9.309  19.767  0.00  0.00    +0.000 A 
ATOM      8  C   UNL     1       0.591  10.489  20.405  0.00  0.00    +0.000 A 
ATOM      9  C   UNL     1       0.377  10.527  21.781  0.00  0.00    +0.000 A 
ATOM     10  C   UNL     1       0.582   9.382  22.536  0.00  0.00    +0.000 A 
ATOM     11  C   UNL     1       1.027   8.214  21.913  0.00  0.00    +0.000 A 
ATOM     12  C   UNL     1       1.268   8.134  20.524  0.00  0.00    +0.000 A 
BRANCH   7  14
ATOM     13  C   UNL     1       2.017  10.256  17.813  0.00  0.00    +0.000 C 
ATOM     14  O   UNL     1       1.206   9.248  18.404  0.00  0.00    +0.000 OA
ENDBRANCH   7  14
ENDBRANCH   1  12
BRANCH   4  15
ATOM     15  C   UNL     1       3.936   3.931  19.351  0.00  0.00    +0.000 C 
BRANCH  15  16
ATOM     16  C   UNL     1       5.160   4.285  18.532  0.00  0.00    +0.000 A 
ATOM     17  C   UNL     1       5.179   4.041  17.135  0.00  0.00    +0.000 A 
ATOM     18  C   UNL     1       6.079   4.719  16.306  0.00  0.00    +0.000 A 
ATOM     19  C   UNL     1       6.895   5.649  16.905  0.00  0.00    +0.000 A 
ATOM     20  C   UNL     1       6.945   5.807  18.273  0.00  0.00    +0.000 A 
ATOM     21  C   UNL     1       6.140   5.092  19.123  0.00  0.00    +0.000 A 
ATOM     22  O   UNL     1       7.714   6.872  18.641  0.00  0.00    +0.000 OA
ATOM     23  C   UNL     1       7.797   7.532  17.362  0.00  0.00    +0.000 C 
ATOM     24  O   UNL     1       7.618   6.612  16.264  0.00  0.00    +0.000 OA
ENDBRANCH  15  16
ENDBRANCH   4  15
TORSDOF 4
ENDMDL
MODEL 2
REMARK VINA RESULT:      -7.1      1.802      2.580
REMARK  Name = 
REMARK  5 active torsions:
REMARK  status: ('A' for Active; 'I' for Inactive)
REMARK    1  A    between atoms: C_1  and  O_2
REMARK    2  A    between atoms: O_2  and  C_3
REMARK    3  A    between atoms: C_8  and  N_9
REMARK    4  A    between atoms: N_12  and  C_13
REMARK    5  A    between atoms: C_13  and  C_14
REMARK                            x       y       z     vdW  Elec       q    Type
REMARK                         _______ _______ _______ _____ _____    ______ ____
ROOT
ATOM      1  N   UNL     1       1.174   8.774  19.999  0.00  0.00    +0.000 N 
ATOM      2  C   UNL     1       1.932   7.590  20.429  0.00  0.00    +0.000 C 
ATOM      3  C   UNL     1       2.044   6.582  19.255  0.00  0.00    +0.000 C 
ATOM      4  N   UNL     1       2.589   7.123  17.989  0.00  0.00    +0.000 NA
ATOM      5  C   UNL     1       1.828   8.359  17.654  0.00  0.00    +0.000 C 
ATOM      6  C   UNL     1       1.699   9.411  18.787  0.00  0.00    +0.000 C 
ENDROOT
BRANCH   1  12
ATOM      7  C   UNL     1      -0.413  10.627  20.540  0.00  0.00    +0.000 A 
ATOM      8  C   UNL     1      -1.079  11.359  21.540  0.00  0.00    +0.000 A 
ATOM      9  C   UNL     1      -1.007  10.981  22.879  0.00  0.00    +0.000 A 
ATOM     10  C   UNL     1      -0.269   9.863  23.234  0.00  0.00    +0.000 A 
ATOM     11  C   UNL     1       0.416   9.145  22.251  0.00  0.00    +0.000 A 
ATOM     12  C   UNL     1       0.381   9.500  20.884  0.00  0.00    +0.000 A 
BRANCH   7  14
ATOM     13  C   UNL     1      -1.134  12.202  18.892  0.00  0.00    +0.000 C 
ATOM     14  O   UNL     1      -0.494  10.972  19.210  0.00  0.00    +0.000 OA
ENDBRANCH   7  14
ENDBRANCH   1  12
BRANCH   4  15
ATOM     15  C   UNL     1       4.053   7.301  18.083  0.00  0.00    +0.000 C 
BRANCH  15  16
ATOM     16  C   UNL     1       4.801   6.123  17.494  0.00  0.00    +0.000 A 
ATOM     17  C   UNL     1       4.137   4.889  17.283  0.00  0.00    +0.000 A 
ATOM     18  C   UNL     1       4.648   3.948  16.383  0.00  0.00    +0.000 A 
ATOM     19  C   UNL     1       5.785   4.303  15.695  0.00  0.00    +0.000 A 
ATOM     20  C   UNL     1       6.484   5.457  15.979  0.00  0.00    +0.000 A 
ATOM     21  C   UNL     1       6.058   6.357  16.921  0.00  0.00    +0.000 A 
ATOM     22  O   UNL     1       7.494   5.679  15.089  0.00  0.00    +0.000 OA
ATOM     23  C   UNL     1       7.082   4.760  14.059  0.00  0.00    +0.000 C 
ATOM     24  O   UNL     1       6.274   3.683  14.582  0.00  0.00    +0.000 OA
ENDBRANCH  15  16
ENDBRANCH   4  15
TORSDOF 4
ENDMDL
MODEL 3
REMARK VINA RESULT:      -7.0      1.806      2.467
REMARK  Name = 
REMARK  5 active torsions:
REMARK  status: ('A' for Active; 'I' for Inactive)
REMARK    1  A    between atoms: C_1  and  O_2
REMARK    2  A    between atoms: O_2  and  C_3
REMARK    3  A    between atoms: C_8  and  N_9
REMARK    4  A    between atoms: N_12  and  C_13
REMARK    5  A    between atoms: C_13  and  C_14
REMARK                            x       y       z     vdW  Elec       q    Type
REMARK                         _______ _______ _______ _____ _____    ______ ____
ROOT
ATOM      1  N   UNL     1       1.313   8.908  19.436  0.00  0.00    +0.000 N 
ATOM      2  C   UNL     1       1.726   8.017  20.530  0.00  0.00    +0.000 C 
ATOM      3  C   UNL     1       1.782   6.552  20.023  0.00  0.00    +0.000 C 
ATOM      4  N   UNL     1       2.608   6.318  18.816  0.00  0.00    +0.000 NA
ATOM      5  C   UNL     1       2.190   7.301  17.778  0.00  0.00    +0.000 C 
ATOM      6  C   UNL     1       2.132   8.786  18.225  0.00  0.00    +0.000 C 
ENDROOT
BRANCH   1  12
ATOM      7  C   UNL     1      -0.441  10.579  18.823  0.00  0.00    +0.000 A 
ATOM      8  C   UNL     1      -1.032  11.826  19.095  0.00  0.00    +0.000 A 
ATOM      9  C   UNL     1      -0.661  12.572  20.212  0.00  0.00    +0.000 A 
ATOM     10  C   UNL     1       0.307  12.077  21.072  0.00  0.00    +0.000 A 
ATOM     11  C   UNL     1       0.916  10.851  20.796  0.00  0.00    +0.000 A 
ATOM     12  C   UNL     1       0.579  10.068  19.669  0.00  0.00    +0.000 A 
BRANCH   7  14
ATOM     13  C   UNL     1      -2.021  10.175  17.074  0.00  0.00    +0.000 C 
ATOM     14  O   UNL     1      -0.815   9.817  17.738  0.00  0.00    +0.000 OA
ENDBRANCH   7  14
ENDBRANCH   1  12
BRANCH   4  15
ATOM     15  C   UNL     1       4.046   6.343  19.153  0.00  0.00    +0.000 C 
BRANCH  15  16
ATOM     16  C   UNL     1       4.843   5.388  18.288  0.00  0.00    +0.000 A 
ATOM     17  C   UNL     1       4.254   4.184  17.824  0.00  0.00    +0.000 A 
ATOM     18  C   UNL     1       4.783   3.512  16.718  0.00  0.00    +0.000 A 
ATOM     19  C   UNL     1       5.858   4.097  16.092  0.00  0.00    +0.000 A 
ATOM     20  C   UNL     1       6.490   5.209  16.606  0.00  0.00    +0.000 A 
ATOM     21  C   UNL     1       6.051   5.840  17.742  0.00  0.00    +0.000 A 
ATOM     22  O   UNL     1       7.437   5.702  15.758  0.00  0.00    +0.000 OA
ATOM     23  C   UNL     1       7.038   5.007  14.560  0.00  0.00    +0.000 C 
ATOM     24  O   UNL     1       6.332   3.782  14.852  0.00  0.00    +0.000 OA
ENDBRANCH  15  16
ENDBRANCH   4  15
TORSDOF 4
ENDMDL
MODEL 4
REMARK VINA RESULT:      -7.0      3.337      7.798
REMARK  Name = 
REMARK  5 active torsions:
REMARK  status: ('A' for Active; 'I' for Inactive)
REMARK    1  A    between atoms: C_1  and  O_2
REMARK    2  A    between atoms: O_2  and  C_3
REMARK    3  A    between atoms: C_8  and  N_9
REMARK    4  A    between atoms: N_12  and  C_13
REMARK    5  A    between atoms: C_13  and  C_14
REMARK                            x       y       z     vdW  Elec       q    Type
REMARK                         _______ _______ _______ _____ _____    ______ ____
ROOT
ATOM      1  N   UNL     1       5.454   4.944  15.196  0.00  0.00    +0.000 N 
ATOM      2  C   UNL     1       4.529   4.220  16.080  0.00  0.00    +0.000 C 
ATOM      3  C   UNL     1       4.784   4.628  17.555  0.00  0.00    +0.000 C 
ATOM      4  N   UNL     1       4.751   6.081  17.839  0.00  0.00    +0.000 NA
ATOM      5  C   UNL     1       5.648   6.758  16.861  0.00  0.00    +0.000 C 
ATOM      6  C   UNL     1       5.426   6.400  15.367  0.00  0.00    +0.000 C 
ENDROOT
BRANCH   1  12
ATOM      7  C   UNL     1       7.149   4.720  13.374  0.00  0.00    +0.000 A 
ATOM      8  C   UNL     1       7.464   4.184  12.111  0.00  0.00    +0.000 A 
ATOM      9  C   UNL     1       6.604   3.296  11.470  0.00  0.00    +0.000 A 
ATOM     10  C   UNL     1       5.417   2.929  12.086  0.00  0.00    +0.000 A 
ATOM     11  C   UNL     1       5.086   3.475  13.329  0.00  0.00    +0.000 A 
ATOM     12  C   UNL     1       5.922   4.388  14.008  0.00  0.00    +0.000 A 
BRANCH   7  14
ATOM     13  C   UNL     1       9.145   6.035  13.323  0.00  0.00    +0.000 C 
ATOM     14  O   UNL     1       8.000   5.579  14.033  0.00  0.00    +0.000 OA
ENDBRANCH   7  14
ENDBRANCH   1  12
BRANCH   4  15
ATOM     15  C   UNL     1       3.361   6.580  17.855  0.00  0.00    +0.000 C 
BRANCH  15  16
ATOM     16  C   UNL     1       2.434   5.637  18.596  0.00  0.00    +0.000 A 
ATOM     17  C   UNL     1       1.681   4.671  17.882  0.00  0.00    +0.000 A 
ATOM     18  C   UNL     1       1.165   3.546  18.534  0.00  0.00    +0.000 A 
ATOM     19  C   UNL     1       1.464   3.411  19.870  0.00  0.00    +0.000 A 
ATOM     20  C   UNL     1       2.107   4.402  20.580  0.00  0.00    +0.000 A 
ATOM     21  C   UNL     1       2.545   5.559  19.990  0.00  0.00    +0.000 A 
ATOM     22  O   UNL     1       2.424   4.004  21.846  0.00  0.00    +0.000 OA
ATOM     23  C   UNL     1       2.244   2.584  21.679  0.00  0.00    +0.000 C 
ATOM     24  O   UNL     1       1.323   2.275  20.612  0.00  0.00    +0.000 OA
ENDBRANCH  15  16
ENDBRANCH   4  15
TORSDOF 4
ENDMDL
MODEL 5
REMARK VINA RESULT:      -7.0      2.289      7.911
REMARK  Name = 
REMARK  5 active torsions:
REMARK  status: ('A' for Active; 'I' for Inactive)
REMARK    1  A    between atoms: C_1  and  O_2
REMARK    2  A    between atoms: O_2  and  C_3
REMARK    3  A    between atoms: C_8  and  N_9
REMARK    4  A    between atoms: N_12  and  C_13
REMARK    5  A    between atoms: C_13  and  C_14
REMARK                            x       y       z     vdW  Elec       q    Type
REMARK                         _______ _______ _______ _____ _____    ______ ____
ROOT
ATOM      1  N   UNL     1       3.765   6.304  18.105  0.00  0.00    +0.000 N 
ATOM      2  C   UNL     1       3.281   7.663  17.824  0.00  0.00    +0.000 C 
ATOM      3  C   UNL     1       1.796   7.793  18.256  0.00  0.00    +0.000 C 
ATOM      4  N   UNL     1       1.495   7.406  19.654  0.00  0.00    +0.000 NA
ATOM      5  C   UNL     1       2.078   6.056  19.891  0.00  0.00    +0.000 C 
ATOM      6  C   UNL     1       3.567   5.875  19.493  0.00  0.00    +0.000 C 
ENDROOT
BRANCH   1  12
ATOM      7  C   UNL     1       4.629   4.396  16.743  0.00  0.00    +0.000 A 
ATOM      8  C   UNL     1       5.723   3.827  16.064  0.00  0.00    +0.000 A 
ATOM      9  C   UNL     1       6.916   4.528  15.906  0.00  0.00    +0.000 A 
ATOM     10  C   UNL     1       7.031   5.808  16.425  0.00  0.00    +0.000 A 
ATOM     11  C   UNL     1       5.958   6.370  17.122  0.00  0.00    +0.000 A 
ATOM     12  C   UNL     1       4.735   5.691  17.315  0.00  0.00    +0.000 A 
BRANCH   7  14
ATOM     13  C   UNL     1       3.415   2.598  17.749  0.00  0.00    +0.000 C 
ATOM     14  O   UNL     1       3.434   3.727  16.885  0.00  0.00    +0.000 OA
ENDBRANCH   7  14
ENDBRANCH   1  12
BRANCH   4  15
ATOM     15  C   UNL     1       1.944   8.452  20.594  0.00  0.00    +0.000 C 
BRANCH  15  16
ATOM     16  C   UNL     1       0.779   9.232  21.167  0.00  0.00    +0.000 A 
ATOM     17  C   UNL     1       0.262   8.907  22.446  0.00  0.00    +0.000 A 
ATOM     18  C   UNL     1      -0.497   9.835  23.167  0.00  0.00    +0.000 A 
ATOM     19  C   UNL     1      -0.670  11.073  22.593  0.00  0.00    +0.000 A 
ATOM     20  C   UNL     1      -0.255  11.350  21.308  0.00  0.00    +0.000 A 
ATOM     21  C   UNL     1       0.412  10.430  20.540  0.00  0.00    +0.000 A 
ATOM     22  O   UNL     1      -0.400  12.669  20.992  0.00  0.00    +0.000 OA
ATOM     23  C   UNL     1      -0.583  13.191  22.323  0.00  0.00    +0.000 C 
ATOM     24  O   UNL     1      -1.107  12.198  23.230  0.00  0.00    +0.000 OA
ENDBRANCH  15  16
ENDBRANCH   4  15
TORSDOF 4
ENDMDL
MODEL 6
REMARK VINA RESULT:      -6.9      3.360      7.869
REMARK  Name = 
REMARK  5 active torsions:
REMARK  status: ('A' for Active; 'I' for Inactive)
REMARK    1  A    between atoms: C_1  and  O_2
REMARK    2  A    between atoms: O_2  and  C_3
REMARK    3  A    between atoms: C_8  and  N_9
REMARK    4  A    between atoms: N_12  and  C_13
REMARK    5  A    between atoms: C_13  and  C_14
REMARK                            x       y       z     vdW  Elec       q    Type
REMARK                         _______ _______ _______ _____ _____    ______ ____
ROOT
ATOM      1  N   UNL     1       6.034   4.863  15.394  0.00  0.00    +0.000 N 
ATOM      2  C   UNL     1       7.136   5.179  16.314  0.00  0.00    +0.000 C 
ATOM      3  C   UNL     1       6.720   6.342  17.253  0.00  0.00    +0.000 C 
ATOM      4  N   UNL     1       5.454   6.150  17.997  0.00  0.00    +0.000 NA
ATOM      5  C   UNL     1       4.403   5.758  17.017  0.00  0.00    +0.000 C 
ATOM      6  C   UNL     1       4.759   4.588  16.063  0.00  0.00    +0.000 C 
ENDROOT
BRANCH   1  12
ATOM      7  C   UNL     1       7.319   4.806  13.251  0.00  0.00    +0.000 A 
ATOM      8  C   UNL     1       7.384   4.346  11.923  0.00  0.00    +0.000 A 
ATOM      9  C   UNL     1       6.444   3.446  11.426  0.00  0.00    +0.000 A 
ATOM     10  C   UNL     1       5.427   2.994  12.252  0.00  0.00    +0.000 A 
ATOM     11  C   UNL     1       5.342   3.465  13.564  0.00  0.00    +0.000 A 
ATOM     12  C   UNL     1       6.266   4.386  14.106  0.00  0.00    +0.000 A 
BRANCH   7  14
ATOM     13  C   UNL     1       9.233   6.189  12.870  0.00  0.00    +0.000 C 
ATOM     14  O   UNL     1       8.256   5.675  13.767  0.00  0.00    +0.000 OA
ENDBRANCH   7  14
ENDBRANCH   1  12
BRANCH   4  15
ATOM     15  C   UNL     1       5.643   5.206  19.116  0.00  0.00    +0.000 C 
BRANCH  15  16
ATOM     16  C   UNL     1       4.321   4.705  19.659  0.00  0.00    +0.000 A 
ATOM     17  C   UNL     1       3.304   5.625  20.022  0.00  0.00    +0.000 A 
ATOM     18  C   UNL     1       1.971   5.213  20.116  0.00  0.00    +0.000 A 
ATOM     19  C   UNL     1       1.702   3.903  19.798  0.00  0.00    +0.000 A 
ATOM     20  C   UNL     1       2.704   2.989  19.548  0.00  0.00    +0.000 A 
ATOM     21  C   UNL     1       4.029   3.340  19.538  0.00  0.00    +0.000 A 
ATOM     22  O   UNL     1       2.212   1.791  19.120  0.00  0.00    +0.000 OA
ATOM     23  C   UNL     1       0.874   2.210  18.790  0.00  0.00    +0.000 C 
ATOM     24  O   UNL     1       0.470   3.378  19.538  0.00  0.00    +0.000 OA
ENDBRANCH  15  16
ENDBRANCH   4  15
TORSDOF 4
ENDMDL
MODEL 7
REMARK VINA RESULT:      -6.9      3.070      5.302
REMARK  Name = 
REMARK  5 active torsions:
REMARK  status: ('A' for Active; 'I' for Inactive)
REMARK    1  A    between atoms: C_1  and  O_2
REMARK    2  A    between atoms: O_2  and  C_3
REMARK    3  A    between atoms: C_8  and  N_9
REMARK    4  A    between atoms: N_12  and  C_13
REMARK    5  A    between atoms: C_13  and  C_14
REMARK                            x       y       z     vdW  Elec       q    Type
REMARK                         _______ _______ _______ _____ _____    ______ ____
ROOT
ATOM      1  N   UNL     1       4.247   4.730  18.510  0.00  0.00    +0.000 N 
ATOM      2  C   UNL     1       4.181   4.766  17.042  0.00  0.00    +0.000 C 
ATOM      3  C   UNL     1       5.113   5.881  16.500  0.00  0.00    +0.000 C 
ATOM      4  N   UNL     1       6.520   5.827  16.961  0.00  0.00    +0.000 NA
ATOM      5  C   UNL     1       6.511   5.715  18.446  0.00  0.00    +0.000 C 
ATOM      6  C   UNL     1       5.607   4.604  19.043  0.00  0.00    +0.000 C 
ENDROOT
BRANCH   1  12
ATOM      7  C   UNL     1       2.263   5.247  19.939  0.00  0.00    +0.000 A 
ATOM      8  C   UNL     1       1.265   4.754  20.799  0.00  0.00    +0.000 A 
ATOM      9  C   UNL     1       1.102   3.386  21.005  0.00  0.00    +0.000 A 
ATOM     10  C   UNL     1       1.936   2.493  20.350  0.00  0.00    +0.000 A 
ATOM     11  C   UNL     1       2.945   2.976  19.514  0.00  0.00    +0.000 A 
ATOM     12  C   UNL     1       3.154   4.354  19.286  0.00  0.00    +0.000 A 
BRANCH   7  14
ATOM     13  C   UNL     1       1.709   7.492  20.548  0.00  0.00    +0.000 C 
ATOM     14  O   UNL     1       2.421   6.595  19.705  0.00  0.00    +0.000 OA
ENDBRANCH   7  14
ENDBRANCH   1  12
BRANCH   4  15
ATOM     15  C   UNL     1       7.258   4.757  16.261  0.00  0.00    +0.000 C 
BRANCH  15  16
ATOM     16  C   UNL     1       6.989   4.770  14.770  0.00  0.00    +0.000 A 
ATOM     17  C   UNL     1       7.817   5.525  13.902  0.00  0.00    +0.000 A 
ATOM     18  C   UNL     1       7.869   5.236  12.535  0.00  0.00    +0.000 A 
ATOM     19  C   UNL     1       7.120   4.168  12.098  0.00  0.00    +0.000 A 
ATOM     20  C   UNL     1       6.239   3.504  12.924  0.00  0.00    +0.000 A 
ATOM     21  C   UNL     1       6.097   3.823  14.250  0.00  0.00    +0.000 A 
ATOM     22  O   UNL     1       5.708   2.398  12.328  0.00  0.00    +0.000 OA
ATOM     23  C   UNL     1       6.636   2.275  11.232  0.00  0.00    +0.000 C 
ATOM     24  O   UNL     1       7.248   3.538  10.895  0.00  0.00    +0.000 OA
ENDBRANCH  15  16
ENDBRANCH   4  15
TORSDOF 4
ENDMDL
MODEL 8
REMARK VINA RESULT:      -6.9      4.090      6.169
REMARK  Name = 
REMARK  5 active torsions:
REMARK  status: ('A' for Active; 'I' for Inactive)
REMARK    1  A    between atoms: C_1  and  O_2
REMARK    2  A    between atoms: O_2  and  C_3
REMARK    3  A    between atoms: C_8  and  N_9
REMARK    4  A    between atoms: N_12  and  C_13
REMARK    5  A    between atoms: C_13  and  C_14
REMARK                            x       y       z     vdW  Elec       q    Type
REMARK                         _______ _______ _______ _____ _____    ______ ____
ROOT
ATOM      1  N   UNL     1       4.053   4.086  18.435  0.00  0.00    +0.000 N 
ATOM      2  C   UNL     1       4.685   5.407  18.308  0.00  0.00    +0.000 C 
ATOM      3  C   UNL     1       6.071   5.264  17.625  0.00  0.00    +0.000 C 
ATOM      4  N   UNL     1       6.080   4.551  16.326  0.00  0.00    +0.000 NA
ATOM      5  C   UNL     1       5.359   3.260  16.509  0.00  0.00    +0.000 C 
ATOM      6  C   UNL     1       3.959   3.345  17.173  0.00  0.00    +0.000 C 
ENDROOT
BRANCH   1  12
ATOM      7  C   UNL     1       3.483   2.852  20.532  0.00  0.00    +0.000 A 
ATOM      8  C   UNL     1       2.497   2.527  21.482  0.00  0.00    +0.000 A 
ATOM      9  C   UNL     1       1.240   3.126  21.449  0.00  0.00    +0.000 A 
ATOM     10  C   UNL     1       0.953   4.060  20.466  0.00  0.00    +0.000 A 
ATOM     11  C   UNL     1       1.918   4.370  19.505  0.00  0.00    +0.000 A 
ATOM     12  C   UNL     1       3.201   3.778  19.493  0.00  0.00    +0.000 A 
BRANCH   7  14
ATOM     13  C   UNL     1       4.888   0.990  20.005  0.00  0.00    +0.000 C 
ATOM     14  O   UNL     1       4.739   2.288  20.566  0.00  0.00    +0.000 OA
ENDBRANCH   7  14
ENDBRANCH   1  12
BRANCH   4  15
ATOM     15  C   UNL     1       5.547   5.413  15.252  0.00  0.00    +0.000 C 
BRANCH  15  16
ATOM     16  C   UNL     1       5.983   4.937  13.881  0.00  0.00    +0.000 A 
ATOM     17  C   UNL     1       7.322   5.123  13.453  0.00  0.00    +0.000 A 
ATOM     18  C   UNL     1       7.853   4.349  12.417  0.00  0.00    +0.000 A 
ATOM     19  C   UNL     1       7.033   3.385  11.879  0.00  0.00    +0.000 A 
ATOM     20  C   UNL     1       5.703   3.278  12.226  0.00  0.00    +0.000 A 
ATOM     21  C   UNL     1       5.126   4.083  13.174  0.00  0.00    +0.000 A 
ATOM     22  O   UNL     1       5.116   2.174  11.680  0.00  0.00    +0.000 OA
ATOM     23  C   UNL     1       6.308   1.460  11.299  0.00  0.00    +0.000 C 
ATOM     24  O   UNL     1       7.428   2.347  11.088  0.00  0.00    +0.000 OA
ENDBRANCH  15  16
ENDBRANCH   4  15
TORSDOF 4
ENDMDL
MODEL 9
REMARK VINA RESULT:      -6.9      2.186      3.441
REMARK  Name = 
REMARK  5 active torsions:
REMARK  status: ('A' for Active; 'I' for Inactive)
REMARK    1  A    between atoms: C_1  and  O_2
REMARK    2  A    between atoms: O_2  and  C_3
REMARK    3  A    between atoms: C_8  and  N_9
REMARK    4  A    between atoms: N_12  and  C_13
REMARK    5  A    between atoms: C_13  and  C_14
REMARK                            x       y       z     vdW  Elec       q    Type
REMARK                         _______ _______ _______ _____ _____    ______ ____
ROOT
ATOM      1  N   UNL     1       0.307   9.524  19.152  0.00  0.00    +0.000 N 
ATOM      2  C   UNL     1       0.966   9.192  17.881  0.00  0.00    +0.000 C 
ATOM      3  C   UNL     1       2.436   8.774  18.144  0.00  0.00    +0.000 C 
ATOM      4  N   UNL     1       2.632   7.690  19.135  0.00  0.00    +0.000 NA
ATOM      5  C   UNL     1       1.877   8.055  20.366  0.00  0.00    +0.000 C 
ATOM      6  C   UNL     1       0.395   8.466  20.164  0.00  0.00    +0.000 C 
ENDROOT
BRANCH   1  12
ATOM      7  C   UNL     1      -0.950  11.321  20.350  0.00  0.00    +0.000 A 
ATOM      8  C   UNL     1      -2.071  12.171  20.366  0.00  0.00    +0.000 A 
ATOM      9  C   UNL     1      -2.937  12.241  19.277  0.00  0.00    +0.000 A 
ATOM     10  C   UNL     1      -2.692  11.462  18.157  0.00  0.00    +0.000 A 
ATOM     11  C   UNL     1      -1.595  10.597  18.144  0.00  0.00    +0.000 A 
ATOM     12  C   UNL     1      -0.698  10.485  19.230  0.00  0.00    +0.000 A 
BRANCH   7  14
ATOM     13  C   UNL     1      -0.613  10.991  22.695  0.00  0.00    +0.000 C 
ATOM     14  O   UNL     1      -0.070  11.259  21.408  0.00  0.00    +0.000 OA
ENDBRANCH   7  14
ENDBRANCH   1  12
BRANCH   4  15
ATOM     15  C   UNL     1       2.277   6.380  18.554  0.00  0.00    +0.000 C 
BRANCH  15  16
ATOM     16  C   UNL     1       3.489   5.482  18.408  0.00  0.00    +0.000 A 
ATOM     17  C   UNL     1       3.778   4.870  17.163  0.00  0.00    +0.000 A 
ATOM     18  C   UNL     1       5.066   4.403  16.880  0.00  0.00    +0.000 A 
ATOM     19  C   UNL     1       6.026   4.609  17.843  0.00  0.00    +0.000 A 
ATOM     20  C   UNL     1       5.718   5.110  19.090  0.00  0.00    +0.000 A 
ATOM     21  C   UNL     1       4.447   5.493  19.431  0.00  0.00    +0.000 A 
ATOM     22  O   UNL     1       6.833   5.362  19.834  0.00  0.00    +0.000 OA
ATOM     23  C   UNL     1       7.813   5.316  18.778  0.00  0.00    +0.000 C 
ATOM     24  O   UNL     1       7.375   4.508  17.664  0.00  0.00    +0.000 OA
ENDBRANCH  15  16
ENDBRANCH   4  15
TORSDOF 4
ENDMDL
