MODEL 1
REMARK VINA RESULT:      -7.5      0.000      0.000
REMARK  Name = 
REMARK  5 active torsions:
REMARK  status: ('A' for Active; 'I' for Inactive)
REMARK    1  A    between atoms: C_1  and  O_2
REMARK    2  A    between atoms: O_2  and  C_3
REMARK    3  A    between atoms: C_7  and  N_8
REMARK    4  A    between atoms: N_14  and  C_15
REMARK    5  A    between atoms: C_19  and  C_20
REMARK                            x       y       z     vdW  Elec       q    Type
REMARK                         _______ _______ _______ _____ _____    ______ ____
ROOT
ATOM      1  N   UNL     1      -1.311  11.197  19.822  0.00  0.00    +0.000 N 
ATOM      2  C   UNL     1      -0.350  10.283  20.324  0.00  0.00    +0.000 A 
ATOM      3  C   UNL     1      -0.091  10.281  21.680  0.00  0.00    +0.000 A 
ATOM      4  C   UNL     1       0.887   9.422  22.108  0.00  0.00    +0.000 A 
ATOM      5  N   UNL     1       1.564   8.612  21.286  0.00  0.00    +0.000 NA
ATOM      6  C   UNL     1       1.293   8.700  19.975  0.00  0.00    +0.000 A 
ATOM      7  N   UNL     1       2.055   7.949  19.084  0.00  0.00    +0.000 N 
ATOM      8  N   UNL     1       0.364   9.516  19.470  0.00  0.00    +0.000 NA
ATOM      9  H   UNL     1      -1.925  11.543  20.551  0.00  0.00    +0.000 HD
ATOM     10  H   UNL     1       1.978   8.288  18.136  0.00  0.00    +0.000 HD
ENDROOT
BRANCH   1  15
ATOM     11  C   UNL     1      -4.023  11.409  17.256  0.00  0.00    +0.000 A 
ATOM     12  C   UNL     1      -3.495  10.569  16.275  0.00  0.00    +0.000 A 
ATOM     13  C   UNL     1      -2.244   9.975  16.447  0.00  0.00    +0.000 A 
ATOM     14  C   UNL     1      -1.524  10.196  17.622  0.00  0.00    +0.000 A 
ATOM     15  C   UNL     1      -2.060  10.994  18.637  0.00  0.00    +0.000 A 
ATOM     16  C   UNL     1      -3.284  11.643  18.417  0.00  0.00    +0.000 A 
BRANCH  11  18
ATOM     17  C   UNL     1      -6.270  11.731  17.969  0.00  0.00    +0.000 C 
ATOM     18  O   UNL     1      -5.262  11.918  16.981  0.00  0.00    +0.000 OA
ENDBRANCH  11  18
ENDBRANCH   1  15
BRANCH   7  19
ATOM     19  C   UNL     1       2.664   6.704  19.286  0.00  0.00    +0.000 A 
ATOM     20  C   UNL     1       3.841   6.337  18.615  0.00  0.00    +0.000 A 
ATOM     21  C   UNL     1       4.419   5.082  18.805  0.00  0.00    +0.000 A 
ATOM     22  C   UNL     1       3.811   4.154  19.647  0.00  0.00    +0.000 A 
ATOM     23  C   UNL     1       2.616   4.479  20.298  0.00  0.00    +0.000 A 
ATOM     24  C   UNL     1       2.056   5.756  20.115  0.00  0.00    +0.000 A 
BRANCH  23  25
ATOM     25  C   UNL     1       1.890   3.533  21.191  0.00  0.00    +0.000 C 
ATOM     26  N   UNL     1       0.679   3.037  20.781  0.00  0.00    +0.000 N 
ATOM     27  O   UNL     1       2.343   3.196  22.276  0.00  0.00    +0.000 OA
ATOM     28  H   UNL     1       0.215   3.269  19.921  0.00  0.00    +0.000 HD
ATOM     29  H   UNL     1       0.214   2.407  21.419  0.00  0.00    +0.000 HD
ENDBRANCH  23  25
ENDBRANCH   7  19
TORSDOF 4
ENDMDL
MODEL 2
REMARK VINA RESULT:      -7.5      3.143      8.571
REMARK  Name = 
REMARK  5 active torsions:
REMARK  status: ('A' for Active; 'I' for Inactive)
REMARK    1  A    between atoms: C_1  and  O_2
REMARK    2  A    between atoms: O_2  and  C_3
REMARK    3  A    between atoms: C_7  and  N_8
REMARK    4  A    between atoms: N_14  and  C_15
REMARK    5  A    between atoms: C_19  and  C_20
REMARK                            x       y       z     vdW  Elec       q    Type
REMARK                         _______ _______ _______ _____ _____    ______ ____
ROOT
ATOM      1  N   UNL     1       3.917   4.716  18.564  0.00  0.00    +0.000 N 
ATOM      2  C   UNL     1       3.118   5.789  19.037  0.00  0.00    +0.000 A 
ATOM      3  C   UNL     1       2.599   5.707  20.314  0.00  0.00    +0.000 A 
ATOM      4  C   UNL     1       1.787   6.738  20.703  0.00  0.00    +0.000 A 
ATOM      5  N   UNL     1       1.500   7.784  19.919  0.00  0.00    +0.000 NA
ATOM      6  C   UNL     1       2.001   7.776  18.675  0.00  0.00    +0.000 A 
ATOM      7  N   UNL     1       1.635   8.795  17.800  0.00  0.00    +0.000 N 
ATOM      8  N   UNL     1       2.794   6.806  18.209  0.00  0.00    +0.000 NA
ATOM      9  H   UNL     1       4.271   4.142  19.321  0.00  0.00    +0.000 HD
ATOM     10  H   UNL     1       1.819   8.556  16.837  0.00  0.00    +0.000 HD
ENDROOT
BRANCH   1  15
ATOM     11  C   UNL     1       6.842   5.993  16.616  0.00  0.00    +0.000 A 
ATOM     12  C   UNL     1       6.874   5.055  15.583  0.00  0.00    +0.000 A 
ATOM     13  C   UNL     1       5.965   3.997  15.557  0.00  0.00    +0.000 A 
ATOM     14  C   UNL     1       4.994   3.887  16.554  0.00  0.00    +0.000 A 
ATOM     15  C   UNL     1       4.916   4.847  17.568  0.00  0.00    +0.000 A 
ATOM     16  C   UNL     1       5.883   5.862  17.622  0.00  0.00    +0.000 A 
BRANCH  11  18
ATOM     17  C   UNL     1       7.785   7.959  17.569  0.00  0.00    +0.000 C 
ATOM     18  O   UNL     1       7.772   6.992  16.524  0.00  0.00    +0.000 OA
ENDBRANCH  11  18
ENDBRANCH   1  15
BRANCH   7  19
ATOM     19  C   UNL     1       1.310  10.125  18.093  0.00  0.00    +0.000 A 
ATOM     20  C   UNL     1       2.295  11.115  18.234  0.00  0.00    +0.000 A 
ATOM     21  C   UNL     1       1.958  12.429  18.554  0.00  0.00    +0.000 A 
ATOM     22  C   UNL     1       0.627  12.774  18.774  0.00  0.00    +0.000 A 
ATOM     23  C   UNL     1      -0.373  11.800  18.678  0.00  0.00    +0.000 A 
ATOM     24  C   UNL     1      -0.021  10.483  18.332  0.00  0.00    +0.000 A 
BRANCH  23  25
ATOM     25  C   UNL     1      -1.815  12.082  18.925  0.00  0.00    +0.000 C 
ATOM     26  N   UNL     1      -2.680  12.073  17.860  0.00  0.00    +0.000 N 
ATOM     27  O   UNL     1      -2.240  12.324  20.045  0.00  0.00    +0.000 OA
ATOM     28  H   UNL     1      -2.426  11.907  16.904  0.00  0.00    +0.000 HD
ATOM     29  H   UNL     1      -3.647  12.280  18.068  0.00  0.00    +0.000 HD
ENDBRANCH  23  25
ENDBRANCH   7  19
TORSDOF 4
ENDMDL
MODEL 3
REMARK VINA RESULT:      -7.5      2.422      3.087
REMARK  Name = 
REMARK  5 active torsions:
REMARK  status: ('A' for Active; 'I' for Inactive)
REMARK    1  A    between atoms: C_1  and  O_2
REMARK    2  A    between atoms: O_2  and  C_3
REMARK    3  A    between atoms: C_7  and  N_8
REMARK    4  A    between atoms: N_14  and  C_15
REMARK    5  A    between atoms: C_19  and  C_20
REMARK                            x       y       z     vdW  Elec       q    Type
REMARK                         _______ _______ _______ _____ _____    ______ ____
ROOT
ATOM      1  N   UNL     1      -1.223  10.706  19.583  0.00  0.00    +0.000 N 
ATOM      2  C   UNL     1      -0.147   9.804  19.783  0.00  0.00    +0.000 A 
ATOM      3  C   UNL     1       0.211   9.487  21.078  0.00  0.00    +0.000 A 
ATOM      4  C   UNL     1       1.293   8.658  21.221  0.00  0.00    +0.000 A 
ATOM      5  N   UNL     1       1.979   8.161  20.185  0.00  0.00    +0.000 NA
ATOM      6  C   UNL     1       1.605   8.548  18.956  0.00  0.00    +0.000 A 
ATOM      7  N   UNL     1       2.364   8.135  17.865  0.00  0.00    +0.000 N 
ATOM      8  N   UNL     1       0.569   9.360  18.726  0.00  0.00    +0.000 NA
ATOM      9  H   UNL     1      -1.810  10.788  20.405  0.00  0.00    +0.000 HD
ATOM     10  H   UNL     1       2.185   8.692  17.043  0.00  0.00    +0.000 HD
ENDROOT
BRANCH   1  15
ATOM     11  C   UNL     1      -4.001  11.504  17.212  0.00  0.00    +0.000 A 
ATOM     12  C   UNL     1      -3.601  10.753  16.106  0.00  0.00    +0.000 A 
ATOM     13  C   UNL     1      -2.410  10.026  16.136  0.00  0.00    +0.000 A 
ATOM     14  C   UNL     1      -1.624  10.024  17.289  0.00  0.00    +0.000 A 
ATOM     15  C   UNL     1      -2.036  10.730  18.423  0.00  0.00    +0.000 A 
ATOM     16  C   UNL     1      -3.197  11.515  18.352  0.00  0.00    +0.000 A 
BRANCH  11  18
ATOM     17  C   UNL     1      -6.283  11.695  17.860  0.00  0.00    +0.000 C 
ATOM     18  O   UNL     1      -5.194  12.159  17.069  0.00  0.00    +0.000 OA
ENDBRANCH  11  18
ENDBRANCH   1  15
BRANCH   7  19
ATOM     19  C   UNL     1       3.098   6.952  17.707  0.00  0.00    +0.000 A 
ATOM     20  C   UNL     1       2.540   5.692  17.973  0.00  0.00    +0.000 A 
ATOM     21  C   UNL     1       3.292   4.526  17.839  0.00  0.00    +0.000 A 
ATOM     22  C   UNL     1       4.633   4.600  17.467  0.00  0.00    +0.000 A 
ATOM     23  C   UNL     1       5.226   5.846  17.233  0.00  0.00    +0.000 A 
ATOM     24  C   UNL     1       4.449   7.012  17.351  0.00  0.00    +0.000 A 
BRANCH  23  25
ATOM     25  C   UNL     1       6.659   6.010  16.861  0.00  0.00    +0.000 C 
ATOM     26  N   UNL     1       7.415   4.888  16.638  0.00  0.00    +0.000 N 
ATOM     27  O   UNL     1       7.173   7.115  16.753  0.00  0.00    +0.000 OA
ATOM     28  H   UNL     1       7.092   3.942  16.721  0.00  0.00    +0.000 HD
ATOM     29  H   UNL     1       8.385   5.042  16.398  0.00  0.00    +0.000 HD
ENDBRANCH  23  25
ENDBRANCH   7  19
TORSDOF 4
ENDMDL
MODEL 4
REMARK VINA RESULT:      -7.5      1.822      2.287
REMARK  Name = 
REMARK  5 active torsions:
REMARK  status: ('A' for Active; 'I' for Inactive)
REMARK    1  A    between atoms: C_1  and  O_2
REMARK    2  A    between atoms: O_2  and  C_3
REMARK    3  A    between atoms: C_7  and  N_8
REMARK    4  A    between atoms: N_14  and  C_15
REMARK    5  A    between atoms: C_19  and  C_20
REMARK                            x       y       z     vdW  Elec       q    Type
REMARK                         _______ _______ _______ _____ _____    ______ ____
ROOT
ATOM      1  N   UNL     1      -1.500  11.250  19.658  0.00  0.00    +0.000 N 
ATOM      2  C   UNL     1      -0.436  10.337  19.876  0.00  0.00    +0.000 A 
ATOM      3  C   UNL     1      -0.051  10.077  21.176  0.00  0.00    +0.000 A 
ATOM      4  C   UNL     1       1.019   9.235  21.332  0.00  0.00    +0.000 A 
ATOM      5  N   UNL     1       1.668   8.674  20.306  0.00  0.00    +0.000 NA
ATOM      6  C   UNL     1       1.270   9.008  19.069  0.00  0.00    +0.000 A 
ATOM      7  N   UNL     1       1.993   8.526  17.981  0.00  0.00    +0.000 N 
ATOM      8  N   UNL     1       0.244   9.828  18.825  0.00  0.00    +0.000 NA
ATOM      9  H   UNL     1      -2.064  11.383  20.490  0.00  0.00    +0.000 HD
ATOM     10  H   UNL     1       1.803   9.046  17.137  0.00  0.00    +0.000 HD
ENDROOT
BRANCH   1  15
ATOM     11  C   UNL     1      -2.745  10.724  16.172  0.00  0.00    +0.000 A 
ATOM     12  C   UNL     1      -4.046  11.213  16.302  0.00  0.00    +0.000 A 
ATOM     13  C   UNL     1      -4.511  11.673  17.535  0.00  0.00    +0.000 A 
ATOM     14  C   UNL     1      -3.663  11.672  18.644  0.00  0.00    +0.000 A 
ATOM     15  C   UNL     1      -2.342  11.233  18.519  0.00  0.00    +0.000 A 
ATOM     16  C   UNL     1      -1.913  10.705  17.291  0.00  0.00    +0.000 A 
BRANCH  11  18
ATOM     17  C   UNL     1      -3.466  10.065  14.002  0.00  0.00    +0.000 C 
ATOM     18  O   UNL     1      -2.400  10.318  14.912  0.00  0.00    +0.000 OA
ENDBRANCH  11  18
ENDBRANCH   1  15
BRANCH   7  19
ATOM     19  C   UNL     1       2.700   7.323  17.864  0.00  0.00    +0.000 A 
ATOM     20  C   UNL     1       4.042   7.289  17.453  0.00  0.00    +0.000 A 
ATOM     21  C   UNL     1       4.724   6.081  17.313  0.00  0.00    +0.000 A 
ATOM     22  C   UNL     1       4.066   4.877  17.550  0.00  0.00    +0.000 A 
ATOM     23  C   UNL     1       2.717   4.879  17.924  0.00  0.00    +0.000 A 
ATOM     24  C   UNL     1       2.047   6.106  18.082  0.00  0.00    +0.000 A 
BRANCH  23  25
ATOM     25  C   UNL     1       1.935   3.634  18.168  0.00  0.00    +0.000 C 
ATOM     26  N   UNL     1       1.105   3.581  19.258  0.00  0.00    +0.000 N 
ATOM     27  O   UNL     1       2.020   2.666  17.426  0.00  0.00    +0.000 OA
ATOM     28  H   UNL     1       0.982   4.312  19.934  0.00  0.00    +0.000 HD
ATOM     29  H   UNL     1       0.600   2.715  19.394  0.00  0.00    +0.000 HD
ENDBRANCH  23  25
ENDBRANCH   7  19
TORSDOF 4
ENDMDL
MODEL 5
REMARK VINA RESULT:      -7.4      3.838      8.288
REMARK  Name = 
REMARK  5 active torsions:
REMARK  status: ('A' for Active; 'I' for Inactive)
REMARK    1  A    between atoms: C_1  and  O_2
REMARK    2  A    between atoms: O_2  and  C_3
REMARK    3  A    between atoms: C_7  and  N_8
REMARK    4  A    between atoms: N_14  and  C_15
REMARK    5  A    between atoms: C_19  and  C_20
REMARK                            x       y       z     vdW  Elec       q    Type
REMARK                         _______ _______ _______ _____ _____    ______ ____
ROOT
ATOM      1  N   UNL     1       4.187   3.992  18.216  0.00  0.00    +0.000 N 
ATOM      2  C   UNL     1       3.382   4.896  18.956  0.00  0.00    +0.000 A 
ATOM      3  C   UNL     1       2.941   4.510  20.206  0.00  0.00    +0.000 A 
ATOM      4  C   UNL     1       2.120   5.392  20.856  0.00  0.00    +0.000 A 
ATOM      5  N   UNL     1       1.753   6.572  20.340  0.00  0.00    +0.000 NA
ATOM      6  C   UNL     1       2.181   6.861  19.102  0.00  0.00    +0.000 A 
ATOM      7  N   UNL     1       1.730   8.031  18.497  0.00  0.00    +0.000 N 
ATOM      8  N   UNL     1       2.976   6.055  18.393  0.00  0.00    +0.000 NA
ATOM      9  H   UNL     1       4.603   3.281  18.807  0.00  0.00    +0.000 HD
ATOM     10  H   UNL     1       1.865   8.019  17.496  0.00  0.00    +0.000 HD
ENDROOT
BRANCH   1  15
ATOM     11  C   UNL     1       6.902   5.844  16.433  0.00  0.00    +0.000 A 
ATOM     12  C   UNL     1       6.954   5.114  15.244  0.00  0.00    +0.000 A 
ATOM     13  C   UNL     1       6.129   4.004  15.056  0.00  0.00    +0.000 A 
ATOM     14  C   UNL     1       5.222   3.634  16.050  0.00  0.00    +0.000 A 
ATOM     15  C   UNL     1       5.121   4.385  17.226  0.00  0.00    +0.000 A 
ATOM     16  C   UNL     1       6.008   5.452  17.431  0.00  0.00    +0.000 A 
BRANCH  11  18
ATOM     17  C   UNL     1       7.705   7.705  17.679  0.00  0.00    +0.000 C 
ATOM     18  O   UNL     1       7.745   6.919  16.492  0.00  0.00    +0.000 OA
ENDBRANCH  11  18
ENDBRANCH   1  15
BRANCH   7  19
ATOM     19  C   UNL     1       1.379   9.247  19.095  0.00  0.00    +0.000 A 
ATOM     20  C   UNL     1       1.679  10.481  18.497  0.00  0.00    +0.000 A 
ATOM     21  C   UNL     1       1.348  11.685  19.119  0.00  0.00    +0.000 A 
ATOM     22  C   UNL     1       0.740  11.678  20.371  0.00  0.00    +0.000 A 
ATOM     23  C   UNL     1       0.464  10.463  21.009  0.00  0.00    +0.000 A 
ATOM     24  C   UNL     1       0.782   9.257  20.360  0.00  0.00    +0.000 A 
BRANCH  23  25
ATOM     25  C   UNL     1      -0.159  10.372  22.359  0.00  0.00    +0.000 C 
ATOM     26  N   UNL     1      -0.395   9.132  22.894  0.00  0.00    +0.000 N 
ATOM     27  O   UNL     1      -0.465  11.371  22.995  0.00  0.00    +0.000 OA
ATOM     28  H   UNL     1      -0.199   8.256  22.444  0.00  0.00    +0.000 HD
ATOM     29  H   UNL     1      -0.828   9.113  23.807  0.00  0.00    +0.000 HD
ENDBRANCH  23  25
ENDBRANCH   7  19
TORSDOF 4
ENDMDL
MODEL 6
REMARK VINA RESULT:      -7.4      3.111      8.767
REMARK  Name = 
REMARK  5 active torsions:
REMARK  status: ('A' for Active; 'I' for Inactive)
REMARK    1  A    between atoms: C_1  and  O_2
REMARK    2  A    between atoms: O_2  and  C_3
REMARK    3  A    between atoms: C_7  and  N_8
REMARK    4  A    between atoms: N_14  and  C_15
REMARK    5  A    between atoms: C_19  and  C_20
REMARK                            x       y       z     vdW  Elec       q    Type
REMARK                         _______ _______ _______ _____ _____    ______ ____
ROOT
ATOM      1  N   UNL     1       4.460   4.044  18.810  0.00  0.00    +0.000 N 
ATOM      2  C   UNL     1       3.401   4.655  19.529  0.00  0.00    +0.000 A 
ATOM      3  C   UNL     1       2.641   3.869  20.372  0.00  0.00    +0.000 A 
ATOM      4  C   UNL     1       1.595   4.492  21.000  0.00  0.00    +0.000 A 
ATOM      5  N   UNL     1       1.305   5.788  20.833  0.00  0.00    +0.000 NA
ATOM      6  C   UNL     1       2.057   6.480  19.964  0.00  0.00    +0.000 A 
ATOM      7  N   UNL     1       1.714   7.801  19.688  0.00  0.00    +0.000 N 
ATOM      8  N   UNL     1       3.089   5.950  19.302  0.00  0.00    +0.000 NA
ATOM      9  H   UNL     1       4.738   3.159  19.219  0.00  0.00    +0.000 HD
ATOM     10  H   UNL     1       2.142   8.137  18.837  0.00  0.00    +0.000 HD
ENDROOT
BRANCH   1  15
ATOM     11  C   UNL     1       7.057   5.505  16.552  0.00  0.00    +0.000 A 
ATOM     12  C   UNL     1       7.891   6.105  17.497  0.00  0.00    +0.000 A 
ATOM     13  C   UNL     1       7.575   6.056  18.855  0.00  0.00    +0.000 A 
ATOM     14  C   UNL     1       6.431   5.379  19.280  0.00  0.00    +0.000 A 
ATOM     15  C   UNL     1       5.611   4.730  18.352  0.00  0.00    +0.000 A 
ATOM     16  C   UNL     1       5.903   4.851  16.984  0.00  0.00    +0.000 A 
BRANCH  11  18
ATOM     17  C   UNL     1       6.818   4.788  14.296  0.00  0.00    +0.000 C 
ATOM     18  O   UNL     1       7.481   5.605  15.255  0.00  0.00    +0.000 OA
ENDBRANCH  11  18
ENDBRANCH   1  15
BRANCH   7  19
ATOM     19  C   UNL     1       1.104   8.741  20.528  0.00  0.00    +0.000 A 
ATOM     20  C   UNL     1       1.114   8.603  21.925  0.00  0.00    +0.000 A 
ATOM     21  C   UNL     1       0.478   9.532  22.747  0.00  0.00    +0.000 A 
ATOM     22  C   UNL     1      -0.212  10.604  22.185  0.00  0.00    +0.000 A 
ATOM     23  C   UNL     1      -0.271  10.745  20.794  0.00  0.00    +0.000 A 
ATOM     24  C   UNL     1       0.394   9.812  19.977  0.00  0.00    +0.000 A 
BRANCH  23  25
ATOM     25  C   UNL     1      -1.011  11.846  20.115  0.00  0.00    +0.000 C 
ATOM     26  N   UNL     1      -0.427  13.084  20.041  0.00  0.00    +0.000 N 
ATOM     27  O   UNL     1      -2.121  11.672  19.631  0.00  0.00    +0.000 OA
ATOM     28  H   UNL     1       0.467  13.331  20.424  0.00  0.00    +0.000 HD
ATOM     29  H   UNL     1      -0.966  13.806  19.582  0.00  0.00    +0.000 HD
ENDBRANCH  23  25
ENDBRANCH   7  19
TORSDOF 4
ENDMDL
MODEL 7
REMARK VINA RESULT:      -7.3      5.185      7.422
REMARK  Name = 
REMARK  5 active torsions:
REMARK  status: ('A' for Active; 'I' for Inactive)
REMARK    1  A    between atoms: C_1  and  O_2
REMARK    2  A    between atoms: O_2  and  C_3
REMARK    3  A    between atoms: C_7  and  N_8
REMARK    4  A    between atoms: N_14  and  C_15
REMARK    5  A    between atoms: C_19  and  C_20
REMARK                            x       y       z     vdW  Elec       q    Type
REMARK                         _______ _______ _______ _____ _____    ______ ____
ROOT
ATOM      1  N   UNL     1       2.673   5.505  19.391  0.00  0.00    +0.000 N 
ATOM      2  C   UNL     1       3.409   4.765  18.431  0.00  0.00    +0.000 A 
ATOM      3  C   UNL     1       3.283   3.390  18.426  0.00  0.00    +0.000 A 
ATOM      4  C   UNL     1       4.058   2.715  17.520  0.00  0.00    +0.000 A 
ATOM      5  N   UNL     1       4.893   3.325  16.670  0.00  0.00    +0.000 NA
ATOM      6  C   UNL     1       5.000   4.658  16.763  0.00  0.00    +0.000 A 
ATOM      7  N   UNL     1       5.938   5.310  15.967  0.00  0.00    +0.000 N 
ATOM      8  N   UNL     1       4.290   5.394  17.623  0.00  0.00    +0.000 NA
ATOM      9  H   UNL     1       1.901   4.971  19.774  0.00  0.00    +0.000 HD
ATOM     10  H   UNL     1       6.144   6.240  16.303  0.00  0.00    +0.000 HD
ENDROOT
BRANCH   1  15
ATOM     11  C   UNL     1       1.386   8.943  20.101  0.00  0.00    +0.000 A 
ATOM     12  C   UNL     1       1.501   9.512  18.832  0.00  0.00    +0.000 A 
ATOM     13  C   UNL     1       2.033   8.779  17.771  0.00  0.00    +0.000 A 
ATOM     14  C   UNL     1       2.428   7.455  17.968  0.00  0.00    +0.000 A 
ATOM     15  C   UNL     1       2.271   6.853  19.220  0.00  0.00    +0.000 A 
ATOM     16  C   UNL     1       1.805   7.626  20.294  0.00  0.00    +0.000 A 
BRANCH  11  18
ATOM     17  C   UNL     1       0.791  11.148  20.767  0.00  0.00    +0.000 C 
ATOM     18  O   UNL     1       0.834   9.754  21.055  0.00  0.00    +0.000 OA
ENDBRANCH  11  18
ENDBRANCH   1  15
BRANCH   7  19
ATOM     19  C   UNL     1       6.402   4.958  14.693  0.00  0.00    +0.000 A 
ATOM     20  C   UNL     1       7.538   5.556  14.126  0.00  0.00    +0.000 A 
ATOM     21  C   UNL     1       7.970   5.215  12.845  0.00  0.00    +0.000 A 
ATOM     22  C   UNL     1       7.253   4.291  12.090  0.00  0.00    +0.000 A 
ATOM     23  C   UNL     1       6.094   3.708  12.615  0.00  0.00    +0.000 A 
ATOM     24  C   UNL     1       5.682   4.044  13.917  0.00  0.00    +0.000 A 
BRANCH  23  25
ATOM     25  C   UNL     1       5.256   2.734  11.861  0.00  0.00    +0.000 C 
ATOM     26  N   UNL     1       5.785   1.504  11.560  0.00  0.00    +0.000 N 
ATOM     27  O   UNL     1       4.119   3.005  11.502  0.00  0.00    +0.000 OA
ATOM     28  H   UNL     1       6.711   1.196  11.791  0.00  0.00    +0.000 HD
ATOM     29  H   UNL     1       5.189   0.877  11.039  0.00  0.00    +0.000 HD
ENDBRANCH  23  25
ENDBRANCH   7  19
TORSDOF 4
ENDMDL
MODEL 8
REMARK VINA RESULT:      -7.3      1.642      2.102
REMARK  Name = 
REMARK  5 active torsions:
REMARK  status: ('A' for Active; 'I' for Inactive)
REMARK    1  A    between atoms: C_1  and  O_2
REMARK    2  A    between atoms: O_2  and  C_3
REMARK    3  A    between atoms: C_7  and  N_8
REMARK    4  A    between atoms: N_14  and  C_15
REMARK    5  A    between atoms: C_19  and  C_20
REMARK                            x       y       z     vdW  Elec       q    Type
REMARK                         _______ _______ _______ _____ _____    ______ ____
ROOT
ATOM      1  N   UNL     1      -1.228  11.301  19.993  0.00  0.00    +0.000 N 
ATOM      2  C   UNL     1      -0.335  10.345  20.540  0.00  0.00    +0.000 A 
ATOM      3  C   UNL     1      -0.069  10.395  21.894  0.00  0.00    +0.000 A 
ATOM      4  C   UNL     1       0.844   9.489  22.364  0.00  0.00    +0.000 A 
ATOM      5  N   UNL     1       1.455   8.589  21.584  0.00  0.00    +0.000 NA
ATOM      6  C   UNL     1       1.184   8.628  20.271  0.00  0.00    +0.000 A 
ATOM      7  N   UNL     1       1.883   7.778  19.419  0.00  0.00    +0.000 N 
ATOM      8  N   UNL     1       0.315   9.484  19.726  0.00  0.00    +0.000 NA
ATOM      9  H   UNL     1      -1.810  11.729  20.704  0.00  0.00    +0.000 HD
ATOM     10  H   UNL     1       1.826   8.071  18.455  0.00  0.00    +0.000 HD
ENDROOT
BRANCH   1  15
ATOM     11  C   UNL     1      -4.011  11.451  17.501  0.00  0.00    +0.000 A 
ATOM     12  C   UNL     1      -3.470  10.662  16.484  0.00  0.00    +0.000 A 
ATOM     13  C   UNL     1      -2.188  10.123  16.610  0.00  0.00    +0.000 A 
ATOM     14  C   UNL     1      -1.449  10.348  17.772  0.00  0.00    +0.000 A 
ATOM     15  C   UNL     1      -1.997  11.093  18.821  0.00  0.00    +0.000 A 
ATOM     16  C   UNL     1      -3.255  11.690  18.649  0.00  0.00    +0.000 A 
BRANCH  11  18
ATOM     17  C   UNL     1      -6.328  11.308  18.024  0.00  0.00    +0.000 C 
ATOM     18  O   UNL     1      -5.280  11.907  17.269  0.00  0.00    +0.000 OA
ENDBRANCH  11  18
ENDBRANCH   1  15
BRANCH   7  19
ATOM     19  C   UNL     1       2.399   6.503  19.685  0.00  0.00    +0.000 A 
ATOM     20  C   UNL     1       1.667   5.541  20.400  0.00  0.00    +0.000 A 
ATOM     21  C   UNL     1       2.205   4.286  20.681  0.00  0.00    +0.000 A 
ATOM     22  C   UNL     1       3.503   3.978  20.280  0.00  0.00    +0.000 A 
ATOM     23  C   UNL     1       4.270   4.931  19.600  0.00  0.00    +0.000 A 
ATOM     24  C   UNL     1       3.707   6.185  19.304  0.00  0.00    +0.000 A 
BRANCH  23  25
ATOM     25  C   UNL     1       5.674   4.689  19.163  0.00  0.00    +0.000 C 
ATOM     26  N   UNL     1       5.900   3.834  18.116  0.00  0.00    +0.000 N 
ATOM     27  O   UNL     1       6.621   5.229  19.716  0.00  0.00    +0.000 OA
ATOM     28  H   UNL     1       5.194   3.328  17.613  0.00  0.00    +0.000 HD
ATOM     29  H   UNL     1       6.866   3.688  17.857  0.00  0.00    +0.000 HD
ENDBRANCH  23  25
ENDBRANCH   7  19
TORSDOF 4
ENDMDL
MODEL 9
REMARK VINA RESULT:      -7.3      5.761      9.756
REMARK  Name = 
REMARK  5 active torsions:
REMARK  status: ('A' for Active; 'I' for Inactive)
REMARK    1  A    between atoms: C_1  and  O_2
REMARK    2  A    between atoms: O_2  and  C_3
REMARK    3  A    between atoms: C_7  and  N_8
REMARK    4  A    between atoms: N_14  and  C_15
REMARK    5  A    between atoms: C_19  and  C_20
REMARK                            x       y       z     vdW  Elec       q    Type
REMARK                         _______ _______ _______ _____ _____    ______ ____
ROOT
ATOM      1  N   UNL     1       7.040   4.317  13.717  0.00  0.00    +0.000 N 
ATOM      2  C   UNL     1       6.627   4.689  15.022  0.00  0.00    +0.000 A 
ATOM      3  C   UNL     1       7.218   5.791  15.608  0.00  0.00    +0.000 A 
ATOM      4  C   UNL     1       6.829   6.076  16.890  0.00  0.00    +0.000 A 
ATOM      5  N   UNL     1       5.925   5.352  17.561  0.00  0.00    +0.000 NA
ATOM      6  C   UNL     1       5.426   4.269  16.948  0.00  0.00    +0.000 A 
ATOM      7  N   UNL     1       4.565   3.436  17.658  0.00  0.00    +0.000 N 
ATOM      8  N   UNL     1       5.757   3.912  15.703  0.00  0.00    +0.000 NA
ATOM      9  H   UNL     1       7.507   5.076  13.234  0.00  0.00    +0.000 HD
ATOM     10  H   UNL     1       4.476   2.526  17.230  0.00  0.00    +0.000 HD
ENDROOT
BRANCH   1  15
ATOM     11  C   UNL     1       5.846   1.715  11.313  0.00  0.00    +0.000 A 
ATOM     12  C   UNL     1       4.589   2.232  10.999  0.00  0.00    +0.000 A 
ATOM     13  C   UNL     1       4.132   3.404  11.605  0.00  0.00    +0.000 A 
ATOM     14  C   UNL     1       4.947   4.083  12.511  0.00  0.00    +0.000 A 
ATOM     15  C   UNL     1       6.230   3.605  12.799  0.00  0.00    +0.000 A 
ATOM     16  C   UNL     1       6.645   2.387  12.239  0.00  0.00    +0.000 A 
BRANCH  11  18
ATOM     17  C   UNL     1       6.051  -0.656  11.350  0.00  0.00    +0.000 C 
ATOM     18  O   UNL     1       6.189   0.572  10.643  0.00  0.00    +0.000 OA
ENDBRANCH  11  18
ENDBRANCH   1  15
BRANCH   7  19
ATOM     19  C   UNL     1       3.663   3.773  18.674  0.00  0.00    +0.000 A 
ATOM     20  C   UNL     1       3.021   2.795  19.449  0.00  0.00    +0.000 A 
ATOM     21  C   UNL     1       2.103   3.144  20.439  0.00  0.00    +0.000 A 
ATOM     22  C   UNL     1       1.783   4.483  20.651  0.00  0.00    +0.000 A 
ATOM     23  C   UNL     1       2.379   5.478  19.867  0.00  0.00    +0.000 A 
ATOM     24  C   UNL     1       3.319   5.112  18.887  0.00  0.00    +0.000 A 
BRANCH  23  25
ATOM     25  C   UNL     1       2.068   6.927  20.013  0.00  0.00    +0.000 C 
ATOM     26  N   UNL     1       1.645   7.391  21.232  0.00  0.00    +0.000 N 
ATOM     27  O   UNL     1       2.177   7.706  19.076  0.00  0.00    +0.000 OA
ATOM     28  H   UNL     1       1.505   6.831  22.052  0.00  0.00    +0.000 HD
ATOM     29  H   UNL     1       1.435   8.379  21.287  0.00  0.00    +0.000 HD
ENDBRANCH  23  25
ENDBRANCH   7  19
TORSDOF 4
ENDMDL
