MODEL 1
REMARK VINA RESULT:      -8.1      0.000      0.000
REMARK  Name = 
REMARK  13 active torsions:
REMARK  status: ('A' for Active; 'I' for Inactive)
REMARK    1  A    between atoms: C_1  and  C_2
REMARK    2  A    between atoms: C_4  and  O_5
REMARK    3  A    between atoms: O_5  and  C_6
REMARK    4  A    between atoms: C_6  and  C_7
REMARK    5  A    between atoms: C_7  and  C_8
REMARK    6  A    between atoms: C_8  and  C_9
REMARK    7  A    between atoms: C_8  and  O_10
REMARK    8  A    between atoms: O_10  and  C_11
REMARK    9  A    between atoms: C_17  and  C_18
REMARK   10  A    between atoms: C_26  and  C_27
REMARK   11  A    between atoms: C_27  and  C_28
REMARK   12  A    between atoms: C_28  and  C_29
REMARK   13  A    between atoms: C_29  and  O_31
REMARK                            x       y       z     vdW  Elec       q    Type
REMARK                         _______ _______ _______ _____ _____    ______ ____
ROOT
ATOM      1  C   UNL     1       1.482   9.352  18.395  0.00  0.00    +0.000 C 
ENDROOT
BRANCH   1   2
ATOM      2  C   UNL     1       2.228   8.163  19.045  0.00  0.00    +0.000 C 
ATOM      3  C   UNL     1       1.535   7.770  20.359  0.00  0.00    +0.000 C 
BRANCH   2   4
ATOM      4  O   UNL     1       2.231   7.062  18.102  0.00  0.00    +0.000 OA
BRANCH   4   5
ATOM      5  C   UNL     1       3.423   6.426  17.838  0.00  0.00    +0.000 A 
ATOM      6  C   UNL     1       4.442   7.067  17.133  0.00  0.00    +0.000 A 
ATOM      7  C   UNL     1       5.654   6.459  16.843  0.00  0.00    +0.000 A 
ATOM      8  C   UNL     1       5.901   5.187  17.323  0.00  0.00    +0.000 A 
ATOM      9 CL   UNL     1       7.410   4.440  16.991  0.00  0.00    +0.000 Cl
ATOM     10  C   UNL     1       4.945   4.543  18.092  0.00  0.00    +0.000 A 
ATOM     11  C   UNL     1       3.679   5.130  18.364  0.00  0.00    +0.000 A 
BRANCH  11  12
ATOM     12  C   UNL     1       2.736   4.374  19.204  0.00  0.00    +0.000 A 
ATOM     13  C   UNL     1       1.711   3.588  18.689  0.00  0.00    +0.000 A 
ATOM     14  C   UNL     1       0.894   2.882  19.550  0.00  0.00    +0.000 A 
ATOM     15  C   UNL     1       1.111   2.967  20.922  0.00  0.00    +0.000 A 
ATOM     16  C   UNL     1       2.151   3.761  21.366  0.00  0.00    +0.000 A 
ATOM     17  N   UNL     1       2.957   4.453  20.550  0.00  0.00    +0.000 NA
ENDBRANCH  11  12
ENDBRANCH   4   5
ENDBRANCH   2   4
ENDBRANCH   1   2
BRANCH   1  18
ATOM     18  C   UNL     1       0.310   9.835  19.256  0.00  0.00    +0.000 C 
BRANCH  18  19
ATOM     19  O   UNL     1      -0.222  11.062  18.770  0.00  0.00    +0.000 OA
BRANCH  19  23
ATOM     20  C   UNL     1      -4.351  13.050  20.094  0.00  0.00    +0.000 C 
ATOM     21  C   UNL     1      -3.725  12.028  19.190  0.00  0.00    +0.000 A 
ATOM     22  C   UNL     1      -2.311  11.939  19.281  0.00  0.00    +0.000 A 
ATOM     23  C   UNL     1      -1.573  11.051  18.514  0.00  0.00    +0.000 A 
ATOM     24  C   UNL     1      -2.245  10.249  17.597  0.00  0.00    +0.000 A 
ATOM     25  C   UNL     1      -3.641  10.317  17.489  0.00  0.00    +0.000 A 
ATOM     26  C   UNL     1      -4.413  11.174  18.286  0.00  0.00    +0.000 A 
BRANCH  26  27
ATOM     27  C   UNL     1      -5.930  11.143  18.070  0.00  0.00    +0.000 C 
BRANCH  27  28
ATOM     28  C   UNL     1      -6.682  10.137  18.955  0.00  0.00    +0.000 C 
BRANCH  28  29
ATOM     29  C   UNL     1      -7.349  10.751  20.172  0.00  0.00    +0.000 C 
ATOM     30  O   UNL     1      -7.711  11.900  20.296  0.00  0.00    +0.000 OA
BRANCH  29  31
ATOM     31  O   UNL     1      -7.511   9.808  21.156  0.00  0.00    +0.000 OA
ATOM     32  H   UNL     1      -8.426   9.528  21.285  0.00  0.00    +0.000 HD
ENDBRANCH  29  31
ENDBRANCH  28  29
ENDBRANCH  27  28
ENDBRANCH  26  27
ENDBRANCH  19  23
ENDBRANCH  18  19
ENDBRANCH   1  18
TORSDOF 11
ENDMDL
MODEL 2
REMARK VINA RESULT:      -8.0      2.242      2.961
REMARK  Name = 
REMARK  13 active torsions:
REMARK  status: ('A' for Active; 'I' for Inactive)
REMARK    1  A    between atoms: C_1  and  C_2
REMARK    2  A    between atoms: C_4  and  O_5
REMARK    3  A    between atoms: O_5  and  C_6
REMARK    4  A    between atoms: C_6  and  C_7
REMARK    5  A    between atoms: C_7  and  C_8
REMARK    6  A    between atoms: C_8  and  C_9
REMARK    7  A    between atoms: C_8  and  O_10
REMARK    8  A    between atoms: O_10  and  C_11
REMARK    9  A    between atoms: C_17  and  C_18
REMARK   10  A    between atoms: C_26  and  C_27
REMARK   11  A    between atoms: C_27  and  C_28
REMARK   12  A    between atoms: C_28  and  C_29
REMARK   13  A    between atoms: C_29  and  O_31
REMARK                            x       y       z     vdW  Elec       q    Type
REMARK                         _______ _______ _______ _____ _____    ______ ____
ROOT
ATOM      1  C   UNL     1       1.598   9.330  17.843  0.00  0.00    +0.000 C 
ENDROOT
BRANCH   1   2
ATOM      2  C   UNL     1       2.339   8.276  18.698  0.00  0.00    +0.000 C 
ATOM      3  C   UNL     1       1.589   8.056  20.021  0.00  0.00    +0.000 C 
BRANCH   2   4
ATOM      4  O   UNL     1       2.421   7.048  17.930  0.00  0.00    +0.000 OA
BRANCH   4   5
ATOM      5  C   UNL     1       3.640   6.419  17.824  0.00  0.00    +0.000 A 
ATOM      6  C   UNL     1       4.724   7.047  17.210  0.00  0.00    +0.000 A 
ATOM      7  C   UNL     1       5.967   6.445  17.078  0.00  0.00    +0.000 A 
ATOM      8  C   UNL     1       6.172   5.197  17.633  0.00  0.00    +0.000 A 
ATOM      9 CL   UNL     1       7.716   4.458  17.499  0.00  0.00    +0.000 Cl
ATOM     10  C   UNL     1       5.144   4.570  18.318  0.00  0.00    +0.000 A 
ATOM     11  C   UNL     1       3.851   5.149  18.427  0.00  0.00    +0.000 A 
BRANCH  11  12
ATOM     12  C   UNL     1       2.828   4.413  19.188  0.00  0.00    +0.000 A 
ATOM     13  C   UNL     1       1.896   3.565  18.600  0.00  0.00    +0.000 A 
ATOM     14  C   UNL     1       0.995   2.884  19.396  0.00  0.00    +0.000 A 
ATOM     15  C   UNL     1       1.035   3.057  20.775  0.00  0.00    +0.000 A 
ATOM     16  C   UNL     1       1.991   3.910  21.295  0.00  0.00    +0.000 A 
ATOM     17  N   UNL     1       2.876   4.579  20.544  0.00  0.00    +0.000 NA
ENDBRANCH  11  12
ENDBRANCH   4   5
ENDBRANCH   2   4
ENDBRANCH   1   2
BRANCH   1  18
ATOM     18  C   UNL     1       1.148  10.533  18.679  0.00  0.00    +0.000 C 
BRANCH  18  19
ATOM     19  O   UNL     1      -0.264  10.707  18.623  0.00  0.00    +0.000 OA
BRANCH  19  23
ATOM     20  C   UNL     1      -0.487   9.979  23.331  0.00  0.00    +0.000 C 
ATOM     21  C   UNL     1      -1.005  10.823  22.203  0.00  0.00    +0.000 A 
ATOM     22  C   UNL     1      -0.472  10.503  20.927  0.00  0.00    +0.000 A 
ATOM     23  C   UNL     1      -0.839  11.185  19.777  0.00  0.00    +0.000 A 
ATOM     24  C   UNL     1      -1.732  12.243  19.892  0.00  0.00    +0.000 A 
ATOM     25  C   UNL     1      -2.275  12.578  21.141  0.00  0.00    +0.000 A 
ATOM     26  C   UNL     1      -1.954  11.874  22.309  0.00  0.00    +0.000 A 
BRANCH  26  27
ATOM     27  C   UNL     1      -2.625  12.341  23.606  0.00  0.00    +0.000 C 
BRANCH  27  28
ATOM     28  C   UNL     1      -3.967  13.062  23.409  0.00  0.00    +0.000 C 
BRANCH  28  29
ATOM     29  C   UNL     1      -5.099  12.523  24.262  0.00  0.00    +0.000 C 
ATOM     30  O   UNL     1      -6.235  12.301  23.901  0.00  0.00    +0.000 OA
BRANCH  29  31
ATOM     31  O   UNL     1      -4.667  12.296  25.544  0.00  0.00    +0.000 OA
ATOM     32  H   UNL     1      -5.350  12.418  26.216  0.00  0.00    +0.000 HD
ENDBRANCH  29  31
ENDBRANCH  28  29
ENDBRANCH  27  28
ENDBRANCH  26  27
ENDBRANCH  19  23
ENDBRANCH  18  19
ENDBRANCH   1  18
TORSDOF 11
ENDMDL
MODEL 3
REMARK VINA RESULT:      -7.7      2.940      3.745
REMARK  Name = 
REMARK  13 active torsions:
REMARK  status: ('A' for Active; 'I' for Inactive)
REMARK    1  A    between atoms: C_1  and  C_2
REMARK    2  A    between atoms: C_4  and  O_5
REMARK    3  A    between atoms: O_5  and  C_6
REMARK    4  A    between atoms: C_6  and  C_7
REMARK    5  A    between atoms: C_7  and  C_8
REMARK    6  A    between atoms: C_8  and  C_9
REMARK    7  A    between atoms: C_8  and  O_10
REMARK    8  A    between atoms: O_10  and  C_11
REMARK    9  A    between atoms: C_17  and  C_18
REMARK   10  A    between atoms: C_26  and  C_27
REMARK   11  A    between atoms: C_27  and  C_28
REMARK   12  A    between atoms: C_28  and  C_29
REMARK   13  A    between atoms: C_29  and  O_31
REMARK                            x       y       z     vdW  Elec       q    Type
REMARK                         _______ _______ _______ _____ _____    ______ ____
ROOT
ATOM      1  C   UNL     1       1.695   7.346  19.818  0.00  0.00    +0.000 C 
ENDROOT
BRANCH   1   2
ATOM      2  C   UNL     1       2.341   7.282  18.414  0.00  0.00    +0.000 C 
ATOM      3  C   UNL     1       2.351   8.681  17.780  0.00  0.00    +0.000 C 
BRANCH   2   4
ATOM      4  O   UNL     1       3.687   6.761  18.560  0.00  0.00    +0.000 OA
BRANCH   4   5
ATOM      5  C   UNL     1       4.231   6.046  17.518  0.00  0.00    +0.000 A 
ATOM      6  C   UNL     1       5.127   6.638  16.627  0.00  0.00    +0.000 A 
ATOM      7  C   UNL     1       5.692   5.952  15.561  0.00  0.00    +0.000 A 
ATOM      8  C   UNL     1       5.415   4.608  15.403  0.00  0.00    +0.000 A 
ATOM      9 CL   UNL     1       6.134   3.747  14.103  0.00  0.00    +0.000 Cl
ATOM     10  C   UNL     1       4.590   3.963  16.310  0.00  0.00    +0.000 A 
ATOM     11  C   UNL     1       3.966   4.656  17.383  0.00  0.00    +0.000 A 
BRANCH  11  12
ATOM     12  C   UNL     1       3.118   3.880  18.303  0.00  0.00    +0.000 A 
ATOM     13  C   UNL     1       1.777   3.602  18.061  0.00  0.00    +0.000 A 
ATOM     14  C   UNL     1       1.066   2.834  18.962  0.00  0.00    +0.000 A 
ATOM     15  C   UNL     1       1.704   2.348  20.099  0.00  0.00    +0.000 A 
ATOM     16  C   UNL     1       3.040   2.657  20.275  0.00  0.00    +0.000 A 
ATOM     17  N   UNL     1       3.750   3.397  19.414  0.00  0.00    +0.000 NA
ENDBRANCH  11  12
ENDBRANCH   4   5
ENDBRANCH   2   4
ENDBRANCH   1   2
BRANCH   1  18
ATOM     18  C   UNL     1       1.445   8.789  20.268  0.00  0.00    +0.000 C 
BRANCH  18  19
ATOM     19  O   UNL     1       1.016   8.844  21.624  0.00  0.00    +0.000 OA
BRANCH  19  23
ATOM     20  C   UNL     1      -1.493  12.376  19.630  0.00  0.00    +0.000 C 
ATOM     21  C   UNL     1      -1.225  11.647  20.915  0.00  0.00    +0.000 A 
ATOM     22  C   UNL     1      -0.295  10.579  20.809  0.00  0.00    +0.000 A 
ATOM     23  C   UNL     1       0.064   9.799  21.897  0.00  0.00    +0.000 A 
ATOM     24  C   UNL     1      -0.541  10.051  23.123  0.00  0.00    +0.000 A 
ATOM     25  C   UNL     1      -1.461  11.102  23.253  0.00  0.00    +0.000 A 
ATOM     26  C   UNL     1      -1.805  11.933  22.179  0.00  0.00    +0.000 A 
BRANCH  26  27
ATOM     27  C   UNL     1      -2.820  13.047  22.462  0.00  0.00    +0.000 C 
BRANCH  27  28
ATOM     28  C   UNL     1      -2.334  14.118  23.451  0.00  0.00    +0.000 C 
BRANCH  28  29
ATOM     29  C   UNL     1      -3.307  14.420  24.574  0.00  0.00    +0.000 C 
ATOM     30  O   UNL     1      -3.530  15.505  25.066  0.00  0.00    +0.000 OA
BRANCH  29  31
ATOM     31  O   UNL     1      -3.941  13.273  24.982  0.00  0.00    +0.000 OA
ATOM     32  H   UNL     1      -4.900  13.358  25.052  0.00  0.00    +0.000 HD
ENDBRANCH  29  31
ENDBRANCH  28  29
ENDBRANCH  27  28
ENDBRANCH  26  27
ENDBRANCH  19  23
ENDBRANCH  18  19
ENDBRANCH   1  18
TORSDOF 11
ENDMDL
MODEL 4
REMARK VINA RESULT:      -7.7      3.044      5.891
REMARK  Name = 
REMARK  13 active torsions:
REMARK  status: ('A' for Active; 'I' for Inactive)
REMARK    1  A    between atoms: C_1  and  C_2
REMARK    2  A    between atoms: C_4  and  O_5
REMARK    3  A    between atoms: O_5  and  C_6
REMARK    4  A    between atoms: C_6  and  C_7
REMARK    5  A    between atoms: C_7  and  C_8
REMARK    6  A    between atoms: C_8  and  C_9
REMARK    7  A    between atoms: C_8  and  O_10
REMARK    8  A    between atoms: O_10  and  C_11
REMARK    9  A    between atoms: C_17  and  C_18
REMARK   10  A    between atoms: C_26  and  C_27
REMARK   11  A    between atoms: C_27  and  C_28
REMARK   12  A    between atoms: C_28  and  C_29
REMARK   13  A    between atoms: C_29  and  O_31
REMARK                            x       y       z     vdW  Elec       q    Type
REMARK                         _______ _______ _______ _____ _____    ______ ____
ROOT
ATOM      1  C   UNL     1       2.622   3.826  17.732  0.00  0.00    +0.000 C 
ENDROOT
BRANCH   1   2
ATOM      2  C   UNL     1       3.904   3.061  18.135  0.00  0.00    +0.000 C 
ATOM      3  C   UNL     1       3.637   1.548  18.117  0.00  0.00    +0.000 C 
BRANCH   2   4
ATOM      4  O   UNL     1       4.955   3.420  17.203  0.00  0.00    +0.000 OA
BRANCH   4   5
ATOM      5  C   UNL     1       5.792   4.464  17.526  0.00  0.00    +0.000 A 
ATOM      6  C   UNL     1       5.966   4.865  18.851  0.00  0.00    +0.000 A 
ATOM      7  C   UNL     1       6.794   5.916  19.217  0.00  0.00    +0.000 A 
ATOM      8  C   UNL     1       7.535   6.559  18.244  0.00  0.00    +0.000 A 
ATOM      9 CL   UNL     1       8.584   7.841  18.693  0.00  0.00    +0.000 Cl
ATOM     10  C   UNL     1       7.449   6.143  16.925  0.00  0.00    +0.000 A 
ATOM     11  C   UNL     1       6.574   5.098  16.522  0.00  0.00    +0.000 A 
BRANCH  11  12
ATOM     12  C   UNL     1       6.565   4.717  15.100  0.00  0.00    +0.000 A 
ATOM     13  C   UNL     1       5.570   3.938  14.521  0.00  0.00    +0.000 A 
ATOM     14  C   UNL     1       5.622   3.659  13.169  0.00  0.00    +0.000 A 
ATOM     15  C   UNL     1       6.670   4.164  12.406  0.00  0.00    +0.000 A 
ATOM     16  C   UNL     1       7.622   4.937  13.044  0.00  0.00    +0.000 A 
ATOM     17  N   UNL     1       7.592   5.222  14.353  0.00  0.00    +0.000 NA
ENDBRANCH  11  12
ENDBRANCH   4   5
ENDBRANCH   2   4
ENDBRANCH   1   2
BRANCH   1  18
ATOM     18  C   UNL     1       2.411   5.083  18.583  0.00  0.00    +0.000 C 
BRANCH  18  19
ATOM     19  O   UNL     1       2.886   6.248  17.917  0.00  0.00    +0.000 OA
BRANCH  19  23
ATOM     20  C   UNL     1       1.122   8.450  21.763  0.00  0.00    +0.000 C 
ATOM     21  C   UNL     1       1.378   8.588  20.290  0.00  0.00    +0.000 A 
ATOM     22  C   UNL     1       2.011   7.469  19.688  0.00  0.00    +0.000 A 
ATOM     23  C   UNL     1       2.324   7.430  18.339  0.00  0.00    +0.000 A 
ATOM     24  C   UNL     1       2.039   8.546  17.560  0.00  0.00    +0.000 A 
ATOM     25  C   UNL     1       1.412   9.664  18.130  0.00  0.00    +0.000 A 
ATOM     26  C   UNL     1       1.045   9.708  19.481  0.00  0.00    +0.000 A 
BRANCH  26  27
ATOM     27  C   UNL     1       0.361  10.988  19.973  0.00  0.00    +0.000 C 
BRANCH  27  28
ATOM     28  C   UNL     1      -0.458  11.727  18.903  0.00  0.00    +0.000 C 
BRANCH  28  29
ATOM     29  C   UNL     1      -1.932  11.367  18.883  0.00  0.00    +0.000 C 
ATOM     30  O   UNL     1      -2.831  11.974  19.422  0.00  0.00    +0.000 OA
BRANCH  29  31
ATOM     31  O   UNL     1      -2.138  10.230  18.144  0.00  0.00    +0.000 OA
ATOM     32  H   UNL     1      -1.368   9.947  17.635  0.00  0.00    +0.000 HD
ENDBRANCH  29  31
ENDBRANCH  28  29
ENDBRANCH  27  28
ENDBRANCH  26  27
ENDBRANCH  19  23
ENDBRANCH  18  19
ENDBRANCH   1  18
TORSDOF 11
ENDMDL
MODEL 5
REMARK VINA RESULT:      -7.6      4.046      6.211
REMARK  Name = 
REMARK  13 active torsions:
REMARK  status: ('A' for Active; 'I' for Inactive)
REMARK    1  A    between atoms: C_1  and  C_2
REMARK    2  A    between atoms: C_4  and  O_5
REMARK    3  A    between atoms: O_5  and  C_6
REMARK    4  A    between atoms: C_6  and  C_7
REMARK    5  A    between atoms: C_7  and  C_8
REMARK    6  A    between atoms: C_8  and  C_9
REMARK    7  A    between atoms: C_8  and  O_10
REMARK    8  A    between atoms: O_10  and  C_11
REMARK    9  A    between atoms: C_17  and  C_18
REMARK   10  A    between atoms: C_26  and  C_27
REMARK   11  A    between atoms: C_27  and  C_28
REMARK   12  A    between atoms: C_28  and  C_29
REMARK   13  A    between atoms: C_29  and  O_31
REMARK                            x       y       z     vdW  Elec       q    Type
REMARK                         _______ _______ _______ _____ _____    ______ ____
ROOT
ATOM      1  C   UNL     1       2.896   4.503  17.596  0.00  0.00    +0.000 C 
ENDROOT
BRANCH   1   2
ATOM      2  C   UNL     1       3.765   3.258  17.890  0.00  0.00    +0.000 C 
ATOM      3  C   UNL     1       3.025   1.988  17.443  0.00  0.00    +0.000 C 
BRANCH   2   4
ATOM      4  O   UNL     1       5.023   3.409  17.184  0.00  0.00    +0.000 OA
BRANCH   4   5
ATOM      5  C   UNL     1       5.829   4.479  17.501  0.00  0.00    +0.000 A 
ATOM      6  C   UNL     1       6.000   4.885  18.825  0.00  0.00    +0.000 A 
ATOM      7  C   UNL     1       6.799   5.961  19.185  0.00  0.00    +0.000 A 
ATOM      8  C   UNL     1       7.513   6.626  18.206  0.00  0.00    +0.000 A 
ATOM      9 CL   UNL     1       8.526   7.940  18.648  0.00  0.00    +0.000 Cl
ATOM     10  C   UNL     1       7.430   6.207  16.888  0.00  0.00    +0.000 A 
ATOM     11  C   UNL     1       6.585   5.135  16.492  0.00  0.00    +0.000 A 
BRANCH  11  12
ATOM     12  C   UNL     1       6.577   4.754  15.070  0.00  0.00    +0.000 A 
ATOM     13  C   UNL     1       5.605   3.939  14.499  0.00  0.00    +0.000 A 
ATOM     14  C   UNL     1       5.656   3.662  13.147  0.00  0.00    +0.000 A 
ATOM     15  C   UNL     1       6.678   4.204  12.376  0.00  0.00    +0.000 A 
ATOM     16  C   UNL     1       7.609   5.011  13.005  0.00  0.00    +0.000 A 
ATOM     17  N   UNL     1       7.579   5.295  14.314  0.00  0.00    +0.000 NA
ENDBRANCH  11  12
ENDBRANCH   4   5
ENDBRANCH   2   4
ENDBRANCH   1   2
BRANCH   1  18
ATOM     18  C   UNL     1       2.186   5.017  18.852  0.00  0.00    +0.000 C 
BRANCH  18  19
ATOM     19  O   UNL     1       2.882   6.115  19.432  0.00  0.00    +0.000 OA
BRANCH  19  23
ATOM     20  C   UNL     1       0.335   9.564  21.522  0.00  0.00    +0.000 C 
ATOM     21  C   UNL     1       0.979   9.134  20.236  0.00  0.00    +0.000 A 
ATOM     22  C   UNL     1       1.664   7.892  20.300  0.00  0.00    +0.000 A 
ATOM     23  C   UNL     1       2.318   7.349  19.205  0.00  0.00    +0.000 A 
ATOM     24  C   UNL     1       2.332   8.070  18.016  0.00  0.00    +0.000 A 
ATOM     25  C   UNL     1       1.661   9.298  17.927  0.00  0.00    +0.000 A 
ATOM     26  C   UNL     1       0.956   9.846  19.006  0.00  0.00    +0.000 A 
BRANCH  26  27
ATOM     27  C   UNL     1       0.262  11.192  18.770  0.00  0.00    +0.000 C 
BRANCH  27  28
ATOM     28  C   UNL     1       1.118  12.421  19.115  0.00  0.00    +0.000 C 
BRANCH  28  29
ATOM     29  C   UNL     1       0.810  13.040  20.466  0.00  0.00    +0.000 C 
ATOM     30  O   UNL     1       1.520  13.022  21.447  0.00  0.00    +0.000 OA
BRANCH  29  31
ATOM     31  O   UNL     1      -0.416  13.655  20.443  0.00  0.00    +0.000 OA
ATOM     32  H   UNL     1      -1.054  13.283  21.064  0.00  0.00    +0.000 HD
ENDBRANCH  29  31
ENDBRANCH  28  29
ENDBRANCH  27  28
ENDBRANCH  26  27
ENDBRANCH  19  23
ENDBRANCH  18  19
ENDBRANCH   1  18
TORSDOF 11
ENDMDL
MODEL 6
REMARK VINA RESULT:      -7.6      3.026      3.621
REMARK  Name = 
REMARK  13 active torsions:
REMARK  status: ('A' for Active; 'I' for Inactive)
REMARK    1  A    between atoms: C_1  and  C_2
REMARK    2  A    between atoms: C_4  and  O_5
REMARK    3  A    between atoms: O_5  and  C_6
REMARK    4  A    between atoms: C_6  and  C_7
REMARK    5  A    between atoms: C_7  and  C_8
REMARK    6  A    between atoms: C_8  and  C_9
REMARK    7  A    between atoms: C_8  and  O_10
REMARK    8  A    between atoms: O_10  and  C_11
REMARK    9  A    between atoms: C_17  and  C_18
REMARK   10  A    between atoms: C_26  and  C_27
REMARK   11  A    between atoms: C_27  and  C_28
REMARK   12  A    between atoms: C_28  and  C_29
REMARK   13  A    between atoms: C_29  and  O_31
REMARK                            x       y       z     vdW  Elec       q    Type
REMARK                         _______ _______ _______ _____ _____    ______ ____
ROOT
ATOM      1  C   UNL     1       1.965   7.319  19.926  0.00  0.00    +0.000 C 
ENDROOT
BRANCH   1   2
ATOM      2  C   UNL     1       2.470   7.180  18.471  0.00  0.00    +0.000 C 
ATOM      3  C   UNL     1       2.337   8.526  17.742  0.00  0.00    +0.000 C 
BRANCH   2   4
ATOM      4  O   UNL     1       3.851   6.739  18.513  0.00  0.00    +0.000 OA
BRANCH   4   5
ATOM      5  C   UNL     1       4.345   6.025  17.444  0.00  0.00    +0.000 A 
ATOM      6  C   UNL     1       5.203   6.617  16.517  0.00  0.00    +0.000 A 
ATOM      7  C   UNL     1       5.718   5.934  15.425  0.00  0.00    +0.000 A 
ATOM      8  C   UNL     1       5.428   4.592  15.273  0.00  0.00    +0.000 A 
ATOM      9 CL   UNL     1       6.084   3.733  13.939  0.00  0.00    +0.000 Cl
ATOM     10  C   UNL     1       4.641   3.946  16.214  0.00  0.00    +0.000 A 
ATOM     11  C   UNL     1       4.068   4.637  17.316  0.00  0.00    +0.000 A 
BRANCH  11  12
ATOM     12  C   UNL     1       3.259   3.861  18.269  0.00  0.00    +0.000 A 
ATOM     13  C   UNL     1       3.735   3.421  19.500  0.00  0.00    +0.000 A 
ATOM     14  C   UNL     1       2.894   2.729  20.349  0.00  0.00    +0.000 A 
ATOM     15  C   UNL     1       1.581   2.485  19.961  0.00  0.00    +0.000 A 
ATOM     16  C   UNL     1       1.170   2.955  18.727  0.00  0.00    +0.000 A 
ATOM     17  N   UNL     1       1.967   3.630  17.888  0.00  0.00    +0.000 NA
ENDBRANCH  11  12
ENDBRANCH   4   5
ENDBRANCH   2   4
ENDBRANCH   1   2
BRANCH   1  18
ATOM     18  C   UNL     1       1.328   8.688  20.184  0.00  0.00    +0.000 C 
BRANCH  18  19
ATOM     19  O   UNL     1       1.361   9.026  21.566  0.00  0.00    +0.000 OA
BRANCH  19  23
ATOM     20  C   UNL     1       0.107  13.563  20.798  0.00  0.00    +0.000 C 
ATOM     21  C   UNL     1      -0.195  12.336  21.609  0.00  0.00    +0.000 A 
ATOM     22  C   UNL     1       0.610  11.208  21.302  0.00  0.00    +0.000 A 
ATOM     23  C   UNL     1       0.462   9.993  21.952  0.00  0.00    +0.000 A 
ATOM     24  C   UNL     1      -0.538   9.870  22.910  0.00  0.00    +0.000 A 
ATOM     25  C   UNL     1      -1.346  10.971  23.232  0.00  0.00    +0.000 A 
ATOM     26  C   UNL     1      -1.185  12.221  22.622  0.00  0.00    +0.000 A 
BRANCH  26  27
ATOM     27  C   UNL     1      -2.131  13.340  23.072  0.00  0.00    +0.000 C 
BRANCH  27  28
ATOM     28  C   UNL     1      -3.485  13.364  22.346  0.00  0.00    +0.000 C 
BRANCH  28  29
ATOM     29  C   UNL     1      -4.673  13.022  23.225  0.00  0.00    +0.000 C 
ATOM     30  O   UNL     1      -5.561  12.240  22.969  0.00  0.00    +0.000 OA
BRANCH  29  31
ATOM     31  O   UNL     1      -4.618  13.728  24.401  0.00  0.00    +0.000 OA
ATOM     32  H   UNL     1      -4.816  13.201  25.186  0.00  0.00    +0.000 HD
ENDBRANCH  29  31
ENDBRANCH  28  29
ENDBRANCH  27  28
ENDBRANCH  26  27
ENDBRANCH  19  23
ENDBRANCH  18  19
ENDBRANCH   1  18
TORSDOF 11
ENDMDL
MODEL 7
REMARK VINA RESULT:      -7.5      4.053      6.322
REMARK  Name = 
REMARK  13 active torsions:
REMARK  status: ('A' for Active; 'I' for Inactive)
REMARK    1  A    between atoms: C_1  and  C_2
REMARK    2  A    between atoms: C_4  and  O_5
REMARK    3  A    between atoms: O_5  and  C_6
REMARK    4  A    between atoms: C_6  and  C_7
REMARK    5  A    between atoms: C_7  and  C_8
REMARK    6  A    between atoms: C_8  and  C_9
REMARK    7  A    between atoms: C_8  and  O_10
REMARK    8  A    between atoms: O_10  and  C_11
REMARK    9  A    between atoms: C_17  and  C_18
REMARK   10  A    between atoms: C_26  and  C_27
REMARK   11  A    between atoms: C_27  and  C_28
REMARK   12  A    between atoms: C_28  and  C_29
REMARK   13  A    between atoms: C_29  and  O_31
REMARK                            x       y       z     vdW  Elec       q    Type
REMARK                         _______ _______ _______ _____ _____    ______ ____
ROOT
ATOM      1  C   UNL     1       2.603   3.469  17.109  0.00  0.00    +0.000 C 
ENDROOT
BRANCH   1   2
ATOM      2  C   UNL     1       3.859   2.938  17.839  0.00  0.00    +0.000 C 
ATOM      3  C   UNL     1       3.709   1.433  18.105  0.00  0.00    +0.000 C 
BRANCH   2   4
ATOM      4  O   UNL     1       5.014   3.213  17.006  0.00  0.00    +0.000 OA
BRANCH   4   5
ATOM      5  C   UNL     1       5.764   4.336  17.274  0.00  0.00    +0.000 A 
ATOM      6  C   UNL     1       5.981   4.762  18.585  0.00  0.00    +0.000 A 
ATOM      7  C   UNL     1       6.725   5.891  18.895  0.00  0.00    +0.000 A 
ATOM      8  C   UNL     1       7.339   6.594  17.877  0.00  0.00    +0.000 A 
ATOM      9 CL   UNL     1       8.285   7.975  18.257  0.00  0.00    +0.000 Cl
ATOM     10  C   UNL     1       7.211   6.161  16.566  0.00  0.00    +0.000 A 
ATOM     11  C   UNL     1       6.418   5.033  16.222  0.00  0.00    +0.000 A 
BRANCH  11  12
ATOM     12  C   UNL     1       6.357   4.641  14.804  0.00  0.00    +0.000 A 
ATOM     13  C   UNL     1       7.420   4.794  13.920  0.00  0.00    +0.000 A 
ATOM     14  C   UNL     1       7.287   4.364  12.614  0.00  0.00    +0.000 A 
ATOM     15  C   UNL     1       6.092   3.783  12.203  0.00  0.00    +0.000 A 
ATOM     16  C   UNL     1       5.079   3.656  13.135  0.00  0.00    +0.000 A 
ATOM     17  N   UNL     1       5.185   4.063  14.406  0.00  0.00    +0.000 NA
ENDBRANCH  11  12
ENDBRANCH   4   5
ENDBRANCH   2   4
ENDBRANCH   1   2
BRANCH   1  18
ATOM     18  C   UNL     1       1.907   4.582  17.900  0.00  0.00    +0.000 C 
BRANCH  18  19
ATOM     19  O   UNL     1       2.849   5.483  18.471  0.00  0.00    +0.000 OA
BRANCH  19  23
ATOM     20  C   UNL     1       1.795  10.093  17.844  0.00  0.00    +0.000 C 
ATOM     21  C   UNL     1       1.773   8.961  18.830  0.00  0.00    +0.000 A 
ATOM     22  C   UNL     1       2.256   7.724  18.328  0.00  0.00    +0.000 A 
ATOM     23  C   UNL     1       2.302   6.576  19.102  0.00  0.00    +0.000 A 
ATOM     24  C   UNL     1       1.820   6.635  20.405  0.00  0.00    +0.000 A 
ATOM     25  C   UNL     1       1.338   7.845  20.925  0.00  0.00    +0.000 A 
ATOM     26  C   UNL     1       1.324   9.029  20.177  0.00  0.00    +0.000 A 
BRANCH  26  27
ATOM     27  C   UNL     1       0.777  10.282  20.870  0.00  0.00    +0.000 C 
BRANCH  27  28
ATOM     28  C   UNL     1      -0.583  10.090  21.558  0.00  0.00    +0.000 C 
BRANCH  28  29
ATOM     29  C   UNL     1      -0.622  10.540  23.006  0.00  0.00    +0.000 C 
ATOM     30  O   UNL     1      -1.167  11.531  23.440  0.00  0.00    +0.000 OA
BRANCH  29  31
ATOM     31  O   UNL     1       0.053   9.650  23.803  0.00  0.00    +0.000 OA
ATOM     32  H   UNL     1      -0.477   8.893  24.083  0.00  0.00    +0.000 HD
ENDBRANCH  29  31
ENDBRANCH  28  29
ENDBRANCH  27  28
ENDBRANCH  26  27
ENDBRANCH  19  23
ENDBRANCH  18  19
ENDBRANCH   1  18
TORSDOF 11
ENDMDL
MODEL 8
REMARK VINA RESULT:      -7.5      3.121      3.608
REMARK  Name = 
REMARK  13 active torsions:
REMARK  status: ('A' for Active; 'I' for Inactive)
REMARK    1  A    between atoms: C_1  and  C_2
REMARK    2  A    between atoms: C_4  and  O_5
REMARK    3  A    between atoms: O_5  and  C_6
REMARK    4  A    between atoms: C_6  and  C_7
REMARK    5  A    between atoms: C_7  and  C_8
REMARK    6  A    between atoms: C_8  and  C_9
REMARK    7  A    between atoms: C_8  and  O_10
REMARK    8  A    between atoms: O_10  and  C_11
REMARK    9  A    between atoms: C_17  and  C_18
REMARK   10  A    between atoms: C_26  and  C_27
REMARK   11  A    between atoms: C_27  and  C_28
REMARK   12  A    between atoms: C_28  and  C_29
REMARK   13  A    between atoms: C_29  and  O_31
REMARK                            x       y       z     vdW  Elec       q    Type
REMARK                         _______ _______ _______ _____ _____    ______ ____
ROOT
ATOM      1  C   UNL     1       2.022   7.208  19.912  0.00  0.00    +0.000 C 
ENDROOT
BRANCH   1   2
ATOM      2  C   UNL     1       2.548   7.155  18.459  0.00  0.00    +0.000 C 
ATOM      3  C   UNL     1       2.450   8.548  17.817  0.00  0.00    +0.000 C 
BRANCH   2   4
ATOM      4  O   UNL     1       3.921   6.689  18.494  0.00  0.00    +0.000 OA
BRANCH   4   5
ATOM      5  C   UNL     1       4.401   5.978  17.417  0.00  0.00    +0.000 A 
ATOM      6  C   UNL     1       5.299   6.552  16.516  0.00  0.00    +0.000 A 
ATOM      7  C   UNL     1       5.800   5.871  15.417  0.00  0.00    +0.000 A 
ATOM      8  C   UNL     1       5.455   4.546  15.231  0.00  0.00    +0.000 A 
ATOM      9 CL   UNL     1       6.095   3.689  13.888  0.00  0.00    +0.000 Cl
ATOM     10  C   UNL     1       4.626   3.915  16.144  0.00  0.00    +0.000 A 
ATOM     11  C   UNL     1       4.066   4.606  17.253  0.00  0.00    +0.000 A 
BRANCH  11  12
ATOM     12  C   UNL     1       3.209   3.845  18.177  0.00  0.00    +0.000 A 
ATOM     13  C   UNL     1       1.871   3.561  17.923  0.00  0.00    +0.000 A 
ATOM     14  C   UNL     1       1.151   2.808  18.830  0.00  0.00    +0.000 A 
ATOM     15  C   UNL     1       1.775   2.344  19.983  0.00  0.00    +0.000 A 
ATOM     16  C   UNL     1       3.109   2.658  20.170  0.00  0.00    +0.000 A 
ATOM     17  N   UNL     1       3.828   3.384  19.305  0.00  0.00    +0.000 NA
ENDBRANCH  11  12
ENDBRANCH   4   5
ENDBRANCH   2   4
ENDBRANCH   1   2
BRANCH   1  18
ATOM     18  C   UNL     1       1.472   8.592  20.273  0.00  0.00    +0.000 C 
BRANCH  18  19
ATOM     19  O   UNL     1       1.076   8.655  21.639  0.00  0.00    +0.000 OA
BRANCH  19  23
ATOM     20  C   UNL     1      -0.176  13.043  20.251  0.00  0.00    +0.000 C 
ATOM     21  C   UNL     1      -0.393  11.987  21.296  0.00  0.00    +0.000 A 
ATOM     22  C   UNL     1       0.341  10.790  21.093  0.00  0.00    +0.000 A 
ATOM     23  C   UNL     1       0.256   9.712  21.960  0.00  0.00    +0.000 A 
ATOM     24  C   UNL     1      -0.611   9.799  23.043  0.00  0.00    +0.000 A 
ATOM     25  C   UNL     1      -1.346  10.972  23.267  0.00  0.00    +0.000 A 
ATOM     26  C   UNL     1      -1.242  12.091  22.430  0.00  0.00    +0.000 A 
BRANCH  26  27
ATOM     27  C   UNL     1      -2.097  13.310  22.794  0.00  0.00    +0.000 C 
BRANCH  27  28
ATOM     28  C   UNL     1      -3.542  13.256  22.274  0.00  0.00    +0.000 C 
BRANCH  28  29
ATOM     29  C   UNL     1      -3.994  14.508  21.546  0.00  0.00    +0.000 C 
ATOM     30  O   UNL     1      -4.784  15.332  21.949  0.00  0.00    +0.000 OA
BRANCH  29  31
ATOM     31  O   UNL     1      -3.369  14.605  20.329  0.00  0.00    +0.000 OA
ATOM     32  H   UNL     1      -3.226  13.757  19.891  0.00  0.00    +0.000 HD
ENDBRANCH  29  31
ENDBRANCH  28  29
ENDBRANCH  27  28
ENDBRANCH  26  27
ENDBRANCH  19  23
ENDBRANCH  18  19
ENDBRANCH   1  18
TORSDOF 11
ENDMDL
MODEL 9
REMARK VINA RESULT:      -7.5      4.130     10.301
REMARK  Name = 
REMARK  13 active torsions:
REMARK  status: ('A' for Active; 'I' for Inactive)
REMARK    1  A    between atoms: C_1  and  C_2
REMARK    2  A    between atoms: C_4  and  O_5
REMARK    3  A    between atoms: O_5  and  C_6
REMARK    4  A    between atoms: C_6  and  C_7
REMARK    5  A    between atoms: C_7  and  C_8
REMARK    6  A    between atoms: C_8  and  C_9
REMARK    7  A    between atoms: C_8  and  O_10
REMARK    8  A    between atoms: O_10  and  C_11
REMARK    9  A    between atoms: C_17  and  C_18
REMARK   10  A    between atoms: C_26  and  C_27
REMARK   11  A    between atoms: C_27  and  C_28
REMARK   12  A    between atoms: C_28  and  C_29
REMARK   13  A    between atoms: C_29  and  O_31
REMARK                            x       y       z     vdW  Elec       q    Type
REMARK                         _______ _______ _______ _____ _____    ______ ____
ROOT
ATOM      1  C   UNL     1       1.486   8.115  21.098  0.00  0.00    +0.000 C 
ENDROOT
BRANCH   1   2
ATOM      2  C   UNL     1       0.253   9.026  21.307  0.00  0.00    +0.000 C 
ATOM      3  C   UNL     1       0.119   9.387  22.794  0.00  0.00    +0.000 C 
BRANCH   2   4
ATOM      4  O   UNL     1       0.426  10.212  20.491  0.00  0.00    +0.000 OA
BRANCH   4   5
ATOM      5  C   UNL     1      -0.572  10.551  19.605  0.00  0.00    +0.000 A 
ATOM      6  C   UNL     1      -0.782   9.813  18.440  0.00  0.00    +0.000 A 
ATOM      7  C   UNL     1      -1.773  10.125  17.520  0.00  0.00    +0.000 A 
ATOM      8  C   UNL     1      -2.636  11.170  17.789  0.00  0.00    +0.000 A 
ATOM      9 CL   UNL     1      -3.882  11.543  16.668  0.00  0.00    +0.000 Cl
ATOM     10  C   UNL     1      -2.510  11.881  18.972  0.00  0.00    +0.000 A 
ATOM     11  C   UNL     1      -1.476  11.606  19.907  0.00  0.00    +0.000 A 
BRANCH  11  12
ATOM     12  C   UNL     1      -1.433  12.406  21.141  0.00  0.00    +0.000 A 
ATOM     13  C   UNL     1      -2.287  12.200  22.220  0.00  0.00    +0.000 A 
ATOM     14  C   UNL     1      -2.153  12.975  23.355  0.00  0.00    +0.000 A 
ATOM     15  C   UNL     1      -1.163  13.951  23.403  0.00  0.00    +0.000 A 
ATOM     16  C   UNL     1      -0.344  14.100  22.299  0.00  0.00    +0.000 A 
ATOM     17  N   UNL     1      -0.454  13.359  21.188  0.00  0.00    +0.000 NA
ENDBRANCH  11  12
ENDBRANCH   4   5
ENDBRANCH   2   4
ENDBRANCH   1   2
BRANCH   1  18
ATOM     18  C   UNL     1       1.094   6.727  20.581  0.00  0.00    +0.000 C 
BRANCH  18  19
ATOM     19  O   UNL     1       2.162   5.797  20.722  0.00  0.00    +0.000 OA
BRANCH  19  23
ATOM     20  C   UNL     1       3.436   2.090  18.005  0.00  0.00    +0.000 C 
ATOM     21  C   UNL     1       3.510   3.584  18.141  0.00  0.00    +0.000 A 
ATOM     22  C   UNL     1       2.842   4.111  19.277  0.00  0.00    +0.000 A 
ATOM     23  C   UNL     1       2.808   5.469  19.553  0.00  0.00    +0.000 A 
ATOM     24  C   UNL     1       3.418   6.342  18.661  0.00  0.00    +0.000 A 
ATOM     25  C   UNL     1       4.087   5.846  17.532  0.00  0.00    +0.000 A 
ATOM     26  C   UNL     1       4.174   4.475  17.257  0.00  0.00    +0.000 A 
BRANCH  26  27
ATOM     27  C   UNL     1       4.940   4.069  15.992  0.00  0.00    +0.000 C 
BRANCH  27  28
ATOM     28  C   UNL     1       5.648   5.228  15.274  0.00  0.00    +0.000 C 
BRANCH  28  29
ATOM     29  C   UNL     1       7.149   5.056  15.138  0.00  0.00    +0.000 C 
ATOM     30  O   UNL     1       7.837   5.419  14.210  0.00  0.00    +0.000 OA
BRANCH  29  31
ATOM     31  O   UNL     1       7.661   4.423  16.242  0.00  0.00    +0.000 OA
ATOM     32  H   UNL     1       7.687   4.973  17.035  0.00  0.00    +0.000 HD
ENDBRANCH  29  31
ENDBRANCH  28  29
ENDBRANCH  27  28
ENDBRANCH  26  27
ENDBRANCH  19  23
ENDBRANCH  18  19
ENDBRANCH   1  18
TORSDOF 11
ENDMDL
