MODEL 1
REMARK VINA RESULT:      -8.0      0.000      0.000
REMARK  Name = 
REMARK  10 active torsions:
REMARK  status: ('A' for Active; 'I' for Inactive)
REMARK    1  A    between atoms: C_1  and  C_2
REMARK    2  A    between atoms: C_2  and  C_3
REMARK    3  A    between atoms: C_3  and  C_4
REMARK    4  A    between atoms: C_4  and  C_5
REMARK    5  A    between atoms: C_5  and  S_6
REMARK    6  A    between atoms: S_6  and  C_7
REMARK    7  A    between atoms: N_10  and  C_11
REMARK    8  A    between atoms: C_11  and  C_12
REMARK    9  A    between atoms: C_15  and  SE_16
REMARK   10  A    between atoms: SE_16  and  C_17
REMARK                            x       y       z     vdW  Elec       q    Type
REMARK                         _______ _______ _______ _____ _____    ______ ____
ROOT
ATOM      1  C   UNL     1       4.160   6.008  17.611  0.00  0.00    +0.000 A 
ATOM      2  N   UNL     1       3.340   6.923  18.183  0.00  0.00    +0.000 NA
ATOM      3  C   UNL     1       2.599   6.659  19.296  0.00  0.00    +0.000 A 
ATOM      4  N   UNL     1       1.848   7.759  19.830  0.00  0.00    +0.000 N 
ATOM      5  C   UNL     1       2.644   5.332  19.839  0.00  0.00    +0.000 A 
ATOM      6  C   UNL     1       1.847   4.857  20.912  0.00  0.00    +0.000 A 
ATOM      7  C   UNL     1       1.985   3.551  21.389  0.00  0.00    +0.000 A 
ATOM      8  C   UNL     1       2.895   2.678  20.801  0.00  0.00    +0.000 A 
ATOM      9  C   UNL     1       3.656   3.098  19.713  0.00  0.00    +0.000 A 
ATOM     10  C   UNL     1       3.532   4.405  19.225  0.00  0.00    +0.000 A 
ATOM     11  N   UNL     1       4.264   4.770  18.142  0.00  0.00    +0.000 NA
ATOM     12  H   UNL     1       1.662   8.547  19.188  0.00  0.00    +0.000 HD
ENDROOT
BRANCH   1  13
ATOM     13  S   UNL     1       5.083   6.416  16.129  0.00  0.00    +0.000 S 
BRANCH  13  14
ATOM     14  C   UNL     1       6.525   5.373  16.532  0.00  0.00    +0.000 C 
BRANCH  14  15
ATOM     15  C   UNL     1       6.926   4.572  15.290  0.00  0.00    +0.000 C 
BRANCH  15  16
ATOM     16  C   UNL     1       5.729   4.327  14.361  0.00  0.00    +0.000 C 
BRANCH  16  18
ATOM     17  C   UNL     1       5.015   3.444  12.099  0.00  0.00    +0.000 C 
ATOM     18  C   UNL     1       6.176   3.617  13.075  0.00  0.00    +0.000 C 
ENDBRANCH  16  18
ENDBRANCH  15  16
ENDBRANCH  14  15
ENDBRANCH  13  14
ENDBRANCH   1  13
BRANCH   4  19
ATOM     19  C   UNL     1       1.502   7.972  21.228  0.00  0.00    +0.000 C 
BRANCH  19  20
ATOM     20  C   UNL     1       0.608   9.179  21.407  0.00  0.00    +0.000 A 
ATOM     21  C   UNL     1       0.242   9.982  20.312  0.00  0.00    +0.000 A 
ATOM     22  C   UNL     1      -0.596  11.088  20.498  0.00  0.00    +0.000 A 
ATOM     23  C   UNL     1      -1.077  11.408  21.775  0.00  0.00    +0.000 A 
ATOM     24  C   UNL     1      -0.723  10.610  22.866  0.00  0.00    +0.000 A 
ATOM     25  C   UNL     1       0.110   9.501  22.685  0.00  0.00    +0.000 A 
BRANCH  23  26
ATOM     26 SE   UNL     1      -2.179  12.975  22.019  0.00  0.00    +0.000 Se
ATOM     27  C   UNL     1      -3.173  12.269  23.541  0.00  0.00    +0.000 C 
ENDBRANCH  23  26
ENDBRANCH  19  20
ENDBRANCH   4  19
TORSDOF 8
ENDMDL
MODEL 2
REMARK VINA RESULT:      -7.8      1.536      2.160
REMARK  Name = 
REMARK  10 active torsions:
REMARK  status: ('A' for Active; 'I' for Inactive)
REMARK    1  A    between atoms: C_1  and  C_2
REMARK    2  A    between atoms: C_2  and  C_3
REMARK    3  A    between atoms: C_3  and  C_4
REMARK    4  A    between atoms: C_4  and  C_5
REMARK    5  A    between atoms: C_5  and  S_6
REMARK    6  A    between atoms: S_6  and  C_7
REMARK    7  A    between atoms: N_10  and  C_11
REMARK    8  A    between atoms: C_11  and  C_12
REMARK    9  A    between atoms: C_15  and  SE_16
REMARK   10  A    between atoms: SE_16  and  C_17
REMARK                            x       y       z     vdW  Elec       q    Type
REMARK                         _______ _______ _______ _____ _____    ______ ____
ROOT
ATOM      1  C   UNL     1       4.752   5.014  16.581  0.00  0.00    +0.000 A 
ATOM      2  N   UNL     1       4.190   6.058  17.237  0.00  0.00    +0.000 NA
ATOM      3  C   UNL     1       3.167   5.909  18.126  0.00  0.00    +0.000 A 
ATOM      4  N   UNL     1       2.739   7.101  18.800  0.00  0.00    +0.000 N 
ATOM      5  C   UNL     1       2.625   4.595  18.319  0.00  0.00    +0.000 A 
ATOM      6  C   UNL     1       1.488   4.284  19.108  0.00  0.00    +0.000 A 
ATOM      7  C   UNL     1       1.053   2.965  19.257  0.00  0.00    +0.000 A 
ATOM      8  C   UNL     1       1.716   1.927  18.611  0.00  0.00    +0.000 A 
ATOM      9  C   UNL     1       2.805   2.205  17.788  0.00  0.00    +0.000 A 
ATOM     10  C   UNL     1       3.255   3.522  17.630  0.00  0.00    +0.000 A 
ATOM     11  N   UNL     1       4.297   3.759  16.795  0.00  0.00    +0.000 NA
ATOM     12  H   UNL     1       2.990   7.999  18.357  0.00  0.00    +0.000 HD
ENDROOT
BRANCH   1  13
ATOM     13  S   UNL     1       6.076   5.287  15.402  0.00  0.00    +0.000 S 
BRANCH  13  14
ATOM     14  C   UNL     1       5.828   3.720  14.500  0.00  0.00    +0.000 C 
BRANCH  14  15
ATOM     15  C   UNL     1       6.348   3.880  13.068  0.00  0.00    +0.000 C 
BRANCH  15  16
ATOM     16  C   UNL     1       5.371   3.293  12.040  0.00  0.00    +0.000 C 
BRANCH  16  18
ATOM     17  C   UNL     1       7.269   1.919  11.083  0.00  0.00    +0.000 C 
ATOM     18  C   UNL     1       5.829   1.898  11.591  0.00  0.00    +0.000 C 
ENDBRANCH  16  18
ENDBRANCH  15  16
ENDBRANCH  14  15
ENDBRANCH  13  14
ENDBRANCH   1  13
BRANCH   4  19
ATOM     19  C   UNL     1       2.175   7.181  20.140  0.00  0.00    +0.000 C 
BRANCH  19  20
ATOM     20  C   UNL     1       1.364   8.443  20.334  0.00  0.00    +0.000 A 
ATOM     21  C   UNL     1       0.799   8.759  21.582  0.00  0.00    +0.000 A 
ATOM     22  C   UNL     1       0.061   9.939  21.743  0.00  0.00    +0.000 A 
ATOM     23  C   UNL     1      -0.122  10.814  20.664  0.00  0.00    +0.000 A 
ATOM     24  C   UNL     1       0.442  10.509  19.423  0.00  0.00    +0.000 A 
ATOM     25  C   UNL     1       1.184   9.335  19.258  0.00  0.00    +0.000 A 
BRANCH  23  26
ATOM     26 SE   UNL     1      -1.197  12.403  20.890  0.00  0.00    +0.000 Se
ATOM     27  C   UNL     1      -1.749  11.997  22.716  0.00  0.00    +0.000 C 
ENDBRANCH  23  26
ENDBRANCH  19  20
ENDBRANCH   4  19
TORSDOF 8
ENDMDL
MODEL 3
REMARK VINA RESULT:      -7.8      1.340      1.773
REMARK  Name = 
REMARK  10 active torsions:
REMARK  status: ('A' for Active; 'I' for Inactive)
REMARK    1  A    between atoms: C_1  and  C_2
REMARK    2  A    between atoms: C_2  and  C_3
REMARK    3  A    between atoms: C_3  and  C_4
REMARK    4  A    between atoms: C_4  and  C_5
REMARK    5  A    between atoms: C_5  and  S_6
REMARK    6  A    between atoms: S_6  and  C_7
REMARK    7  A    between atoms: N_10  and  C_11
REMARK    8  A    between atoms: C_11  and  C_12
REMARK    9  A    between atoms: C_15  and  SE_16
REMARK   10  A    between atoms: SE_16  and  C_17
REMARK                            x       y       z     vdW  Elec       q    Type
REMARK                         _______ _______ _______ _____ _____    ______ ____
ROOT
ATOM      1  C   UNL     1       4.779   5.181  17.556  0.00  0.00    +0.000 A 
ATOM      2  N   UNL     1       4.092   6.208  18.114  0.00  0.00    +0.000 NA
ATOM      3  C   UNL     1       2.970   6.025  18.865  0.00  0.00    +0.000 A 
ATOM      4  N   UNL     1       2.408   7.206  19.456  0.00  0.00    +0.000 N 
ATOM      5  C   UNL     1       2.463   4.691  19.011  0.00  0.00    +0.000 A 
ATOM      6  C   UNL     1       1.247   4.341  19.652  0.00  0.00    +0.000 A 
ATOM      7  C   UNL     1       0.853   3.005  19.768  0.00  0.00    +0.000 A 
ATOM      8  C   UNL     1       1.637   1.989  19.233  0.00  0.00    +0.000 A 
ATOM      9  C   UNL     1       2.811   2.304  18.552  0.00  0.00    +0.000 A 
ATOM     10  C   UNL     1       3.222   3.638  18.430  0.00  0.00    +0.000 A 
ATOM     11  N   UNL     1       4.353   3.910  17.732  0.00  0.00    +0.000 NA
ATOM     12  H   UNL     1       2.676   8.108  19.033  0.00  0.00    +0.000 HD
ENDROOT
BRANCH   1  13
ATOM     13  S   UNL     1       6.232   5.497  16.554  0.00  0.00    +0.000 S 
BRANCH  13  14
ATOM     14  C   UNL     1       6.126   3.943  15.603  0.00  0.00    +0.000 C 
BRANCH  14  15
ATOM     15  C   UNL     1       5.487   4.232  14.241  0.00  0.00    +0.000 C 
BRANCH  15  16
ATOM     16  C   UNL     1       6.322   3.658  13.088  0.00  0.00    +0.000 C 
BRANCH  16  18
ATOM     17  C   UNL     1       5.903   1.793  11.429  0.00  0.00    +0.000 C 
ATOM     18  C   UNL     1       5.412   3.135  11.968  0.00  0.00    +0.000 C 
ENDBRANCH  16  18
ENDBRANCH  15  16
ENDBRANCH  14  15
ENDBRANCH  13  14
ENDBRANCH   1  13
BRANCH   4  19
ATOM     19  C   UNL     1       1.671   7.278  20.710  0.00  0.00    +0.000 C 
BRANCH  19  20
ATOM     20  C   UNL     1       0.977   8.611  20.878  0.00  0.00    +0.000 A 
ATOM     21  C   UNL     1       0.428   8.995  22.115  0.00  0.00    +0.000 A 
ATOM     22  C   UNL     1      -0.201  10.239  22.251  0.00  0.00    +0.000 A 
ATOM     23  C   UNL     1      -0.290  11.113  21.159  0.00  0.00    +0.000 A 
ATOM     24  C   UNL     1       0.259  10.740  19.929  0.00  0.00    +0.000 A 
ATOM     25  C   UNL     1       0.892   9.501  19.789  0.00  0.00    +0.000 A 
BRANCH  23  26
ATOM     26 SE   UNL     1      -1.217  12.796  21.352  0.00  0.00    +0.000 Se
ATOM     27  C   UNL     1      -2.543  12.440  19.967  0.00  0.00    +0.000 C 
ENDBRANCH  23  26
ENDBRANCH  19  20
ENDBRANCH   4  19
TORSDOF 8
ENDMDL
MODEL 4
REMARK VINA RESULT:      -7.8      2.433      3.476
REMARK  Name = 
REMARK  10 active torsions:
REMARK  status: ('A' for Active; 'I' for Inactive)
REMARK    1  A    between atoms: C_1  and  C_2
REMARK    2  A    between atoms: C_2  and  C_3
REMARK    3  A    between atoms: C_3  and  C_4
REMARK    4  A    between atoms: C_4  and  C_5
REMARK    5  A    between atoms: C_5  and  S_6
REMARK    6  A    between atoms: S_6  and  C_7
REMARK    7  A    between atoms: N_10  and  C_11
REMARK    8  A    between atoms: C_11  and  C_12
REMARK    9  A    between atoms: C_15  and  SE_16
REMARK   10  A    between atoms: SE_16  and  C_17
REMARK                            x       y       z     vdW  Elec       q    Type
REMARK                         _______ _______ _______ _____ _____    ______ ____
ROOT
ATOM      1  C   UNL     1       5.270   4.698  18.327  0.00  0.00    +0.000 A 
ATOM      2  N   UNL     1       4.592   5.784  18.772  0.00  0.00    +0.000 NA
ATOM      3  C   UNL     1       3.316   5.716  19.247  0.00  0.00    +0.000 A 
ATOM      4  N   UNL     1       2.769   6.939  19.761  0.00  0.00    +0.000 N 
ATOM      5  C   UNL     1       2.646   4.449  19.206  0.00  0.00    +0.000 A 
ATOM      6  C   UNL     1       1.286   4.228  19.543  0.00  0.00    +0.000 A 
ATOM      7  C   UNL     1       0.731   2.947  19.498  0.00  0.00    +0.000 A 
ATOM      8  C   UNL     1       1.499   1.859  19.096  0.00  0.00    +0.000 A 
ATOM      9  C   UNL     1       2.824   2.051  18.709  0.00  0.00    +0.000 A 
ATOM     10  C   UNL     1       3.396   3.329  18.752  0.00  0.00    +0.000 A 
ATOM     11  N   UNL     1       4.678   3.483  18.337  0.00  0.00    +0.000 NA
ATOM     12  H   UNL     1       3.224   7.814  19.456  0.00  0.00    +0.000 HD
ENDROOT
BRANCH   1  13
ATOM     13  S   UNL     1       6.937   4.866  17.688  0.00  0.00    +0.000 S 
BRANCH  13  14
ATOM     14  C   UNL     1       6.815   6.657  17.358  0.00  0.00    +0.000 C 
BRANCH  14  15
ATOM     15  C   UNL     1       7.912   7.385  18.140  0.00  0.00    +0.000 C 
BRANCH  15  16
ATOM     16  C   UNL     1       7.949   8.883  17.805  0.00  0.00    +0.000 C 
BRANCH  16  18
ATOM     17  C   UNL     1       9.206  11.035  18.243  0.00  0.00    +0.000 C 
ATOM     18  C   UNL     1       8.906   9.626  18.748  0.00  0.00    +0.000 C 
ENDBRANCH  16  18
ENDBRANCH  15  16
ENDBRANCH  14  15
ENDBRANCH  13  14
ENDBRANCH   1  13
BRANCH   4  19
ATOM     19  C   UNL     1       1.781   7.064  20.824  0.00  0.00    +0.000 C 
BRANCH  19  20
ATOM     20  C   UNL     1       1.119   8.424  20.818  0.00  0.00    +0.000 A 
ATOM     21  C   UNL     1       1.099   9.218  19.656  0.00  0.00    +0.000 A 
ATOM     22  C   UNL     1       0.472  10.470  19.669  0.00  0.00    +0.000 A 
ATOM     23  C   UNL     1      -0.141  10.945  20.836  0.00  0.00    +0.000 A 
ATOM     24  C   UNL     1      -0.131  10.158  21.991  0.00  0.00    +0.000 A 
ATOM     25  C   UNL     1       0.490   8.906  21.983  0.00  0.00    +0.000 A 
BRANCH  23  26
ATOM     26 SE   UNL     1      -0.946  12.701  20.850  0.00  0.00    +0.000 Se
ATOM     27  C   UNL     1      -2.362  12.268  19.582  0.00  0.00    +0.000 C 
ENDBRANCH  23  26
ENDBRANCH  19  20
ENDBRANCH   4  19
TORSDOF 8
ENDMDL
MODEL 5
REMARK VINA RESULT:      -7.8      1.640      2.351
REMARK  Name = 
REMARK  10 active torsions:
REMARK  status: ('A' for Active; 'I' for Inactive)
REMARK    1  A    between atoms: C_1  and  C_2
REMARK    2  A    between atoms: C_2  and  C_3
REMARK    3  A    between atoms: C_3  and  C_4
REMARK    4  A    between atoms: C_4  and  C_5
REMARK    5  A    between atoms: C_5  and  S_6
REMARK    6  A    between atoms: S_6  and  C_7
REMARK    7  A    between atoms: N_10  and  C_11
REMARK    8  A    between atoms: C_11  and  C_12
REMARK    9  A    between atoms: C_15  and  SE_16
REMARK   10  A    between atoms: SE_16  and  C_17
REMARK                            x       y       z     vdW  Elec       q    Type
REMARK                         _______ _______ _______ _____ _____    ______ ____
ROOT
ATOM      1  C   UNL     1       4.972   4.645  16.747  0.00  0.00    +0.000 A 
ATOM      2  N   UNL     1       4.427   5.777  17.256  0.00  0.00    +0.000 NA
ATOM      3  C   UNL     1       3.322   5.773  18.054  0.00  0.00    +0.000 A 
ATOM      4  N   UNL     1       2.919   7.045  18.581  0.00  0.00    +0.000 N 
ATOM      5  C   UNL     1       2.676   4.517  18.306  0.00  0.00    +0.000 A 
ATOM      6  C   UNL     1       1.455   4.349  19.008  0.00  0.00    +0.000 A 
ATOM      7  C   UNL     1       0.919   3.078  19.228  0.00  0.00    +0.000 A 
ATOM      8  C   UNL     1       1.563   1.946  18.738  0.00  0.00    +0.000 A 
ATOM      9  C   UNL     1       2.737   2.082  18.000  0.00  0.00    +0.000 A 
ATOM     10  C   UNL     1       3.289   3.349  17.774  0.00  0.00    +0.000 A 
ATOM     11  N   UNL     1       4.414   3.445  17.023  0.00  0.00    +0.000 NA
ATOM     12  H   UNL     1       3.269   7.882  18.088  0.00  0.00    +0.000 HD
ENDROOT
BRANCH   1  13
ATOM     13  S   UNL     1       6.410   4.729  15.679  0.00  0.00    +0.000 S 
BRANCH  13  14
ATOM     14  C   UNL     1       5.511   4.309  14.148  0.00  0.00    +0.000 C 
BRANCH  14  15
ATOM     15  C   UNL     1       6.439   3.516  13.224  0.00  0.00    +0.000 C 
BRANCH  15  16
ATOM     16  C   UNL     1       5.770   3.202  11.879  0.00  0.00    +0.000 C 
BRANCH  16  18
ATOM     17  C   UNL     1       3.573   3.184  10.623  0.00  0.00    +0.000 C 
ATOM     18  C   UNL     1       4.290   3.610  11.901  0.00  0.00    +0.000 C 
ENDBRANCH  16  18
ENDBRANCH  15  16
ENDBRANCH  14  15
ENDBRANCH  13  14
ENDBRANCH   1  13
BRANCH   4  19
ATOM     19  C   UNL     1       2.245   7.280  19.850  0.00  0.00    +0.000 C 
BRANCH  19  20
ATOM     20  C   UNL     1       1.412   8.542  19.818  0.00  0.00    +0.000 A 
ATOM     21  C   UNL     1       0.689   8.965  20.947  0.00  0.00    +0.000 A 
ATOM     22  C   UNL     1      -0.068  10.143  20.899  0.00  0.00    +0.000 A 
ATOM     23  C   UNL     1      -0.114  10.910  19.728  0.00  0.00    +0.000 A 
ATOM     24  C   UNL     1       0.608  10.499  18.604  0.00  0.00    +0.000 A 
ATOM     25  C   UNL     1       1.369   9.327  18.648  0.00  0.00    +0.000 A 
BRANCH  23  26
ATOM     26 SE   UNL     1      -1.214  12.496  19.663  0.00  0.00    +0.000 Se
ATOM     27  C   UNL     1      -1.951  12.287  21.456  0.00  0.00    +0.000 C 
ENDBRANCH  23  26
ENDBRANCH  19  20
ENDBRANCH   4  19
TORSDOF 8
ENDMDL
MODEL 6
REMARK VINA RESULT:      -7.7      1.370      2.559
REMARK  Name = 
REMARK  10 active torsions:
REMARK  status: ('A' for Active; 'I' for Inactive)
REMARK    1  A    between atoms: C_1  and  C_2
REMARK    2  A    between atoms: C_2  and  C_3
REMARK    3  A    between atoms: C_3  and  C_4
REMARK    4  A    between atoms: C_4  and  C_5
REMARK    5  A    between atoms: C_5  and  S_6
REMARK    6  A    between atoms: S_6  and  C_7
REMARK    7  A    between atoms: N_10  and  C_11
REMARK    8  A    between atoms: C_11  and  C_12
REMARK    9  A    between atoms: C_15  and  SE_16
REMARK   10  A    between atoms: SE_16  and  C_17
REMARK                            x       y       z     vdW  Elec       q    Type
REMARK                         _______ _______ _______ _____ _____    ______ ____
ROOT
ATOM      1  C   UNL     1       3.956   6.005  17.536  0.00  0.00    +0.000 A 
ATOM      2  N   UNL     1       3.272   6.970  18.198  0.00  0.00    +0.000 NA
ATOM      3  C   UNL     1       2.449   6.702  19.252  0.00  0.00    +0.000 A 
ATOM      4  N   UNL     1       1.864   7.841  19.900  0.00  0.00    +0.000 N 
ATOM      5  C   UNL     1       2.253   5.332  19.625  0.00  0.00    +0.000 A 
ATOM      6  C   UNL     1       1.343   4.872  20.611  0.00  0.00    +0.000 A 
ATOM      7  C   UNL     1       1.245   3.514  20.925  0.00  0.00    +0.000 A 
ATOM      8  C   UNL     1       2.025   2.577  20.255  0.00  0.00    +0.000 A 
ATOM      9  C   UNL     1       2.892   2.991  19.246  0.00  0.00    +0.000 A 
ATOM     10  C   UNL     1       3.004   4.349  18.922  0.00  0.00    +0.000 A 
ATOM     11  N   UNL     1       3.833   4.712  17.911  0.00  0.00    +0.000 NA
ATOM     12  H   UNL     1       1.838   8.719  19.358  0.00  0.00    +0.000 HD
ENDROOT
BRANCH   1  13
ATOM     13  S   UNL     1       4.998   6.426  16.139  0.00  0.00    +0.000 S 
BRANCH  13  14
ATOM     14  C   UNL     1       5.968   4.881  16.176  0.00  0.00    +0.000 C 
BRANCH  14  15
ATOM     15  C   UNL     1       7.263   5.122  16.957  0.00  0.00    +0.000 C 
BRANCH  15  16
ATOM     16  C   UNL     1       7.510   6.618  17.199  0.00  0.00    +0.000 C 
BRANCH  16  18
ATOM     17  C   UNL     1       7.838   5.618  19.500  0.00  0.00    +0.000 C 
ATOM     18  C   UNL     1       8.011   6.860  18.630  0.00  0.00    +0.000 C 
ENDBRANCH  16  18
ENDBRANCH  15  16
ENDBRANCH  14  15
ENDBRANCH  13  14
ENDBRANCH   1  13
BRANCH   4  19
ATOM     19  C   UNL     1       1.496   7.941  21.305  0.00  0.00    +0.000 C 
BRANCH  19  20
ATOM     20  C   UNL     1       0.565   9.106  21.560  0.00  0.00    +0.000 A 
ATOM     21  C   UNL     1       0.060   9.364  22.847  0.00  0.00    +0.000 A 
ATOM     22  C   UNL     1      -0.791  10.455  23.064  0.00  0.00    +0.000 A 
ATOM     23  C   UNL     1      -1.149  11.298  22.003  0.00  0.00    +0.000 A 
ATOM     24  C   UNL     1      -0.645  11.051  20.723  0.00  0.00    +0.000 A 
ATOM     25  C   UNL     1       0.209   9.966  20.503  0.00  0.00    +0.000 A 
BRANCH  23  26
ATOM     26 SE   UNL     1      -2.375  12.758  22.311  0.00  0.00    +0.000 Se
ATOM     27  C   UNL     1      -3.012  12.860  20.470  0.00  0.00    +0.000 C 
ENDBRANCH  23  26
ENDBRANCH  19  20
ENDBRANCH   4  19
TORSDOF 8
ENDMDL
MODEL 7
REMARK VINA RESULT:      -7.7      1.297      1.342
REMARK  Name = 
REMARK  10 active torsions:
REMARK  status: ('A' for Active; 'I' for Inactive)
REMARK    1  A    between atoms: C_1  and  C_2
REMARK    2  A    between atoms: C_2  and  C_3
REMARK    3  A    between atoms: C_3  and  C_4
REMARK    4  A    between atoms: C_4  and  C_5
REMARK    5  A    between atoms: C_5  and  S_6
REMARK    6  A    between atoms: S_6  and  C_7
REMARK    7  A    between atoms: N_10  and  C_11
REMARK    8  A    between atoms: C_11  and  C_12
REMARK    9  A    between atoms: C_15  and  SE_16
REMARK   10  A    between atoms: SE_16  and  C_17
REMARK                            x       y       z     vdW  Elec       q    Type
REMARK                         _______ _______ _______ _____ _____    ______ ____
ROOT
ATOM      1  C   UNL     1       5.239   4.882  18.604  0.00  0.00    +0.000 A 
ATOM      2  N   UNL     1       4.495   5.945  18.997  0.00  0.00    +0.000 NA
ATOM      3  C   UNL     1       3.209   5.828  19.434  0.00  0.00    +0.000 A 
ATOM      4  N   UNL     1       2.587   7.036  19.895  0.00  0.00    +0.000 N 
ATOM      5  C   UNL     1       2.604   4.528  19.410  0.00  0.00    +0.000 A 
ATOM      6  C   UNL     1       1.246   4.250  19.712  0.00  0.00    +0.000 A 
ATOM      7  C   UNL     1       0.755   2.942  19.689  0.00  0.00    +0.000 A 
ATOM      8  C   UNL     1       1.588   1.883  19.343  0.00  0.00    +0.000 A 
ATOM      9  C   UNL     1       2.913   2.129  18.991  0.00  0.00    +0.000 A 
ATOM     10  C   UNL     1       3.421   3.434  19.013  0.00  0.00    +0.000 A 
ATOM     11  N   UNL     1       4.707   3.640  18.632  0.00  0.00    +0.000 NA
ATOM     12  H   UNL     1       3.008   7.924  19.577  0.00  0.00    +0.000 HD
ENDROOT
BRANCH   1  13
ATOM     13  S   UNL     1       6.915   5.114  18.012  0.00  0.00    +0.000 S 
BRANCH  13  14
ATOM     14  C   UNL     1       6.432   5.652  16.336  0.00  0.00    +0.000 C 
BRANCH  14  15
ATOM     15  C   UNL     1       6.993   4.661  15.312  0.00  0.00    +0.000 C 
BRANCH  15  16
ATOM     16  C   UNL     1       5.886   4.072  14.427  0.00  0.00    +0.000 C 
BRANCH  16  18
ATOM     17  C   UNL     1       5.314   3.246  12.104  0.00  0.00    +0.000 C 
ATOM     18  C   UNL     1       6.396   3.849  12.996  0.00  0.00    +0.000 C 
ENDBRANCH  16  18
ENDBRANCH  15  16
ENDBRANCH  14  15
ENDBRANCH  13  14
ENDBRANCH   1  13
BRANCH   4  19
ATOM     19  C   UNL     1       1.561   7.142  20.922  0.00  0.00    +0.000 C 
BRANCH  19  20
ATOM     20  C   UNL     1       1.000   8.544  21.013  0.00  0.00    +0.000 A 
ATOM     21  C   UNL     1       0.970   9.389  19.889  0.00  0.00    +0.000 A 
ATOM     22  C   UNL     1       0.437  10.680  19.992  0.00  0.00    +0.000 A 
ATOM     23  C   UNL     1      -0.071  11.143  21.214  0.00  0.00    +0.000 A 
ATOM     24  C   UNL     1      -0.051  10.306  22.332  0.00  0.00    +0.000 A 
ATOM     25  C   UNL     1       0.477   9.014  22.234  0.00  0.00    +0.000 A 
BRANCH  23  26
ATOM     26 SE   UNL     1      -0.744  12.948  21.350  0.00  0.00    +0.000 Se
ATOM     27  C   UNL     1      -2.519  12.440  21.976  0.00  0.00    +0.000 C 
ENDBRANCH  23  26
ENDBRANCH  19  20
ENDBRANCH   4  19
TORSDOF 8
ENDMDL
MODEL 8
REMARK VINA RESULT:      -7.7      1.399      1.748
REMARK  Name = 
REMARK  10 active torsions:
REMARK  status: ('A' for Active; 'I' for Inactive)
REMARK    1  A    between atoms: C_1  and  C_2
REMARK    2  A    between atoms: C_2  and  C_3
REMARK    3  A    between atoms: C_3  and  C_4
REMARK    4  A    between atoms: C_4  and  C_5
REMARK    5  A    between atoms: C_5  and  S_6
REMARK    6  A    between atoms: S_6  and  C_7
REMARK    7  A    between atoms: N_10  and  C_11
REMARK    8  A    between atoms: C_11  and  C_12
REMARK    9  A    between atoms: C_15  and  SE_16
REMARK   10  A    between atoms: SE_16  and  C_17
REMARK                            x       y       z     vdW  Elec       q    Type
REMARK                         _______ _______ _______ _____ _____    ______ ____
ROOT
ATOM      1  C   UNL     1       5.358   4.902  18.814  0.00  0.00    +0.000 A 
ATOM      2  N   UNL     1       4.587   5.948  19.198  0.00  0.00    +0.000 NA
ATOM      3  C   UNL     1       3.278   5.812  19.552  0.00  0.00    +0.000 A 
ATOM      4  N   UNL     1       2.623   7.001  20.018  0.00  0.00    +0.000 N 
ATOM      5  C   UNL     1       2.681   4.512  19.446  0.00  0.00    +0.000 A 
ATOM      6  C   UNL     1       1.308   4.220  19.655  0.00  0.00    +0.000 A 
ATOM      7  C   UNL     1       0.827   2.912  19.555  0.00  0.00    +0.000 A 
ATOM      8  C   UNL     1       1.683   1.868  19.221  0.00  0.00    +0.000 A 
ATOM      9  C   UNL     1       3.027   2.130  18.960  0.00  0.00    +0.000 A 
ATOM     10  C   UNL     1       3.526   3.435  19.059  0.00  0.00    +0.000 A 
ATOM     11  N   UNL     1       4.831   3.658  18.765  0.00  0.00    +0.000 NA
ATOM     12  H   UNL     1       3.059   7.900  19.759  0.00  0.00    +0.000 HD
ENDROOT
BRANCH   1  13
ATOM     13  S   UNL     1       7.066   5.159  18.333  0.00  0.00    +0.000 S 
BRANCH  13  14
ATOM     14  C   UNL     1       6.689   5.640  16.613  0.00  0.00    +0.000 C 
BRANCH  14  15
ATOM     15  C   UNL     1       6.752   4.397  15.721  0.00  0.00    +0.000 C 
BRANCH  15  16
ATOM     16  C   UNL     1       6.732   4.766  14.231  0.00  0.00    +0.000 C 
BRANCH  16  18
ATOM     17  C   UNL     1       6.427   3.361  12.148  0.00  0.00    +0.000 C 
ATOM     18  C   UNL     1       5.792   3.832  13.454  0.00  0.00    +0.000 C 
ENDBRANCH  16  18
ENDBRANCH  15  16
ENDBRANCH  14  15
ENDBRANCH  13  14
ENDBRANCH   1  13
BRANCH   4  19
ATOM     19  C   UNL     1       1.536   7.067  20.985  0.00  0.00    +0.000 C 
BRANCH  19  20
ATOM     20  C   UNL     1       0.872   8.426  20.990  0.00  0.00    +0.000 A 
ATOM     21  C   UNL     1       0.126   8.865  22.098  0.00  0.00    +0.000 A 
ATOM     22  C   UNL     1      -0.472  10.132  22.087  0.00  0.00    +0.000 A 
ATOM     23  C   UNL     1      -0.334  10.973  20.975  0.00  0.00    +0.000 A 
ATOM     24  C   UNL     1       0.412  10.545  19.874  0.00  0.00    +0.000 A 
ATOM     25  C   UNL     1       1.015   9.283  19.881  0.00  0.00    +0.000 A 
BRANCH  23  26
ATOM     26 SE   UNL     1      -1.219  12.689  20.955  0.00  0.00    +0.000 Se
ATOM     27  C   UNL     1      -1.089  12.990  22.877  0.00  0.00    +0.000 C 
ENDBRANCH  23  26
ENDBRANCH  19  20
ENDBRANCH   4  19
TORSDOF 8
ENDMDL
MODEL 9
REMARK VINA RESULT:      -7.7      1.710      1.947
REMARK  Name = 
REMARK  10 active torsions:
REMARK  status: ('A' for Active; 'I' for Inactive)
REMARK    1  A    between atoms: C_1  and  C_2
REMARK    2  A    between atoms: C_2  and  C_3
REMARK    3  A    between atoms: C_3  and  C_4
REMARK    4  A    between atoms: C_4  and  C_5
REMARK    5  A    between atoms: C_5  and  S_6
REMARK    6  A    between atoms: S_6  and  C_7
REMARK    7  A    between atoms: N_10  and  C_11
REMARK    8  A    between atoms: C_11  and  C_12
REMARK    9  A    between atoms: C_15  and  SE_16
REMARK   10  A    between atoms: SE_16  and  C_17
REMARK                            x       y       z     vdW  Elec       q    Type
REMARK                         _______ _______ _______ _____ _____    ______ ____
ROOT
ATOM      1  C   UNL     1       5.329   4.567  17.940  0.00  0.00    +0.000 A 
ATOM      2  N   UNL     1       4.678   5.721  18.226  0.00  0.00    +0.000 NA
ATOM      3  C   UNL     1       3.428   5.750  18.769  0.00  0.00    +0.000 A 
ATOM      4  N   UNL     1       2.912   7.049  19.092  0.00  0.00    +0.000 N 
ATOM      5  C   UNL     1       2.754   4.503  18.982  0.00  0.00    +0.000 A 
ATOM      6  C   UNL     1       1.413   4.359  19.421  0.00  0.00    +0.000 A 
ATOM      7  C   UNL     1       0.853   3.096  19.627  0.00  0.00    +0.000 A 
ATOM      8  C   UNL     1       1.597   1.946  19.379  0.00  0.00    +0.000 A 
ATOM      9  C   UNL     1       2.900   2.053  18.898  0.00  0.00    +0.000 A 
ATOM     10  C   UNL     1       3.477   3.312  18.690  0.00  0.00    +0.000 A 
ATOM     11  N   UNL     1       4.736   3.378  18.190  0.00  0.00    +0.000 NA
ATOM     12  H   UNL     1       3.352   7.854  18.617  0.00  0.00    +0.000 HD
ENDROOT
BRANCH   1  13
ATOM     13  S   UNL     1       6.960   4.603  17.197  0.00  0.00    +0.000 S 
BRANCH  13  14
ATOM     14  C   UNL     1       6.437   5.464  15.676  0.00  0.00    +0.000 C 
BRANCH  14  15
ATOM     15  C   UNL     1       6.775   4.590  14.465  0.00  0.00    +0.000 C 
BRANCH  15  16
ATOM     16  C   UNL     1       5.510   4.055  13.779  0.00  0.00    +0.000 C 
BRANCH  16  18
ATOM     17  C   UNL     1       4.621   3.189  11.574  0.00  0.00    +0.000 C 
ATOM     18  C   UNL     1       5.860   3.380  12.445  0.00  0.00    +0.000 C 
ENDBRANCH  16  18
ENDBRANCH  15  16
ENDBRANCH  14  15
ENDBRANCH  13  14
ENDBRANCH   1  13
BRANCH   4  19
ATOM     19  C   UNL     1       1.981   7.367  20.166  0.00  0.00    +0.000 C 
BRANCH  19  20
ATOM     20  C   UNL     1       1.258   8.672  19.915  0.00  0.00    +0.000 A 
ATOM     21  C   UNL     1       1.443   9.386  18.718  0.00  0.00    +0.000 A 
ATOM     22  C   UNL     1       0.755  10.587  18.500  0.00  0.00    +0.000 A 
ATOM     23  C   UNL     1      -0.122  11.088  19.471  0.00  0.00    +0.000 A 
ATOM     24  C   UNL     1      -0.315  10.380  20.660  0.00  0.00    +0.000 A 
ATOM     25  C   UNL     1       0.366   9.178  20.881  0.00  0.00    +0.000 A 
BRANCH  23  26
ATOM     26 SE   UNL     1      -1.011  12.778  19.179  0.00  0.00    +0.000 Se
ATOM     27  C   UNL     1      -2.820  12.051  19.241  0.00  0.00    +0.000 C 
ENDBRANCH  23  26
ENDBRANCH  19  20
ENDBRANCH   4  19
TORSDOF 8
ENDMDL
