MODEL 1
REMARK VINA RESULT:      -7.6      0.000      0.000
REMARK  Name = 
REMARK  8 active torsions:
REMARK  status: ('A' for Active; 'I' for Inactive)
REMARK    1  A    between atoms: C_2  and  C_3
REMARK    2  A    between atoms: C_3  and  C_4
REMARK    3  A    between atoms: C_4  and  O_5
REMARK    4  A    between atoms: O_5  and  C_6
REMARK    5  A    between atoms: N_12  and  C_13
REMARK    6  A    between atoms: C_13  and  C_14
REMARK    7  A    between atoms: C_14  and  C_15
REMARK    8  A    between atoms: C_14  and  N_20
REMARK                            x       y       z     vdW  Elec       q    Type
REMARK                         _______ _______ _______ _____ _____    ______ ____
ROOT
ATOM      1  O   UNL     1       7.047   5.409  20.081  0.00  0.00    +0.000 OA
ATOM      2  C   UNL     1       6.681   5.616  18.926  0.00  0.00    +0.000 C 
ATOM      3  N   UNL     1       5.366   5.807  18.587  0.00  0.00    +0.000 N 
ATOM      4  H   UNL     1       5.117   5.953  17.617  0.00  0.00    +0.000 HD
ENDROOT
BRANCH   2   5
ATOM      5  C   UNL     1       7.635   5.680  17.755  0.00  0.00    +0.000 C 
BRANCH   5   6
ATOM      6  C   UNL     1       7.082   4.865  16.593  0.00  0.00    +0.000 C 
BRANCH   6   7
ATOM      7  O   UNL     1       7.494   5.450  15.355  0.00  0.00    +0.000 OA
BRANCH   7   8
ATOM      8  C   UNL     1       7.009   4.820  14.236  0.00  0.00    +0.000 A 
ATOM      9  C   UNL     1       7.739   5.023  13.063  0.00  0.00    +0.000 A 
ATOM     10  C   UNL     1       7.331   4.433  11.863  0.00  0.00    +0.000 A 
ATOM     11  C   UNL     1       6.198   3.623  11.834  0.00  0.00    +0.000 A 
ATOM     12  C   UNL     1       5.479   3.397  13.005  0.00  0.00    +0.000 A 
ATOM     13  C   UNL     1       5.884   3.992  14.203  0.00  0.00    +0.000 A 
ENDBRANCH   7   8
ENDBRANCH   6   7
ENDBRANCH   5   6
ENDBRANCH   2   5
BRANCH   3  14
ATOM     14  C   UNL     1       4.284   5.746  19.569  0.00  0.00    +0.000 C 
BRANCH  14  15
ATOM     15  C   UNL     1       2.839   5.582  18.989  0.00  0.00    +0.000 C 
BRANCH  15  16
ATOM     16  N   UNL     1       2.074   6.868  18.922  0.00  0.00    +0.000 NA
ATOM     17  C   UNL     1       1.989   7.532  20.234  0.00  0.00    +0.000 C 
ATOM     18  C   UNL     1       1.115   8.789  20.201  0.00  0.00    +0.000 C 
ATOM     19  C   UNL     1       1.576   9.754  19.120  0.00  0.00    +0.000 C 
ATOM     20  C   UNL     1       1.635   9.033  17.782  0.00  0.00    +0.000 C 
ATOM     21  C   UNL     1       2.519   7.785  17.867  0.00  0.00    +0.000 C 
ENDBRANCH  15  16
BRANCH  15  22
ATOM     22  C   UNL     1       2.128   4.464  19.709  0.00  0.00    +0.000 A 
ATOM     23  C   UNL     1       1.136   3.583  19.316  0.00  0.00    +0.000 A 
ATOM     24  C   UNL     1       0.910   2.719  20.414  0.00  0.00    +0.000 A 
ATOM     25  C   UNL     1       1.767   3.129  21.406  0.00  0.00    +0.000 A 
ATOM     26  O   UNL     1       2.514   4.182  20.988  0.00  0.00    +0.000 OA
ENDBRANCH  15  22
ENDBRANCH  14  15
ENDBRANCH   3  14
TORSDOF 8
ENDMDL
MODEL 2
REMARK VINA RESULT:      -7.6      3.410      7.818
REMARK  Name = 
REMARK  8 active torsions:
REMARK  status: ('A' for Active; 'I' for Inactive)
REMARK    1  A    between atoms: C_2  and  C_3
REMARK    2  A    between atoms: C_3  and  C_4
REMARK    3  A    between atoms: C_4  and  O_5
REMARK    4  A    between atoms: O_5  and  C_6
REMARK    5  A    between atoms: N_12  and  C_13
REMARK    6  A    between atoms: C_13  and  C_14
REMARK    7  A    between atoms: C_14  and  C_15
REMARK    8  A    between atoms: C_14  and  N_20
REMARK                            x       y       z     vdW  Elec       q    Type
REMARK                         _______ _______ _______ _____ _____    ______ ____
ROOT
ATOM      1  O   UNL     1       2.025   9.435  17.354  0.00  0.00    +0.000 OA
ATOM      2  C   UNL     1       1.725   8.967  18.450  0.00  0.00    +0.000 C 
ATOM      3  N   UNL     1       2.285   7.816  18.944  0.00  0.00    +0.000 N 
ATOM      4  H   UNL     1       1.987   7.463  19.844  0.00  0.00    +0.000 HD
ENDROOT
BRANCH   2   5
ATOM      5  C   UNL     1       0.710   9.603  19.373  0.00  0.00    +0.000 C 
BRANCH   5   6
ATOM      6  C   UNL     1       0.038  10.775  18.672  0.00  0.00    +0.000 C 
BRANCH   6   7
ATOM      7  O   UNL     1      -1.337  10.845  19.060  0.00  0.00    +0.000 OA
BRANCH   7   8
ATOM      8  C   UNL     1      -2.229  10.798  18.018  0.00  0.00    +0.000 A 
ATOM      9  C   UNL     1      -1.852  10.005  16.933  0.00  0.00    +0.000 A 
ATOM     10  C   UNL     1      -2.684   9.891  15.816  0.00  0.00    +0.000 A 
ATOM     11  C   UNL     1      -3.907  10.556  15.786  0.00  0.00    +0.000 A 
ATOM     12  C   UNL     1      -4.301  11.330  16.875  0.00  0.00    +0.000 A 
ATOM     13  C   UNL     1      -3.465  11.449  17.990  0.00  0.00    +0.000 A 
ENDBRANCH   7   8
ENDBRANCH   6   7
ENDBRANCH   5   6
ENDBRANCH   2   5
BRANCH   3  14
ATOM     14  C   UNL     1       3.260   7.031  18.189  0.00  0.00    +0.000 C 
BRANCH  14  15
ATOM     15  C   UNL     1       3.783   5.731  18.888  0.00  0.00    +0.000 C 
BRANCH  15  16
ATOM     16  N   UNL     1       4.870   5.039  18.124  0.00  0.00    +0.000 NA
ATOM     17  C   UNL     1       4.614   5.039  16.673  0.00  0.00    +0.000 C 
ATOM     18  C   UNL     1       5.660   4.239  15.892  0.00  0.00    +0.000 C 
ATOM     19  C   UNL     1       7.070   4.716  16.207  0.00  0.00    +0.000 C 
ATOM     20  C   UNL     1       7.296   4.686  17.711  0.00  0.00    +0.000 C 
ATOM     21  C   UNL     1       6.225   5.499  18.446  0.00  0.00    +0.000 C 
ENDBRANCH  15  16
BRANCH  15  22
ATOM     22  C   UNL     1       2.616   4.850  19.258  0.00  0.00    +0.000 A 
ATOM     23  C   UNL     1       2.039   3.757  18.638  0.00  0.00    +0.000 A 
ATOM     24  C   UNL     1       1.002   3.312  19.493  0.00  0.00    +0.000 A 
ATOM     25  C   UNL     1       1.005   4.163  20.572  0.00  0.00    +0.000 A 
ATOM     26  O   UNL     1       1.983   5.095  20.443  0.00  0.00    +0.000 OA
ENDBRANCH  15  22
ENDBRANCH  14  15
ENDBRANCH   3  14
TORSDOF 8
ENDMDL
MODEL 3
REMARK VINA RESULT:      -7.4      1.567      3.800
REMARK  Name = 
REMARK  8 active torsions:
REMARK  status: ('A' for Active; 'I' for Inactive)
REMARK    1  A    between atoms: C_2  and  C_3
REMARK    2  A    between atoms: C_3  and  C_4
REMARK    3  A    between atoms: C_4  and  O_5
REMARK    4  A    between atoms: O_5  and  C_6
REMARK    5  A    between atoms: N_12  and  C_13
REMARK    6  A    between atoms: C_13  and  C_14
REMARK    7  A    between atoms: C_14  and  C_15
REMARK    8  A    between atoms: C_14  and  N_20
REMARK                            x       y       z     vdW  Elec       q    Type
REMARK                         _______ _______ _______ _____ _____    ______ ____
ROOT
ATOM      1  O   UNL     1       4.604   3.583  17.950  0.00  0.00    +0.000 OA
ATOM      2  C   UNL     1       5.279   4.608  17.882  0.00  0.00    +0.000 C 
ATOM      3  N   UNL     1       4.730   5.864  17.951  0.00  0.00    +0.000 N 
ATOM      4  H   UNL     1       5.329   6.676  17.869  0.00  0.00    +0.000 HD
ENDROOT
BRANCH   2   5
ATOM      5  C   UNL     1       6.781   4.602  17.716  0.00  0.00    +0.000 C 
BRANCH   5   6
ATOM      6  C   UNL     1       7.162   5.326  16.432  0.00  0.00    +0.000 C 
BRANCH   6   7
ATOM      7  O   UNL     1       6.047   5.336  15.535  0.00  0.00    +0.000 OA
BRANCH   7   8
ATOM      8  C   UNL     1       6.304   4.803  14.297  0.00  0.00    +0.000 A 
ATOM      9  C   UNL     1       7.458   5.272  13.664  0.00  0.00    +0.000 A 
ATOM     10  C   UNL     1       7.811   4.801  12.397  0.00  0.00    +0.000 A 
ATOM     11  C   UNL     1       7.022   3.844  11.762  0.00  0.00    +0.000 A 
ATOM     12  C   UNL     1       5.884   3.354  12.398  0.00  0.00    +0.000 A 
ATOM     13  C   UNL     1       5.526   3.831  13.663  0.00  0.00    +0.000 A 
ENDBRANCH   7   8
ENDBRANCH   6   7
ENDBRANCH   5   6
ENDBRANCH   2   5
BRANCH   3  14
ATOM     14  C   UNL     1       3.290   6.086  18.075  0.00  0.00    +0.000 C 
BRANCH  14  15
ATOM     15  C   UNL     1       2.745   6.262  19.532  0.00  0.00    +0.000 C 
BRANCH  15  16
ATOM     16  N   UNL     1       1.979   5.074  20.029  0.00  0.00    +0.000 NA
ATOM     17  C   UNL     1       1.544   4.195  18.930  0.00  0.00    +0.000 C 
ATOM     18  C   UNL     1       0.665   3.039  19.415  0.00  0.00    +0.000 C 
ATOM     19  C   UNL     1       1.353   2.248  20.519  0.00  0.00    +0.000 C 
ATOM     20  C   UNL     1       1.771   3.190  21.638  0.00  0.00    +0.000 C 
ATOM     21  C   UNL     1       2.646   4.328  21.102  0.00  0.00    +0.000 C 
ENDBRANCH  15  16
BRANCH  15  22
ATOM     22  C   UNL     1       2.012   7.574  19.645  0.00  0.00    +0.000 A 
ATOM     23  C   UNL     1       1.380   8.203  20.702  0.00  0.00    +0.000 A 
ATOM     24  C   UNL     1       0.917   9.447  20.212  0.00  0.00    +0.000 A 
ATOM     25  C   UNL     1       1.287   9.497  18.889  0.00  0.00    +0.000 A 
ATOM     26  O   UNL     1       1.956   8.371  18.536  0.00  0.00    +0.000 OA
ENDBRANCH  15  22
ENDBRANCH  14  15
ENDBRANCH   3  14
TORSDOF 8
ENDMDL
MODEL 4
REMARK VINA RESULT:      -7.4      3.760      6.373
REMARK  Name = 
REMARK  8 active torsions:
REMARK  status: ('A' for Active; 'I' for Inactive)
REMARK    1  A    between atoms: C_2  and  C_3
REMARK    2  A    between atoms: C_3  and  C_4
REMARK    3  A    between atoms: C_4  and  O_5
REMARK    4  A    between atoms: O_5  and  C_6
REMARK    5  A    between atoms: N_12  and  C_13
REMARK    6  A    between atoms: C_13  and  C_14
REMARK    7  A    between atoms: C_14  and  C_15
REMARK    8  A    between atoms: C_14  and  N_20
REMARK                            x       y       z     vdW  Elec       q    Type
REMARK                         _______ _______ _______ _____ _____    ______ ____
ROOT
ATOM      1  O   UNL     1       7.458   5.865  18.391  0.00  0.00    +0.000 OA
ATOM      2  C   UNL     1       6.927   6.773  17.755  0.00  0.00    +0.000 C 
ATOM      3  N   UNL     1       5.600   6.757  17.406  0.00  0.00    +0.000 N 
ATOM      4  H   UNL     1       5.217   7.521  16.864  0.00  0.00    +0.000 HD
ENDROOT
BRANCH   2   5
ATOM      5  C   UNL     1       7.671   8.002  17.286  0.00  0.00    +0.000 C 
BRANCH   5   6
ATOM      6  C   UNL     1       8.465   8.597  18.441  0.00  0.00    +0.000 C 
BRANCH   6   7
ATOM      7  O   UNL     1       8.298  10.017  18.460  0.00  0.00    +0.000 OA
BRANCH   7   8
ATOM      8  C   UNL     1       9.425  10.722  18.803  0.00  0.00    +0.000 A 
ATOM      9  C   UNL     1       9.562  11.023  20.159  0.00  0.00    +0.000 A 
ATOM     10  C   UNL     1      10.669  11.742  20.617  0.00  0.00    +0.000 A 
ATOM     11  C   UNL     1      11.656  12.149  19.721  0.00  0.00    +0.000 A 
ATOM     12  C   UNL     1      11.538  11.831  18.371  0.00  0.00    +0.000 A 
ATOM     13  C   UNL     1      10.426  11.117  17.912  0.00  0.00    +0.000 A 
ENDBRANCH   7   8
ENDBRANCH   6   7
ENDBRANCH   5   6
ENDBRANCH   2   5
BRANCH   3  14
ATOM     14  C   UNL     1       4.715   5.639  17.733  0.00  0.00    +0.000 C 
BRANCH  14  15
ATOM     15  C   UNL     1       3.734   5.868  18.931  0.00  0.00    +0.000 C 
BRANCH  15  16
ATOM     16  N   UNL     1       2.958   4.643  19.308  0.00  0.00    +0.000 NA
ATOM     17  C   UNL     1       2.459   4.708  20.693  0.00  0.00    +0.000 C 
ATOM     18  C   UNL     1       1.761   3.416  21.127  0.00  0.00    +0.000 C 
ATOM     19  C   UNL     1       0.655   3.033  20.155  0.00  0.00    +0.000 C 
ATOM     20  C   UNL     1       1.216   2.963  18.743  0.00  0.00    +0.000 C 
ATOM     21  C   UNL     1       1.903   4.276  18.357  0.00  0.00    +0.000 C 
ENDBRANCH  15  16
BRANCH  15  22
ATOM     22  C   UNL     1       2.891   7.090  18.670  0.00  0.00    +0.000 A 
ATOM     23  C   UNL     1       2.525   7.741  17.506  0.00  0.00    +0.000 A 
ATOM     24  C   UNL     1       1.674   8.804  17.891  0.00  0.00    +0.000 A 
ATOM     25  C   UNL     1       1.580   8.742  19.260  0.00  0.00    +0.000 A 
ATOM     26  O   UNL     1       2.309   7.704  19.743  0.00  0.00    +0.000 OA
ENDBRANCH  15  22
ENDBRANCH  14  15
ENDBRANCH   3  14
TORSDOF 8
ENDMDL
MODEL 5
REMARK VINA RESULT:      -7.4      1.812      7.548
REMARK  Name = 
REMARK  8 active torsions:
REMARK  status: ('A' for Active; 'I' for Inactive)
REMARK    1  A    between atoms: C_2  and  C_3
REMARK    2  A    between atoms: C_3  and  C_4
REMARK    3  A    between atoms: C_4  and  O_5
REMARK    4  A    between atoms: O_5  and  C_6
REMARK    5  A    between atoms: N_12  and  C_13
REMARK    6  A    between atoms: C_13  and  C_14
REMARK    7  A    between atoms: C_14  and  C_15
REMARK    8  A    between atoms: C_14  and  N_20
REMARK                            x       y       z     vdW  Elec       q    Type
REMARK                         _______ _______ _______ _____ _____    ______ ____
ROOT
ATOM      1  O   UNL     1       2.097   3.368  17.024  0.00  0.00    +0.000 OA
ATOM      2  C   UNL     1       2.758   3.904  17.910  0.00  0.00    +0.000 C 
ATOM      3  N   UNL     1       4.104   4.140  17.791  0.00  0.00    +0.000 N 
ATOM      4  H   UNL     1       4.606   4.566  18.561  0.00  0.00    +0.000 HD
ENDROOT
BRANCH   2   5
ATOM      5  C   UNL     1       2.167   4.359  19.225  0.00  0.00    +0.000 C 
BRANCH   5   6
ATOM      6  C   UNL     1       2.986   5.513  19.788  0.00  0.00    +0.000 C 
BRANCH   6   7
ATOM      7  O   UNL     1       3.098   6.548  18.807  0.00  0.00    +0.000 OA
BRANCH   7   8
ATOM      8  C   UNL     1       2.292   7.637  19.030  0.00  0.00    +0.000 A 
ATOM      9  C   UNL     1       1.983   8.403  17.904  0.00  0.00    +0.000 A 
ATOM     10  C   UNL     1       1.175   9.537  18.018  0.00  0.00    +0.000 A 
ATOM     11  C   UNL     1       0.655   9.901  19.258  0.00  0.00    +0.000 A 
ATOM     12  C   UNL     1       0.938   9.127  20.381  0.00  0.00    +0.000 A 
ATOM     13  C   UNL     1       1.753   7.997  20.268  0.00  0.00    +0.000 A 
ENDBRANCH   7   8
ENDBRANCH   6   7
ENDBRANCH   5   6
ENDBRANCH   2   5
BRANCH   3  14
ATOM     14  C   UNL     1       4.871   3.741  16.612  0.00  0.00    +0.000 C 
BRANCH  14  15
ATOM     15  C   UNL     1       5.597   4.895  15.843  0.00  0.00    +0.000 C 
BRANCH  15  16
ATOM     16  N   UNL     1       6.323   4.430  14.618  0.00  0.00    +0.000 NA
ATOM     17  C   UNL     1       5.412   3.836  13.624  0.00  0.00    +0.000 C 
ATOM     18  C   UNL     1       6.155   3.256  12.418  0.00  0.00    +0.000 C 
ATOM     19  C   UNL     1       7.070   4.292  11.782  0.00  0.00    +0.000 C 
ATOM     20  C   UNL     1       8.002   4.867  12.837  0.00  0.00    +0.000 C 
ATOM     21  C   UNL     1       7.213   5.433  14.022  0.00  0.00    +0.000 C 
ENDBRANCH  15  16
BRANCH  15  22
ATOM     22  C   UNL     1       6.437   5.697  16.804  0.00  0.00    +0.000 A 
ATOM     23  C   UNL     1       7.348   5.330  17.778  0.00  0.00    +0.000 A 
ATOM     24  C   UNL     1       7.860   6.532  18.322  0.00  0.00    +0.000 A 
ATOM     25  C   UNL     1       7.227   7.553  17.656  0.00  0.00    +0.000 A 
ATOM     26  O   UNL     1       6.366   7.059  16.730  0.00  0.00    +0.000 OA
ENDBRANCH  15  22
ENDBRANCH  14  15
ENDBRANCH   3  14
TORSDOF 8
ENDMDL
MODEL 6
REMARK VINA RESULT:      -7.3      1.698      7.418
REMARK  Name = 
REMARK  8 active torsions:
REMARK  status: ('A' for Active; 'I' for Inactive)
REMARK    1  A    between atoms: C_2  and  C_3
REMARK    2  A    between atoms: C_3  and  C_4
REMARK    3  A    between atoms: C_4  and  O_5
REMARK    4  A    between atoms: O_5  and  C_6
REMARK    5  A    between atoms: N_12  and  C_13
REMARK    6  A    between atoms: C_13  and  C_14
REMARK    7  A    between atoms: C_14  and  C_15
REMARK    8  A    between atoms: C_14  and  N_20
REMARK                            x       y       z     vdW  Elec       q    Type
REMARK                         _______ _______ _______ _____ _____    ______ ____
ROOT
ATOM      1  O   UNL     1       5.389   3.512  19.528  0.00  0.00    +0.000 OA
ATOM      2  C   UNL     1       4.321   3.811  18.998  0.00  0.00    +0.000 C 
ATOM      3  N   UNL     1       4.158   3.867  17.637  0.00  0.00    +0.000 N 
ATOM      4  H   UNL     1       3.262   4.139  17.253  0.00  0.00    +0.000 HD
ENDROOT
BRANCH   2   5
ATOM      5  C   UNL     1       3.074   4.151  19.782  0.00  0.00    +0.000 C 
BRANCH   5   6
ATOM      6  C   UNL     1       2.251   5.183  19.022  0.00  0.00    +0.000 C 
BRANCH   6   7
ATOM      7  O   UNL     1       3.065   6.319  18.719  0.00  0.00    +0.000 OA
BRANCH   7   8
ATOM      8  C   UNL     1       2.412   7.525  18.784  0.00  0.00    +0.000 A 
ATOM      9  C   UNL     1       1.838   7.837  20.019  0.00  0.00    +0.000 A 
ATOM     10  C   UNL     1       1.144   9.036  20.194  0.00  0.00    +0.000 A 
ATOM     11  C   UNL     1       1.036   9.940  19.140  0.00  0.00    +0.000 A 
ATOM     12  C   UNL     1       1.626   9.647  17.913  0.00  0.00    +0.000 A 
ATOM     13  C   UNL     1       2.314   8.443  17.736  0.00  0.00    +0.000 A 
ENDBRANCH   7   8
ENDBRANCH   6   7
ENDBRANCH   5   6
ENDBRANCH   2   5
BRANCH   3  14
ATOM     14  C   UNL     1       5.253   3.609  16.703  0.00  0.00    +0.000 C 
BRANCH  14  15
ATOM     15  C   UNL     1       5.771   4.845  15.894  0.00  0.00    +0.000 C 
BRANCH  15  16
ATOM     16  N   UNL     1       6.486   4.474  14.631  0.00  0.00    +0.000 NA
ATOM     17  C   UNL     1       5.578   3.887  13.631  0.00  0.00    +0.000 C 
ATOM     18  C   UNL     1       6.316   3.401  12.381  0.00  0.00    +0.000 C 
ATOM     19  C   UNL     1       7.166   4.508  11.775  0.00  0.00    +0.000 C 
ATOM     20  C   UNL     1       8.098   5.075  12.836  0.00  0.00    +0.000 C 
ATOM     21  C   UNL     1       7.313   5.545  14.065  0.00  0.00    +0.000 C 
ENDBRANCH  15  16
BRANCH  15  22
ATOM     22  C   UNL     1       6.543   5.762  16.807  0.00  0.00    +0.000 A 
ATOM     23  C   UNL     1       7.451   5.521  17.823  0.00  0.00    +0.000 A 
ATOM     24  C   UNL     1       7.884   6.788  18.283  0.00  0.00    +0.000 A 
ATOM     25  C   UNL     1       7.211   7.719  17.530  0.00  0.00    +0.000 A 
ATOM     26  O   UNL     1       6.400   7.109  16.629  0.00  0.00    +0.000 OA
ENDBRANCH  15  22
ENDBRANCH  14  15
ENDBRANCH   3  14
TORSDOF 8
ENDMDL
MODEL 7
REMARK VINA RESULT:      -7.3      1.765      7.207
REMARK  Name = 
REMARK  8 active torsions:
REMARK  status: ('A' for Active; 'I' for Inactive)
REMARK    1  A    between atoms: C_2  and  C_3
REMARK    2  A    between atoms: C_3  and  C_4
REMARK    3  A    between atoms: C_4  and  O_5
REMARK    4  A    between atoms: O_5  and  C_6
REMARK    5  A    between atoms: N_12  and  C_13
REMARK    6  A    between atoms: C_13  and  C_14
REMARK    7  A    between atoms: C_14  and  C_15
REMARK    8  A    between atoms: C_14  and  N_20
REMARK                            x       y       z     vdW  Elec       q    Type
REMARK                         _______ _______ _______ _____ _____    ______ ____
ROOT
ATOM      1  O   UNL     1       2.984   2.263  17.644  0.00  0.00    +0.000 OA
ATOM      2  C   UNL     1       3.630   2.928  18.451  0.00  0.00    +0.000 C 
ATOM      3  N   UNL     1       4.762   3.621  18.104  0.00  0.00    +0.000 N 
ATOM      4  H   UNL     1       5.268   4.136  18.813  0.00  0.00    +0.000 HD
ENDROOT
BRANCH   2   5
ATOM      5  C   UNL     1       3.253   3.055  19.910  0.00  0.00    +0.000 C 
BRANCH   5   6
ATOM      6  C   UNL     1       2.620   4.417  20.162  0.00  0.00    +0.000 C 
BRANCH   6   7
ATOM      7  O   UNL     1       3.526   5.450  19.766  0.00  0.00    +0.000 OA
BRANCH   7   8
ATOM      8  C   UNL     1       2.923   6.599  19.316  0.00  0.00    +0.000 A 
ATOM      9  C   UNL     1       2.045   7.213  20.212  0.00  0.00    +0.000 A 
ATOM     10  C   UNL     1       1.373   8.384  19.855  0.00  0.00    +0.000 A 
ATOM     11  C   UNL     1       1.589   8.959  18.604  0.00  0.00    +0.000 A 
ATOM     12  C   UNL     1       2.482   8.366  17.715  0.00  0.00    +0.000 A 
ATOM     13  C   UNL     1       3.149   7.189  18.070  0.00  0.00    +0.000 A 
ENDBRANCH   7   8
ENDBRANCH   6   7
ENDBRANCH   5   6
ENDBRANCH   2   5
BRANCH   3  14
ATOM     14  C   UNL     1       5.314   3.597  16.751  0.00  0.00    +0.000 C 
BRANCH  14  15
ATOM     15  C   UNL     1       5.513   4.990  16.065  0.00  0.00    +0.000 C 
BRANCH  15  16
ATOM     16  N   UNL     1       5.875   4.895  14.615  0.00  0.00    +0.000 NA
ATOM     17  C   UNL     1       7.320   5.079  14.391  0.00  0.00    +0.000 C 
ATOM     18  C   UNL     1       7.687   5.096  12.905  0.00  0.00    +0.000 C 
ATOM     19  C   UNL     1       7.169   3.854  12.194  0.00  0.00    +0.000 C 
ATOM     20  C   UNL     1       5.675   3.711  12.438  0.00  0.00    +0.000 C 
ATOM     21  C   UNL     1       5.359   3.700  13.937  0.00  0.00    +0.000 C 
ENDBRANCH  15  16
BRANCH  15  22
ATOM     22  C   UNL     1       6.448   5.834  16.893  0.00  0.00    +0.000 A 
ATOM     23  C   UNL     1       6.742   7.186  16.884  0.00  0.00    +0.000 A 
ATOM     24  C   UNL     1       7.664   7.404  17.935  0.00  0.00    +0.000 A 
ATOM     25  C   UNL     1       7.882   6.176  18.513  0.00  0.00    +0.000 A 
ATOM     26  O   UNL     1       7.146   5.219  17.894  0.00  0.00    +0.000 OA
ENDBRANCH  15  22
ENDBRANCH  14  15
ENDBRANCH   3  14
TORSDOF 8
ENDMDL
MODEL 8
REMARK VINA RESULT:      -7.2      3.347      8.091
REMARK  Name = 
REMARK  8 active torsions:
REMARK  status: ('A' for Active; 'I' for Inactive)
REMARK    1  A    between atoms: C_2  and  C_3
REMARK    2  A    between atoms: C_3  and  C_4
REMARK    3  A    between atoms: C_4  and  O_5
REMARK    4  A    between atoms: O_5  and  C_6
REMARK    5  A    between atoms: N_12  and  C_13
REMARK    6  A    between atoms: C_13  and  C_14
REMARK    7  A    between atoms: C_14  and  C_15
REMARK    8  A    between atoms: C_14  and  N_20
REMARK                            x       y       z     vdW  Elec       q    Type
REMARK                         _______ _______ _______ _____ _____    ______ ____
ROOT
ATOM      1  O   UNL     1       2.313   9.147  17.408  0.00  0.00    +0.000 OA
ATOM      2  C   UNL     1       1.935   8.711  18.493  0.00  0.00    +0.000 C 
ATOM      3  N   UNL     1       2.278   7.464  18.952  0.00  0.00    +0.000 N 
ATOM      4  H   UNL     1       1.923   7.146  19.845  0.00  0.00    +0.000 HD
ENDROOT
BRANCH   2   5
ATOM      5  C   UNL     1       1.055   9.495  19.441  0.00  0.00    +0.000 C 
BRANCH   5   6
ATOM      6  C   UNL     1       0.320  10.588  18.677  0.00  0.00    +0.000 C 
BRANCH   6   7
ATOM      7  O   UNL     1      -0.689  10.002  17.850  0.00  0.00    +0.000 OA
BRANCH   7   8
ATOM      8  C   UNL     1      -1.953  10.497  18.050  0.00  0.00    +0.000 A 
ATOM      9  C   UNL     1      -2.051  11.563  18.947  0.00  0.00    +0.000 A 
ATOM     10  C   UNL     1      -3.292  12.139  19.230  0.00  0.00    +0.000 A 
ATOM     11  C   UNL     1      -4.441  11.664  18.603  0.00  0.00    +0.000 A 
ATOM     12  C   UNL     1      -4.348  10.617  17.688  0.00  0.00    +0.000 A 
ATOM     13  C   UNL     1      -3.107  10.036  17.411  0.00  0.00    +0.000 A 
ENDBRANCH   7   8
ENDBRANCH   6   7
ENDBRANCH   5   6
ENDBRANCH   2   5
BRANCH   3  14
ATOM     14  C   UNL     1       3.092   6.536  18.169  0.00  0.00    +0.000 C 
BRANCH  14  15
ATOM     15  C   UNL     1       3.844   5.429  18.982  0.00  0.00    +0.000 C 
BRANCH  15  16
ATOM     16  N   UNL     1       4.961   4.785  18.220  0.00  0.00    +0.000 NA
ATOM     17  C   UNL     1       4.645   4.641  16.788  0.00  0.00    +0.000 C 
ATOM     18  C   UNL     1       5.732   3.884  16.020  0.00  0.00    +0.000 C 
ATOM     19  C   UNL     1       7.099   4.519  16.225  0.00  0.00    +0.000 C 
ATOM     20  C   UNL     1       7.390   4.635  17.714  0.00  0.00    +0.000 C 
ATOM     21  C   UNL     1       6.276   5.398  18.436  0.00  0.00    +0.000 C 
ENDBRANCH  15  16
BRANCH  15  22
ATOM     22  C   UNL     1       2.845   4.464  19.569  0.00  0.00    +0.000 A 
ATOM     23  C   UNL     1       2.894   3.622  20.665  0.00  0.00    +0.000 A 
ATOM     24  C   UNL     1       1.626   2.997  20.748  0.00  0.00    +0.000 A 
ATOM     25  C   UNL     1       0.890   3.487  19.697  0.00  0.00    +0.000 A 
ATOM     26  O   UNL     1       1.616   4.381  18.979  0.00  0.00    +0.000 OA
ENDBRANCH  15  22
ENDBRANCH  14  15
ENDBRANCH   3  14
TORSDOF 8
ENDMDL
MODEL 9
REMARK VINA RESULT:      -7.2      4.174      6.968
REMARK  Name = 
REMARK  8 active torsions:
REMARK  status: ('A' for Active; 'I' for Inactive)
REMARK    1  A    between atoms: C_2  and  C_3
REMARK    2  A    between atoms: C_3  and  C_4
REMARK    3  A    between atoms: C_4  and  O_5
REMARK    4  A    between atoms: O_5  and  C_6
REMARK    5  A    between atoms: N_12  and  C_13
REMARK    6  A    between atoms: C_13  and  C_14
REMARK    7  A    between atoms: C_14  and  C_15
REMARK    8  A    between atoms: C_14  and  N_20
REMARK                            x       y       z     vdW  Elec       q    Type
REMARK                         _______ _______ _______ _____ _____    ______ ____
ROOT
ATOM      1  O   UNL     1       8.143   6.352  18.890  0.00  0.00    +0.000 OA
ATOM      2  C   UNL     1       7.457   7.120  18.219  0.00  0.00    +0.000 C 
ATOM      3  N   UNL     1       6.129   6.892  17.957  0.00  0.00    +0.000 N 
ATOM      4  H   UNL     1       5.615   7.547  17.380  0.00  0.00    +0.000 HD
ENDROOT
BRANCH   2   5
ATOM      5  C   UNL     1       7.995   8.394  17.608  0.00  0.00    +0.000 C 
BRANCH   5   6
ATOM      6  C   UNL     1       8.749   9.193  18.662  0.00  0.00    +0.000 C 
BRANCH   6   7
ATOM      7  O   UNL     1       8.798  10.570  18.280  0.00  0.00    +0.000 OA
BRANCH   7   8
ATOM      8  C   UNL     1       9.951  11.223  18.636  0.00  0.00    +0.000 A 
ATOM      9  C   UNL     1      10.670  11.799  17.587  0.00  0.00    +0.000 A 
ATOM     10  C   UNL     1      11.863  12.483  17.837  0.00  0.00    +0.000 A 
ATOM     11  C   UNL     1      12.333  12.611  19.141  0.00  0.00    +0.000 A 
ATOM     12  C   UNL     1      11.608  12.061  20.196  0.00  0.00    +0.000 A 
ATOM     13  C   UNL     1      10.419  11.370  19.944  0.00  0.00    +0.000 A 
ENDBRANCH   7   8
ENDBRANCH   6   7
ENDBRANCH   5   6
ENDBRANCH   2   5
BRANCH   3  14
ATOM     14  C   UNL     1       5.430   5.697  18.426  0.00  0.00    +0.000 C 
BRANCH  14  15
ATOM     15  C   UNL     1       4.408   5.063  17.424  0.00  0.00    +0.000 C 
BRANCH  15  16
ATOM     16  N   UNL     1       3.646   3.909  18.000  0.00  0.00    +0.000 NA
ATOM     17  C   UNL     1       3.981   3.674  19.416  0.00  0.00    +0.000 C 
ATOM     18  C   UNL     1       3.293   2.430  19.984  0.00  0.00    +0.000 C 
ATOM     19  C   UNL     1       1.788   2.486  19.773  0.00  0.00    +0.000 C 
ATOM     20  C   UNL     1       1.486   2.714  18.299  0.00  0.00    +0.000 C 
ATOM     21  C   UNL     1       2.196   3.967  17.778  0.00  0.00    +0.000 C 
ENDBRANCH  15  16
BRANCH  15  22
ATOM     22  C   UNL     1       5.096   4.770  16.115  0.00  0.00    +0.000 A 
ATOM     23  C   UNL     1       5.324   5.538  14.988  0.00  0.00    +0.000 A 
ATOM     24  C   UNL     1       6.073   4.732  14.097  0.00  0.00    +0.000 A 
ATOM     25  C   UNL     1       6.246   3.525  14.729  0.00  0.00    +0.000 A 
ATOM     26  O   UNL     1       5.664   3.538  15.955  0.00  0.00    +0.000 OA
ENDBRANCH  15  22
ENDBRANCH  14  15
ENDBRANCH   3  14
TORSDOF 8
ENDMDL
