MODEL 1
REMARK VINA RESULT:      -8.4      0.000      0.000
REMARK  Name = 
REMARK  4 active torsions:
REMARK  status: ('A' for Active; 'I' for Inactive)
REMARK    1  A    between atoms: C_2  and  O_3
REMARK    2  A    between atoms: C_2  and  C_4
REMARK    3  A    between atoms: C_6  and  C_8
REMARK    4  A    between atoms: N_10  and  C_11
REMARK                            x       y       z     vdW  Elec       q    Type
REMARK                         _______ _______ _______ _____ _____    ______ ____
ROOT
ATOM      1  C   UNL     1       5.861   5.064  18.361  0.00  0.00    +0.000 C 
ATOM      2  O   UNL     1       6.475   4.854  19.402  0.00  0.00    +0.000 OA
ATOM      3  N   UNL     1       4.486   5.012  18.294  0.00  0.00    +0.000 N 
ATOM      4  H   UNL     1       4.066   5.032  17.371  0.00  0.00    +0.000 HD
ENDROOT
BRANCH   3   5
ATOM      5  C   UNL     1       3.651   4.627  19.430  0.00  0.00    +0.000 C 
ATOM      6  C   UNL     1       2.197   5.128  19.260  0.00  0.00    +0.000 C 
ATOM      7  C   UNL     1       1.509   4.408  18.083  0.00  0.00    +0.000 C 
ATOM      8  C   UNL     1       1.509   2.888  18.318  0.00  0.00    +0.000 C 
ATOM      9  C   UNL     1       0.727   2.588  19.608  0.00  0.00    +0.000 C 
ATOM     10  C   UNL     1       1.393   3.294  20.802  0.00  0.00    +0.000 C 
ATOM     11  C   UNL     1       1.411   4.812  20.549  0.00  0.00    +0.000 C 
ATOM     12  C   UNL     1       2.840   2.790  20.944  0.00  0.00    +0.000 C 
ATOM     13  C   UNL     1       3.640   3.096  19.660  0.00  0.00    +0.000 C 
ATOM     14  C   UNL     1       2.954   2.384  18.477  0.00  0.00    +0.000 C 
ENDBRANCH   3   5
BRANCH   1  17
ATOM     15  C   UNL     1       6.416   4.581  15.963  0.00  0.00    +0.000 C 
ATOM     16 CL   UNL     1       5.520   3.080  15.987  0.00  0.00    +0.000 Cl
ATOM     17  C   UNL     1       6.549   5.369  17.050  0.00  0.00    +0.000 C 
ATOM     18 CL   UNL     1       7.513   6.824  17.077  0.00  0.00    +0.000 Cl
BRANCH  15  20
ATOM     19  O   UNL     1       7.991   5.653  14.467  0.00  0.00    +0.000 OA
ATOM     20  C   UNL     1       7.058   4.887  14.644  0.00  0.00    +0.000 C 
BRANCH  20  21
ATOM     21  O   UNL     1       6.502   4.224  13.599  0.00  0.00    +0.000 OA
ATOM     22  H   UNL     1       6.692   3.264  13.600  0.00  0.00    +0.000 HD
ENDBRANCH  20  21
ENDBRANCH  15  20
ENDBRANCH   1  17
TORSDOF 4
ENDMDL
MODEL 2
REMARK VINA RESULT:      -7.5      1.312      1.314
REMARK  Name = 
REMARK  4 active torsions:
REMARK  status: ('A' for Active; 'I' for Inactive)
REMARK    1  A    between atoms: C_2  and  O_3
REMARK    2  A    between atoms: C_2  and  C_4
REMARK    3  A    between atoms: C_6  and  C_8
REMARK    4  A    between atoms: N_10  and  C_11
REMARK                            x       y       z     vdW  Elec       q    Type
REMARK                         _______ _______ _______ _____ _____    ______ ____
ROOT
ATOM      1  C   UNL     1       4.936   5.867  17.314  0.00  0.00    +0.000 C 
ATOM      2  O   UNL     1       5.051   6.808  18.093  0.00  0.00    +0.000 OA
ATOM      3  N   UNL     1       4.231   4.728  17.635  0.00  0.00    +0.000 N 
ATOM      4  H   UNL     1       4.321   3.935  17.009  0.00  0.00    +0.000 HD
ENDROOT
BRANCH   3   5
ATOM      5  C   UNL     1       3.630   4.511  18.949  0.00  0.00    +0.000 C 
ATOM      6  C   UNL     1       2.163   5.005  18.991  0.00  0.00    +0.000 C 
ATOM      7  C   UNL     1       1.274   4.143  18.072  0.00  0.00    +0.000 C 
ATOM      8  C   UNL     1       1.336   2.668  18.505  0.00  0.00    +0.000 C 
ATOM      9  C   UNL     1       0.816   2.555  19.948  0.00  0.00    +0.000 C 
ATOM     10  C   UNL     1       1.687   3.405  20.889  0.00  0.00    +0.000 C 
ATOM     11  C   UNL     1       1.639   4.876  20.436  0.00  0.00    +0.000 C 
ATOM     12  C   UNL     1       3.141   2.905  20.822  0.00  0.00    +0.000 C 
ATOM     13  C   UNL     1       3.680   3.025  19.381  0.00  0.00    +0.000 C 
ATOM     14  C   UNL     1       2.791   2.171  18.456  0.00  0.00    +0.000 C 
ENDBRANCH   3   5
BRANCH   1  17
ATOM     15  C   UNL     1       6.684   5.129  15.674  0.00  0.00    +0.000 C 
ATOM     16 CL   UNL     1       7.543   4.218  16.896  0.00  0.00    +0.000 Cl
ATOM     17  C   UNL     1       5.578   5.851  15.946  0.00  0.00    +0.000 C 
ATOM     18 CL   UNL     1       4.756   6.841  14.766  0.00  0.00    +0.000 Cl
BRANCH  15  20
ATOM     19  O   UNL     1       8.282   5.713  13.950  0.00  0.00    +0.000 OA
ATOM     20  C   UNL     1       7.312   5.068  14.315  0.00  0.00    +0.000 C 
BRANCH  20  21
ATOM     21  O   UNL     1       6.699   4.206  13.466  0.00  0.00    +0.000 OA
ATOM     22  H   UNL     1       6.742   4.482  12.528  0.00  0.00    +0.000 HD
ENDBRANCH  20  21
ENDBRANCH  15  20
ENDBRANCH   1  17
TORSDOF 4
ENDMDL
MODEL 3
REMARK VINA RESULT:      -7.5      0.968      1.191
REMARK  Name = 
REMARK  4 active torsions:
REMARK  status: ('A' for Active; 'I' for Inactive)
REMARK    1  A    between atoms: C_2  and  O_3
REMARK    2  A    between atoms: C_2  and  C_4
REMARK    3  A    between atoms: C_6  and  C_8
REMARK    4  A    between atoms: N_10  and  C_11
REMARK                            x       y       z     vdW  Elec       q    Type
REMARK                         _______ _______ _______ _____ _____    ______ ____
ROOT
ATOM      1  C   UNL     1       5.841   4.791  18.682  0.00  0.00    +0.000 C 
ATOM      2  O   UNL     1       6.234   5.399  19.673  0.00  0.00    +0.000 OA
ATOM      3  N   UNL     1       4.625   4.146  18.649  0.00  0.00    +0.000 N 
ATOM      4  H   UNL     1       4.446   3.532  17.861  0.00  0.00    +0.000 HD
ENDROOT
BRANCH   3   5
ATOM      5  C   UNL     1       3.739   4.064  19.808  0.00  0.00    +0.000 C 
ATOM      6  C   UNL     1       2.448   4.892  19.595  0.00  0.00    +0.000 C 
ATOM      7  C   UNL     1       1.587   4.276  18.474  0.00  0.00    +0.000 C 
ATOM      8  C   UNL     1       1.219   2.825  18.824  0.00  0.00    +0.000 C 
ATOM      9  C   UNL     1       0.407   2.823  20.131  0.00  0.00    +0.000 C 
ATOM     10  C   UNL     1       1.244   3.431  21.270  0.00  0.00    +0.000 C 
ATOM     11  C   UNL     1       1.629   4.876  20.902  0.00  0.00    +0.000 C 
ATOM     12  C   UNL     1       2.526   2.600  21.455  0.00  0.00    +0.000 C 
ATOM     13  C   UNL     1       3.357   2.604  20.154  0.00  0.00    +0.000 C 
ATOM     14  C   UNL     1       2.499   1.996  19.027  0.00  0.00    +0.000 C 
ENDBRANCH   3   5
BRANCH   1  17
ATOM     15  C   UNL     1       6.118   4.776  16.190  0.00  0.00    +0.000 C 
ATOM     16 CL   UNL     1       4.400   4.977  15.929  0.00  0.00    +0.000 Cl
ATOM     17  C   UNL     1       6.662   4.665  17.419  0.00  0.00    +0.000 C 
ATOM     18 CL   UNL     1       8.360   4.373  17.702  0.00  0.00    +0.000 Cl
BRANCH  15  20
ATOM     19  O   UNL     1       6.801   3.841  14.062  0.00  0.00    +0.000 OA
ATOM     20  C   UNL     1       6.920   4.693  14.926  0.00  0.00    +0.000 C 
BRANCH  20  21
ATOM     21  O   UNL     1       7.842   5.680  14.798  0.00  0.00    +0.000 OA
ATOM     22  H   UNL     1       8.679   5.383  14.388  0.00  0.00    +0.000 HD
ENDBRANCH  20  21
ENDBRANCH  15  20
ENDBRANCH   1  17
TORSDOF 4
ENDMDL
MODEL 4
REMARK VINA RESULT:      -7.4      1.879      3.163
REMARK  Name = 
REMARK  4 active torsions:
REMARK  status: ('A' for Active; 'I' for Inactive)
REMARK    1  A    between atoms: C_2  and  O_3
REMARK    2  A    between atoms: C_2  and  C_4
REMARK    3  A    between atoms: C_6  and  C_8
REMARK    4  A    between atoms: N_10  and  C_11
REMARK                            x       y       z     vdW  Elec       q    Type
REMARK                         _______ _______ _______ _____ _____    ______ ____
ROOT
ATOM      1  C   UNL     1       5.497   4.354  17.242  0.00  0.00    +0.000 C 
ATOM      2  O   UNL     1       5.309   3.794  16.167  0.00  0.00    +0.000 OA
ATOM      3  N   UNL     1       4.617   4.239  18.295  0.00  0.00    +0.000 N 
ATOM      4  H   UNL     1       4.756   4.859  19.086  0.00  0.00    +0.000 HD
ENDROOT
BRANCH   3   5
ATOM      5  C   UNL     1       3.354   3.511  18.197  0.00  0.00    +0.000 C 
ATOM      6  C   UNL     1       3.256   2.398  19.268  0.00  0.00    +0.000 C 
ATOM      7  C   UNL     1       3.179   3.009  20.681  0.00  0.00    +0.000 C 
ATOM      8  C   UNL     1       1.960   3.941  20.791  0.00  0.00    +0.000 C 
ATOM      9  C   UNL     1       0.685   3.118  20.536  0.00  0.00    +0.000 C 
ATOM     10  C   UNL     1       0.734   2.497  19.129  0.00  0.00    +0.000 C 
ATOM     11  C   UNL     1       1.969   1.584  19.018  0.00  0.00    +0.000 C 
ATOM     12  C   UNL     1       0.843   3.620  18.083  0.00  0.00    +0.000 C 
ATOM     13  C   UNL     1       2.125   4.447  18.320  0.00  0.00    +0.000 C 
ATOM     14  C   UNL     1       2.058   5.055  19.735  0.00  0.00    +0.000 C 
ENDBRANCH   3   5
BRANCH   1  17
ATOM     15  C   UNL     1       6.598   6.588  17.536  0.00  0.00    +0.000 C 
ATOM     16 CL   UNL     1       5.115   7.443  17.175  0.00  0.00    +0.000 Cl
ATOM     17  C   UNL     1       6.691   5.243  17.506  0.00  0.00    +0.000 C 
ATOM     18 CL   UNL     1       8.179   4.371  17.773  0.00  0.00    +0.000 Cl
BRANCH  15  20
ATOM     19  O   UNL     1       8.112   8.442  17.165  0.00  0.00    +0.000 OA
ATOM     20  C   UNL     1       7.760   7.485  17.836  0.00  0.00    +0.000 C 
BRANCH  20  21
ATOM     21  O   UNL     1       8.437   7.146  18.962  0.00  0.00    +0.000 OA
ATOM     22  H   UNL     1       7.862   7.036  19.746  0.00  0.00    +0.000 HD
ENDBRANCH  20  21
ENDBRANCH  15  20
ENDBRANCH   1  17
TORSDOF 4
ENDMDL
MODEL 5
REMARK VINA RESULT:      -7.1      0.726      1.721
REMARK  Name = 
REMARK  4 active torsions:
REMARK  status: ('A' for Active; 'I' for Inactive)
REMARK    1  A    between atoms: C_2  and  O_3
REMARK    2  A    between atoms: C_2  and  C_4
REMARK    3  A    between atoms: C_6  and  C_8
REMARK    4  A    between atoms: N_10  and  C_11
REMARK                            x       y       z     vdW  Elec       q    Type
REMARK                         _______ _______ _______ _____ _____    ______ ____
ROOT
ATOM      1  C   UNL     1       5.668   4.267  17.627  0.00  0.00    +0.000 C 
ATOM      2  O   UNL     1       6.478   4.310  18.548  0.00  0.00    +0.000 OA
ATOM      3  N   UNL     1       4.308   4.259  17.843  0.00  0.00    +0.000 N 
ATOM      4  H   UNL     1       3.713   4.055  17.047  0.00  0.00    +0.000 HD
ENDROOT
BRANCH   3   5
ATOM      5  C   UNL     1       3.717   4.222  19.179  0.00  0.00    +0.000 C 
ATOM      6  C   UNL     1       2.370   4.982  19.225  0.00  0.00    +0.000 C 
ATOM      7  C   UNL     1       1.309   4.258  18.372  0.00  0.00    +0.000 C 
ATOM      8  C   UNL     1       1.109   2.820  18.882  0.00  0.00    +0.000 C 
ATOM      9  C   UNL     1       0.621   2.877  20.339  0.00  0.00    +0.000 C 
ATOM     10  C   UNL     1       1.663   3.594  21.215  0.00  0.00    +0.000 C 
ATOM     11  C   UNL     1       1.875   5.024  20.685  0.00  0.00    +0.000 C 
ATOM     12  C   UNL     1       2.996   2.828  21.145  0.00  0.00    +0.000 C 
ATOM     13  C   UNL     1       3.504   2.775  19.688  0.00  0.00    +0.000 C 
ATOM     14  C   UNL     1       2.445   2.058  18.828  0.00  0.00    +0.000 C 
ENDBRANCH   3   5
BRANCH   1  17
ATOM     15  C   UNL     1       6.833   5.137  15.583  0.00  0.00    +0.000 C 
ATOM     16 CL   UNL     1       7.324   6.602  16.403  0.00  0.00    +0.000 Cl
ATOM     17  C   UNL     1       6.081   4.187  16.175  0.00  0.00    +0.000 C 
ATOM     18 CL   UNL     1       5.502   2.760  15.351  0.00  0.00    +0.000 Cl
BRANCH  15  20
ATOM     19  O   UNL     1       6.736   4.423  13.271  0.00  0.00    +0.000 OA
ATOM     20  C   UNL     1       7.286   5.057  14.157  0.00  0.00    +0.000 C 
BRANCH  20  21
ATOM     21  O   UNL     1       8.409   5.772  13.898  0.00  0.00    +0.000 OA
ATOM     22  H   UNL     1       8.237   6.715  13.704  0.00  0.00    +0.000 HD
ENDBRANCH  20  21
ENDBRANCH  15  20
ENDBRANCH   1  17
TORSDOF 4
ENDMDL
MODEL 6
REMARK VINA RESULT:      -7.0      4.555      5.799
REMARK  Name = 
REMARK  4 active torsions:
REMARK  status: ('A' for Active; 'I' for Inactive)
REMARK    1  A    between atoms: C_2  and  O_3
REMARK    2  A    between atoms: C_2  and  C_4
REMARK    3  A    between atoms: C_6  and  C_8
REMARK    4  A    between atoms: N_10  and  C_11
REMARK                            x       y       z     vdW  Elec       q    Type
REMARK                         _______ _______ _______ _____ _____    ______ ____
ROOT
ATOM      1  C   UNL     1       1.870   7.483  19.850  0.00  0.00    +0.000 C 
ATOM      2  O   UNL     1       1.637   7.293  21.039  0.00  0.00    +0.000 OA
ATOM      3  N   UNL     1       2.430   6.515  19.045  0.00  0.00    +0.000 N 
ATOM      4  H   UNL     1       2.743   6.801  18.124  0.00  0.00    +0.000 HD
ENDROOT
BRANCH   3   5
ATOM      5  C   UNL     1       2.863   5.215  19.554  0.00  0.00    +0.000 C 
ATOM      6  C   UNL     1       1.722   4.173  19.491  0.00  0.00    +0.000 C 
ATOM      7  C   UNL     1       1.358   3.853  18.028  0.00  0.00    +0.000 C 
ATOM      8  C   UNL     1       2.589   3.316  17.279  0.00  0.00    +0.000 C 
ATOM      9  C   UNL     1       3.060   2.024  17.967  0.00  0.00    +0.000 C 
ATOM     10  C   UNL     1       3.433   2.313  19.432  0.00  0.00    +0.000 C 
ATOM     11  C   UNL     1       2.202   2.872  20.168  0.00  0.00    +0.000 C 
ATOM     12  C   UNL     1       4.560   3.360  19.469  0.00  0.00    +0.000 C 
ATOM     13  C   UNL     1       4.096   4.668  18.792  0.00  0.00    +0.000 C 
ATOM     14  C   UNL     1       3.724   4.354  17.330  0.00  0.00    +0.000 C 
ENDBRANCH   3   5
BRANCH   1  17
ATOM     15  C   UNL     1       0.767   9.729  19.678  0.00  0.00    +0.000 C 
ATOM     16 CL   UNL     1      -0.152   9.466  21.143  0.00  0.00    +0.000 Cl
ATOM     17  C   UNL     1       1.597   8.801  19.161  0.00  0.00    +0.000 C 
ATOM     18 CL   UNL     1       2.454   9.003  17.653  0.00  0.00    +0.000 Cl
BRANCH  15  20
ATOM     19  O   UNL     1       0.995  12.122  19.380  0.00  0.00    +0.000 OA
ATOM     20  C   UNL     1       0.514  11.057  19.031  0.00  0.00    +0.000 C 
BRANCH  20  21
ATOM     21  O   UNL     1      -0.335  10.997  17.974  0.00  0.00    +0.000 OA
ATOM     22  H   UNL     1      -0.597  11.875  17.632  0.00  0.00    +0.000 HD
ENDBRANCH  20  21
ENDBRANCH  15  20
ENDBRANCH   1  17
TORSDOF 4
ENDMDL
MODEL 7
REMARK VINA RESULT:      -7.0      1.558      1.931
REMARK  Name = 
REMARK  4 active torsions:
REMARK  status: ('A' for Active; 'I' for Inactive)
REMARK    1  A    between atoms: C_2  and  O_3
REMARK    2  A    between atoms: C_2  and  C_4
REMARK    3  A    between atoms: C_6  and  C_8
REMARK    4  A    between atoms: N_10  and  C_11
REMARK                            x       y       z     vdW  Elec       q    Type
REMARK                         _______ _______ _______ _____ _____    ______ ____
ROOT
ATOM      1  C   UNL     1       4.168   6.088  17.170  0.00  0.00    +0.000 C 
ATOM      2  O   UNL     1       4.115   7.098  17.863  0.00  0.00    +0.000 OA
ATOM      3  N   UNL     1       3.394   4.978  17.425  0.00  0.00    +0.000 N 
ATOM      4  H   UNL     1       3.613   4.130  16.913  0.00  0.00    +0.000 HD
ENDROOT
BRANCH   3   5
ATOM      5  C   UNL     1       2.506   4.880  18.582  0.00  0.00    +0.000 C 
ATOM      6  C   UNL     1       1.512   3.703  18.436  0.00  0.00    +0.000 C 
ATOM      7  C   UNL     1       2.258   2.354  18.474  0.00  0.00    +0.000 C 
ATOM      8  C   UNL     1       3.034   2.215  19.795  0.00  0.00    +0.000 C 
ATOM      9  C   UNL     1       2.034   2.262  20.963  0.00  0.00    +0.000 C 
ATOM     10  C   UNL     1       1.275   3.601  20.950  0.00  0.00    +0.000 C 
ATOM     11  C   UNL     1       0.519   3.744  19.617  0.00  0.00    +0.000 C 
ATOM     12  C   UNL     1       2.284   4.756  21.084  0.00  0.00    +0.000 C 
ATOM     13  C   UNL     1       3.286   4.727  19.911  0.00  0.00    +0.000 C 
ATOM     14  C   UNL     1       4.031   3.378  19.939  0.00  0.00    +0.000 C 
ENDBRANCH   3   5
BRANCH   1  17
ATOM     15  C   UNL     1       6.106   5.046  15.966  0.00  0.00    +0.000 C 
ATOM     16 CL   UNL     1       6.483   4.012  17.326  0.00  0.00    +0.000 Cl
ATOM     17  C   UNL     1       5.106   5.950  15.992  0.00  0.00    +0.000 C 
ATOM     18 CL   UNL     1       4.767   7.055  14.683  0.00  0.00    +0.000 Cl
BRANCH  15  20
ATOM     19  O   UNL     1       7.951   5.598  14.497  0.00  0.00    +0.000 OA
ATOM     20  C   UNL     1       7.021   4.866  14.792  0.00  0.00    +0.000 C 
BRANCH  20  21
ATOM     21  O   UNL     1       6.731   3.778  14.035  0.00  0.00    +0.000 OA
ATOM     22  H   UNL     1       7.423   3.565  13.377  0.00  0.00    +0.000 HD
ENDBRANCH  20  21
ENDBRANCH  15  20
ENDBRANCH   1  17
TORSDOF 4
ENDMDL
MODEL 8
REMARK VINA RESULT:      -6.9      2.019      3.132
REMARK  Name = 
REMARK  4 active torsions:
REMARK  status: ('A' for Active; 'I' for Inactive)
REMARK    1  A    between atoms: C_2  and  O_3
REMARK    2  A    between atoms: C_2  and  C_4
REMARK    3  A    between atoms: C_6  and  C_8
REMARK    4  A    between atoms: N_10  and  C_11
REMARK                            x       y       z     vdW  Elec       q    Type
REMARK                         _______ _______ _______ _____ _____    ______ ____
ROOT
ATOM      1  C   UNL     1       4.696   4.769  17.278  0.00  0.00    +0.000 C 
ATOM      2  O   UNL     1       4.712   3.754  16.589  0.00  0.00    +0.000 OA
ATOM      3  N   UNL     1       3.751   4.978  18.258  0.00  0.00    +0.000 N 
ATOM      4  H   UNL     1       3.704   5.905  18.667  0.00  0.00    +0.000 HD
ENDROOT
BRANCH   3   5
ATOM      5  C   UNL     1       2.648   4.053  18.506  0.00  0.00    +0.000 C 
ATOM      6  C   UNL     1       3.156   2.700  19.060  0.00  0.00    +0.000 C 
ATOM      7  C   UNL     1       3.760   2.882  20.467  0.00  0.00    +0.000 C 
ATOM      8  C   UNL     1       2.710   3.471  21.424  0.00  0.00    +0.000 C 
ATOM      9  C   UNL     1       1.524   2.496  21.516  0.00  0.00    +0.000 C 
ATOM     10  C   UNL     1       0.898   2.297  20.124  0.00  0.00    +0.000 C 
ATOM     11  C   UNL     1       1.961   1.729  19.166  0.00  0.00    +0.000 C 
ATOM     12  C   UNL     1       0.412   3.655  19.589  0.00  0.00    +0.000 C 
ATOM     13  C   UNL     1       1.596   4.640  19.480  0.00  0.00    +0.000 C 
ATOM     14  C   UNL     1       2.210   4.821  20.882  0.00  0.00    +0.000 C 
ENDBRANCH   3   5
BRANCH   1  17
ATOM     15  C   UNL     1       6.652   6.161  18.005  0.00  0.00    +0.000 C 
ATOM     16 CL   UNL     1       6.794   5.294  19.518  0.00  0.00    +0.000 Cl
ATOM     17  C   UNL     1       5.687   5.897  17.101  0.00  0.00    +0.000 C 
ATOM     18 CL   UNL     1       5.469   6.807  15.627  0.00  0.00    +0.000 Cl
BRANCH  15  20
ATOM     19  O   UNL     1       7.775   7.970  16.851  0.00  0.00    +0.000 OA
ATOM     20  C   UNL     1       7.668   7.248  17.829  0.00  0.00    +0.000 C 
BRANCH  20  21
ATOM     21  O   UNL     1       8.510   7.386  18.884  0.00  0.00    +0.000 OA
ATOM     22  H   UNL     1       8.715   8.318  19.101  0.00  0.00    +0.000 HD
ENDBRANCH  20  21
ENDBRANCH  15  20
ENDBRANCH   1  17
TORSDOF 4
ENDMDL
MODEL 9
REMARK VINA RESULT:      -6.9      1.888      2.742
REMARK  Name = 
REMARK  4 active torsions:
REMARK  status: ('A' for Active; 'I' for Inactive)
REMARK    1  A    between atoms: C_2  and  O_3
REMARK    2  A    between atoms: C_2  and  C_4
REMARK    3  A    between atoms: C_6  and  C_8
REMARK    4  A    between atoms: N_10  and  C_11
REMARK                            x       y       z     vdW  Elec       q    Type
REMARK                         _______ _______ _______ _____ _____    ______ ____
ROOT
ATOM      1  C   UNL     1       3.530   6.186  17.523  0.00  0.00    +0.000 C 
ATOM      2  O   UNL     1       2.824   7.061  18.014  0.00  0.00    +0.000 OA
ATOM      3  N   UNL     1       3.210   4.849  17.606  0.00  0.00    +0.000 N 
ATOM      4  H   UNL     1       3.921   4.183  17.324  0.00  0.00    +0.000 HD
ENDROOT
BRANCH   3   5
ATOM      5  C   UNL     1       2.051   4.356  18.347  0.00  0.00    +0.000 C 
ATOM      6  C   UNL     1       1.993   2.809  18.346  0.00  0.00    +0.000 C 
ATOM      7  C   UNL     1       3.173   2.221  19.145  0.00  0.00    +0.000 C 
ATOM      8  C   UNL     1       3.144   2.739  20.593  0.00  0.00    +0.000 C 
ATOM      9  C   UNL     1       1.828   2.292  21.251  0.00  0.00    +0.000 C 
ATOM     10  C   UNL     1       0.630   2.867  20.475  0.00  0.00    +0.000 C 
ATOM     11  C   UNL     1       0.679   2.363  19.021  0.00  0.00    +0.000 C 
ATOM     12  C   UNL     1       0.716   4.403  20.479  0.00  0.00    +0.000 C 
ATOM     13  C   UNL     1       2.028   4.866  19.809  0.00  0.00    +0.000 C 
ATOM     14  C   UNL     1       3.212   4.276  20.599  0.00  0.00    +0.000 C 
ENDBRANCH   3   5
BRANCH   1  17
ATOM     15  C   UNL     1       6.032   6.202  17.352  0.00  0.00    +0.000 C 
ATOM     16 CL   UNL     1       6.216   5.557  18.968  0.00  0.00    +0.000 Cl
ATOM     17  C   UNL     1       4.830   6.484  16.811  0.00  0.00    +0.000 C 
ATOM     18 CL   UNL     1       4.624   7.212  15.237  0.00  0.00    +0.000 Cl
BRANCH  15  20
ATOM     19  O   UNL     1       8.061   7.414  16.820  0.00  0.00    +0.000 OA
ATOM     20  C   UNL     1       7.330   6.453  16.645  0.00  0.00    +0.000 C 
BRANCH  20  21
ATOM     21  O   UNL     1       7.659   5.491  15.747  0.00  0.00    +0.000 OA
ATOM     22  H   UNL     1       7.896   4.635  16.159  0.00  0.00    +0.000 HD
ENDBRANCH  20  21
ENDBRANCH  15  20
ENDBRANCH   1  17
TORSDOF 4
ENDMDL
