MODEL 1
REMARK VINA RESULT:      -6.5      0.000      0.000
REMARK  Name = 
REMARK  11 active torsions:
REMARK  status: ('A' for Active; 'I' for Inactive)
REMARK    1  A    between atoms: C_1  and  C_2
REMARK    2  A    between atoms: C_2  and  O_3
REMARK    3  A    between atoms: O_3  and  C_4
REMARK    4  A    between atoms: C_4  and  C_6
REMARK    5  A    between atoms: N_11  and  C_12
REMARK    6  A    between atoms: C_12  and  C_13
REMARK    7  A    between atoms: N_15  and  C_16
REMARK    8  A    between atoms: N_15  and  C_18
REMARK    9  A    between atoms: C_16  and  C_17
REMARK   10  A    between atoms: C_18  and  C_19
REMARK   11  A    between atoms: C_23  and  C_24
REMARK                            x       y       z     vdW  Elec       q    Type
REMARK                         _______ _______ _______ _____ _____    ______ ____
ROOT
ATOM      1  C   UNL     1       1.046   9.380  20.268  0.00  0.00    +0.000 A 
ATOM      2  S   UNL     1       0.868   8.097  21.392  0.00  0.00    +0.000 S 
ATOM      3  C   UNL     1       1.664   6.990  20.386  0.00  0.00    +0.000 A 
ATOM      4  N   UNL     1       1.838   5.701  20.779  0.00  0.00    +0.000 NA
ATOM      5  C   UNL     1       2.485   4.972  19.929  0.00  0.00    +0.000 A 
ATOM      6  N   UNL     1       2.996   5.398  18.719  0.00  0.00    +0.000 N 
ATOM      7  C   UNL     1       2.806   6.703  18.269  0.00  0.00    +0.000 A 
ATOM      8  O   UNL     1       3.264   7.113  17.202  0.00  0.00    +0.000 OA
ATOM      9  C   UNL     1       2.075   7.561  19.202  0.00  0.00    +0.000 A 
ATOM     10  C   UNL     1       1.708   8.960  19.112  0.00  0.00    +0.000 A 
ATOM     11  C   UNL     1       2.005   9.867  17.956  0.00  0.00    +0.000 C 
ENDROOT
BRANCH   1  12
ATOM     12  C   UNL     1       0.584  10.727  20.593  0.00  0.00    +0.000 C 
ATOM     13  O   UNL     1       1.262  11.594  21.132  0.00  0.00    +0.000 OA
BRANCH  12  14
ATOM     14  O   UNL     1      -0.747  10.873  20.317  0.00  0.00    +0.000 OA
BRANCH  14  16
ATOM     15  C   UNL     1      -1.800  10.450  18.218  0.00  0.00    +0.000 C 
ATOM     16  C   UNL     1      -1.060  11.478  19.057  0.00  0.00    +0.000 C 
ENDBRANCH  14  16
ENDBRANCH  12  14
ENDBRANCH   1  12
BRANCH   6  17
ATOM     17  C   UNL     1       3.782   4.481  17.900  0.00  0.00    +0.000 C 
BRANCH  17  18
ATOM     18  C   UNL     1       5.248   4.382  18.352  0.00  0.00    +0.000 C 
ATOM     19  O   UNL     1       5.533   3.962  19.476  0.00  0.00    +0.000 OA
ATOM     20  N   UNL     1       6.232   4.836  17.461  0.00  0.00    +0.000 N 
BRANCH  20  21
ATOM     21  C   UNL     1       5.963   5.471  16.162  0.00  0.00    +0.000 C 
ATOM     22  C   UNL     1       6.283   4.598  14.958  0.00  0.00    +0.000 C 
ENDBRANCH  20  21
BRANCH  20  23
ATOM     23  C   UNL     1       7.622   4.844  17.935  0.00  0.00    +0.000 C 
ATOM     24  C   UNL     1       7.967   6.064  18.775  0.00  0.00    +0.000 C 
ENDBRANCH  20  23
ENDBRANCH  17  18
ENDBRANCH   6  17
TORSDOF 7
ENDMDL
MODEL 2
REMARK VINA RESULT:      -6.2      0.994      1.273
REMARK  Name = 
REMARK  11 active torsions:
REMARK  status: ('A' for Active; 'I' for Inactive)
REMARK    1  A    between atoms: C_1  and  C_2
REMARK    2  A    between atoms: C_2  and  O_3
REMARK    3  A    between atoms: O_3  and  C_4
REMARK    4  A    between atoms: C_4  and  C_6
REMARK    5  A    between atoms: N_11  and  C_12
REMARK    6  A    between atoms: C_12  and  C_13
REMARK    7  A    between atoms: N_15  and  C_16
REMARK    8  A    between atoms: N_15  and  C_18
REMARK    9  A    between atoms: C_16  and  C_17
REMARK   10  A    between atoms: C_18  and  C_19
REMARK   11  A    between atoms: C_23  and  C_24
REMARK                            x       y       z     vdW  Elec       q    Type
REMARK                         _______ _______ _______ _____ _____    ______ ____
ROOT
ATOM      1  C   UNL     1       1.061   9.265  20.183  0.00  0.00    +0.000 A 
ATOM      2  S   UNL     1       0.867   8.118  21.441  0.00  0.00    +0.000 S 
ATOM      3  C   UNL     1       1.653   6.897  20.568  0.00  0.00    +0.000 A 
ATOM      4  N   UNL     1       1.812   5.658  21.101  0.00  0.00    +0.000 NA
ATOM      5  C   UNL     1       2.453   4.833  20.340  0.00  0.00    +0.000 A 
ATOM      6  N   UNL     1       2.972   5.116  19.091  0.00  0.00    +0.000 N 
ATOM      7  C   UNL     1       2.797   6.366  18.499  0.00  0.00    +0.000 A 
ATOM      8  O   UNL     1       3.262   6.649  17.395  0.00  0.00    +0.000 OA
ATOM      9  C   UNL     1       2.073   7.329  19.328  0.00  0.00    +0.000 A 
ATOM     10  C   UNL     1       1.721   8.713  19.083  0.00  0.00    +0.000 A 
ATOM     11  C   UNL     1       2.032   9.483  17.834  0.00  0.00    +0.000 C 
ENDROOT
BRANCH   1  12
ATOM     12  C   UNL     1       0.613  10.645  20.355  0.00  0.00    +0.000 C 
ATOM     13  O   UNL     1       1.336  11.633  20.300  0.00  0.00    +0.000 OA
BRANCH  12  14
ATOM     14  O   UNL     1      -0.709  10.696  20.695  0.00  0.00    +0.000 OA
BRANCH  14  16
ATOM     15  C   UNL     1      -1.160  10.934  23.026  0.00  0.00    +0.000 C 
ATOM     16  C   UNL     1      -1.059  11.660  21.695  0.00  0.00    +0.000 C 
ENDBRANCH  14  16
ENDBRANCH  12  14
ENDBRANCH   1  12
BRANCH   6  17
ATOM     17  C   UNL     1       3.750   4.105  18.382  0.00  0.00    +0.000 C 
BRANCH  17  18
ATOM     18  C   UNL     1       5.262   4.379  18.421  0.00  0.00    +0.000 C 
ATOM     19  O   UNL     1       5.840   4.565  19.495  0.00  0.00    +0.000 OA
ATOM     20  N   UNL     1       5.938   4.459  17.194  0.00  0.00    +0.000 N 
BRANCH  20  21
ATOM     21  C   UNL     1       5.295   4.380  15.874  0.00  0.00    +0.000 C 
ATOM     22  C   UNL     1       6.245   4.050  14.732  0.00  0.00    +0.000 C 
ENDBRANCH  20  21
BRANCH  20  23
ATOM     23  C   UNL     1       7.359   4.828  17.227  0.00  0.00    +0.000 C 
ATOM     24  C   UNL     1       7.591   6.321  17.401  0.00  0.00    +0.000 C 
ENDBRANCH  20  23
ENDBRANCH  17  18
ENDBRANCH   6  17
TORSDOF 7
ENDMDL
MODEL 3
REMARK VINA RESULT:      -6.2      2.812      7.645
REMARK  Name = 
REMARK  11 active torsions:
REMARK  status: ('A' for Active; 'I' for Inactive)
REMARK    1  A    between atoms: C_1  and  C_2
REMARK    2  A    between atoms: C_2  and  O_3
REMARK    3  A    between atoms: O_3  and  C_4
REMARK    4  A    between atoms: C_4  and  C_6
REMARK    5  A    between atoms: N_11  and  C_12
REMARK    6  A    between atoms: C_12  and  C_13
REMARK    7  A    between atoms: N_15  and  C_16
REMARK    8  A    between atoms: N_15  and  C_18
REMARK    9  A    between atoms: C_16  and  C_17
REMARK   10  A    between atoms: C_18  and  C_19
REMARK   11  A    between atoms: C_23  and  C_24
REMARK                            x       y       z     vdW  Elec       q    Type
REMARK                         _______ _______ _______ _____ _____    ______ ____
ROOT
ATOM      1  C   UNL     1       3.613   5.235  18.697  0.00  0.00    +0.000 A 
ATOM      2  S   UNL     1       3.811   6.382  17.439  0.00  0.00    +0.000 S 
ATOM      3  C   UNL     1       2.824   7.525  18.207  0.00  0.00    +0.000 A 
ATOM      4  N   UNL     1       2.589   8.734  17.634  0.00  0.00    +0.000 NA
ATOM      5  C   UNL     1       1.843   9.519  18.340  0.00  0.00    +0.000 A 
ATOM      6  N   UNL     1       1.306   9.230  19.579  0.00  0.00    +0.000 N 
ATOM      7  C   UNL     1       1.497   7.987  20.181  0.00  0.00    +0.000 A 
ATOM      8  O   UNL     1       1.043   7.710  21.291  0.00  0.00    +0.000 OA
ATOM      9  C   UNL     1       2.335   7.068  19.412  0.00  0.00    +0.000 A 
ATOM     10  C   UNL     1       2.779   5.720  19.707  0.00  0.00    +0.000 A 
ATOM     11  C   UNL     1       2.427   4.935  20.935  0.00  0.00    +0.000 C 
ENDROOT
BRANCH   1  12
ATOM     12  C   UNL     1       4.318   3.956  18.659  0.00  0.00    +0.000 C 
ATOM     13  O   UNL     1       5.361   3.707  19.254  0.00  0.00    +0.000 OA
BRANCH  12  14
ATOM     14  O   UNL     1       3.724   3.091  17.784  0.00  0.00    +0.000 OA
BRANCH  14  16
ATOM     15  C   UNL     1       1.614   2.224  18.482  0.00  0.00    +0.000 C 
ATOM     16  C   UNL     1       3.102   1.940  18.368  0.00  0.00    +0.000 C 
ENDBRANCH  14  16
ENDBRANCH  12  14
ENDBRANCH   1  12
BRANCH   6  17
ATOM     17  C   UNL     1       0.551  10.250  20.299  0.00  0.00    +0.000 C 
BRANCH  17  18
ATOM     18  C   UNL     1      -0.156  11.244  19.362  0.00  0.00    +0.000 C 
ATOM     19  O   UNL     1      -1.182  10.918  18.759  0.00  0.00    +0.000 OA
ATOM     20  N   UNL     1       0.440  12.501  19.184  0.00  0.00    +0.000 N 
BRANCH  20  21
ATOM     21  C   UNL     1       1.727  12.912  19.762  0.00  0.00    +0.000 C 
ATOM     22  C   UNL     1       2.790  13.276  18.736  0.00  0.00    +0.000 C 
ENDBRANCH  20  21
BRANCH  20  23
ATOM     23  C   UNL     1      -0.175  13.408  18.206  0.00  0.00    +0.000 C 
ATOM     24  C   UNL     1      -0.451  14.798  18.761  0.00  0.00    +0.000 C 
ENDBRANCH  20  23
ENDBRANCH  17  18
ENDBRANCH   6  17
TORSDOF 7
ENDMDL
MODEL 4
REMARK VINA RESULT:      -6.2      2.836      8.069
REMARK  Name = 
REMARK  11 active torsions:
REMARK  status: ('A' for Active; 'I' for Inactive)
REMARK    1  A    between atoms: C_1  and  C_2
REMARK    2  A    between atoms: C_2  and  O_3
REMARK    3  A    between atoms: O_3  and  C_4
REMARK    4  A    between atoms: C_4  and  C_6
REMARK    5  A    between atoms: N_11  and  C_12
REMARK    6  A    between atoms: C_12  and  C_13
REMARK    7  A    between atoms: N_15  and  C_16
REMARK    8  A    between atoms: N_15  and  C_18
REMARK    9  A    between atoms: C_16  and  C_17
REMARK   10  A    between atoms: C_18  and  C_19
REMARK   11  A    between atoms: C_23  and  C_24
REMARK                            x       y       z     vdW  Elec       q    Type
REMARK                         _______ _______ _______ _____ _____    ______ ____
ROOT
ATOM      1  C   UNL     1       3.587   5.217  18.725  0.00  0.00    +0.000 A 
ATOM      2  S   UNL     1       3.834   6.293  17.413  0.00  0.00    +0.000 S 
ATOM      3  C   UNL     1       2.872   7.501  18.111  0.00  0.00    +0.000 A 
ATOM      4  N   UNL     1       2.680   8.686  17.474  0.00  0.00    +0.000 NA
ATOM      5  C   UNL     1       1.949   9.527  18.130  0.00  0.00    +0.000 A 
ATOM      6  N   UNL     1       1.390   9.317  19.375  0.00  0.00    +0.000 N 
ATOM      7  C   UNL     1       1.537   8.101  20.042  0.00  0.00    +0.000 A 
ATOM      8  O   UNL     1       1.062   7.893  21.159  0.00  0.00    +0.000 OA
ATOM      9  C   UNL     1       2.356   7.120  19.330  0.00  0.00    +0.000 A 
ATOM     10  C   UNL     1       2.757   5.777  19.698  0.00  0.00    +0.000 A 
ATOM     11  C   UNL     1       2.368   5.065  20.959  0.00  0.00    +0.000 C 
ENDROOT
BRANCH   1  12
ATOM     12  C   UNL     1       4.255   3.918  18.760  0.00  0.00    +0.000 C 
ATOM     13  O   UNL     1       5.235   3.647  19.444  0.00  0.00    +0.000 OA
BRANCH  12  14
ATOM     14  O   UNL     1       3.713   3.059  17.846  0.00  0.00    +0.000 OA
BRANCH  14  16
ATOM     15  C   UNL     1       1.875   2.016  18.954  0.00  0.00    +0.000 C 
ATOM     16  C   UNL     1       3.258   1.803  18.362  0.00  0.00    +0.000 C 
ENDBRANCH  14  16
ENDBRANCH  12  14
ENDBRANCH   1  12
BRANCH   6  17
ATOM     17  C   UNL     1       0.657  10.393  20.033  0.00  0.00    +0.000 C 
BRANCH  17  18
ATOM     18  C   UNL     1      -0.750  10.603  19.450  0.00  0.00    +0.000 C 
ATOM     19  O   UNL     1      -1.236   9.781  18.669  0.00  0.00    +0.000 OA
ATOM     20  N   UNL     1      -1.426  11.782  19.797  0.00  0.00    +0.000 N 
BRANCH  20  21
ATOM     21  C   UNL     1      -0.860  12.867  20.613  0.00  0.00    +0.000 C 
ATOM     22  C   UNL     1      -0.268  14.015  19.808  0.00  0.00    +0.000 C 
ENDBRANCH  20  21
BRANCH  20  23
ATOM     23  C   UNL     1      -2.722  12.034  19.154  0.00  0.00    +0.000 C 
ATOM     24  C   UNL     1      -3.758  12.631  20.094  0.00  0.00    +0.000 C 
ENDBRANCH  20  23
ENDBRANCH  17  18
ENDBRANCH   6  17
TORSDOF 7
ENDMDL
MODEL 5
REMARK VINA RESULT:      -6.2      2.488      7.683
REMARK  Name = 
REMARK  11 active torsions:
REMARK  status: ('A' for Active; 'I' for Inactive)
REMARK    1  A    between atoms: C_1  and  C_2
REMARK    2  A    between atoms: C_2  and  O_3
REMARK    3  A    between atoms: O_3  and  C_4
REMARK    4  A    between atoms: C_4  and  C_6
REMARK    5  A    between atoms: N_11  and  C_12
REMARK    6  A    between atoms: C_12  and  C_13
REMARK    7  A    between atoms: N_15  and  C_16
REMARK    8  A    between atoms: N_15  and  C_18
REMARK    9  A    between atoms: C_16  and  C_17
REMARK   10  A    between atoms: C_18  and  C_19
REMARK   11  A    between atoms: C_23  and  C_24
REMARK                            x       y       z     vdW  Elec       q    Type
REMARK                         _______ _______ _______ _____ _____    ______ ____
ROOT
ATOM      1  C   UNL     1       5.389   5.267  17.216  0.00  0.00    +0.000 A 
ATOM      2  S   UNL     1       4.973   6.805  16.584  0.00  0.00    +0.000 S 
ATOM      3  C   UNL     1       3.779   7.062  17.758  0.00  0.00    +0.000 A 
ATOM      4  N   UNL     1       3.049   8.208  17.763  0.00  0.00    +0.000 NA
ATOM      5  C   UNL     1       2.194   8.286  18.730  0.00  0.00    +0.000 A 
ATOM      6  N   UNL     1       1.993   7.338  19.713  0.00  0.00    +0.000 N 
ATOM      7  C   UNL     1       2.698   6.136  19.719  0.00  0.00    +0.000 A 
ATOM      8  O   UNL     1       2.550   5.281  20.592  0.00  0.00    +0.000 OA
ATOM      9  C   UNL     1       3.676   6.007  18.638  0.00  0.00    +0.000 A 
ATOM     10  C   UNL     1       4.605   4.940  18.325  0.00  0.00    +0.000 A 
ATOM     11  C   UNL     1       4.746   3.656  19.086  0.00  0.00    +0.000 C 
ENDROOT
BRANCH   1  12
ATOM     12  C   UNL     1       6.483   4.492  16.637  0.00  0.00    +0.000 C 
ATOM     13  O   UNL     1       7.629   4.457  17.070  0.00  0.00    +0.000 OA
BRANCH  12  14
ATOM     14  O   UNL     1       6.097   3.886  15.474  0.00  0.00    +0.000 OA
BRANCH  14  16
ATOM     15  C   UNL     1       6.076   3.664  13.098  0.00  0.00    +0.000 C 
ATOM     16  C   UNL     1       6.702   4.389  14.277  0.00  0.00    +0.000 C 
ENDBRANCH  14  16
ENDBRANCH  12  14
ENDBRANCH   1  12
BRANCH   6  17
ATOM     17  C   UNL     1       1.048   7.602  20.794  0.00  0.00    +0.000 C 
BRANCH  17  18
ATOM     18  C   UNL     1       1.153   9.035  21.343  0.00  0.00    +0.000 C 
ATOM     19  O   UNL     1       1.912   9.295  22.280  0.00  0.00    +0.000 OA
ATOM     20  N   UNL     1       0.319  10.008  20.774  0.00  0.00    +0.000 N 
BRANCH  20  21
ATOM     21  C   UNL     1      -0.702   9.746  19.750  0.00  0.00    +0.000 C 
ATOM     22  C   UNL     1      -0.945  10.905  18.794  0.00  0.00    +0.000 C 
ENDBRANCH  20  21
BRANCH  20  23
ATOM     23  C   UNL     1       0.340  11.350  21.372  0.00  0.00    +0.000 C 
ATOM     24  C   UNL     1      -0.726  11.554  22.437  0.00  0.00    +0.000 C 
ENDBRANCH  20  23
ENDBRANCH  17  18
ENDBRANCH   6  17
TORSDOF 7
ENDMDL
MODEL 6
REMARK VINA RESULT:      -6.2      2.708      7.721
REMARK  Name = 
REMARK  11 active torsions:
REMARK  status: ('A' for Active; 'I' for Inactive)
REMARK    1  A    between atoms: C_1  and  C_2
REMARK    2  A    between atoms: C_2  and  O_3
REMARK    3  A    between atoms: O_3  and  C_4
REMARK    4  A    between atoms: C_4  and  C_6
REMARK    5  A    between atoms: N_11  and  C_12
REMARK    6  A    between atoms: C_12  and  C_13
REMARK    7  A    between atoms: N_15  and  C_16
REMARK    8  A    between atoms: N_15  and  C_18
REMARK    9  A    between atoms: C_16  and  C_17
REMARK   10  A    between atoms: C_18  and  C_19
REMARK   11  A    between atoms: C_23  and  C_24
REMARK                            x       y       z     vdW  Elec       q    Type
REMARK                         _______ _______ _______ _____ _____    ______ ____
ROOT
ATOM      1  C   UNL     1       3.670   5.269  18.623  0.00  0.00    +0.000 A 
ATOM      2  S   UNL     1       3.832   6.409  17.353  0.00  0.00    +0.000 S 
ATOM      3  C   UNL     1       2.830   7.538  18.122  0.00  0.00    +0.000 A 
ATOM      4  N   UNL     1       2.565   8.737  17.541  0.00  0.00    +0.000 NA
ATOM      5  C   UNL     1       1.812   9.513  18.248  0.00  0.00    +0.000 A 
ATOM      6  N   UNL     1       1.294   9.225  19.496  0.00  0.00    +0.000 N 
ATOM      7  C   UNL     1       1.515   7.992  20.107  0.00  0.00    +0.000 A 
ATOM      8  O   UNL     1       1.079   7.715  21.224  0.00  0.00    +0.000 OA
ATOM      9  C   UNL     1       2.364   7.082  19.336  0.00  0.00    +0.000 A 
ATOM     10  C   UNL     1       2.837   5.746  19.638  0.00  0.00    +0.000 A 
ATOM     11  C   UNL     1       2.514   4.966  20.876  0.00  0.00    +0.000 C 
ENDROOT
BRANCH   1  12
ATOM     12  C   UNL     1       4.400   4.003  18.589  0.00  0.00    +0.000 C 
ATOM     13  O   UNL     1       5.328   3.705  19.331  0.00  0.00    +0.000 OA
BRANCH  12  14
ATOM     14  O   UNL     1       3.987   3.224  17.545  0.00  0.00    +0.000 OA
BRANCH  14  16
ATOM     15  C   UNL     1       2.352   1.894  18.663  0.00  0.00    +0.000 C 
ATOM     16  C   UNL     1       2.597   2.880  17.534  0.00  0.00    +0.000 C 
ENDBRANCH  14  16
ENDBRANCH  12  14
ENDBRANCH   1  12
BRANCH   6  17
ATOM     17  C   UNL     1       0.526  10.237  20.215  0.00  0.00    +0.000 C 
BRANCH  17  18
ATOM     18  C   UNL     1       0.687  11.645  19.619  0.00  0.00    +0.000 C 
ATOM     19  O   UNL     1       1.715  12.298  19.817  0.00  0.00    +0.000 OA
ATOM     20  N   UNL     1      -0.395  12.169  18.896  0.00  0.00    +0.000 N 
BRANCH  20  21
ATOM     21  C   UNL     1      -1.697  11.507  18.731  0.00  0.00    +0.000 C 
ATOM     22  C   UNL     1      -2.169  11.398  17.289  0.00  0.00    +0.000 C 
ENDBRANCH  20  21
BRANCH  20  23
ATOM     23  C   UNL     1      -0.283  13.555  18.421  0.00  0.00    +0.000 C 
ATOM     24  C   UNL     1      -0.689  14.585  19.464  0.00  0.00    +0.000 C 
ENDBRANCH  20  23
ENDBRANCH  17  18
ENDBRANCH   6  17
TORSDOF 7
ENDMDL
MODEL 7
REMARK VINA RESULT:      -6.2      2.868      7.421
REMARK  Name = 
REMARK  11 active torsions:
REMARK  status: ('A' for Active; 'I' for Inactive)
REMARK    1  A    between atoms: C_1  and  C_2
REMARK    2  A    between atoms: C_2  and  O_3
REMARK    3  A    between atoms: O_3  and  C_4
REMARK    4  A    between atoms: C_4  and  C_6
REMARK    5  A    between atoms: N_11  and  C_12
REMARK    6  A    between atoms: C_12  and  C_13
REMARK    7  A    between atoms: N_15  and  C_16
REMARK    8  A    between atoms: N_15  and  C_18
REMARK    9  A    between atoms: C_16  and  C_17
REMARK   10  A    between atoms: C_18  and  C_19
REMARK   11  A    between atoms: C_23  and  C_24
REMARK                            x       y       z     vdW  Elec       q    Type
REMARK                         _______ _______ _______ _____ _____    ______ ____
ROOT
ATOM      1  C   UNL     1       3.815   5.373  18.732  0.00  0.00    +0.000 A 
ATOM      2  S   UNL     1       4.098   6.441  17.421  0.00  0.00    +0.000 S 
ATOM      3  C   UNL     1       2.983   7.580  17.996  0.00  0.00    +0.000 A 
ATOM      4  N   UNL     1       2.759   8.734  17.313  0.00  0.00    +0.000 NA
ATOM      5  C   UNL     1       1.907   9.525  17.878  0.00  0.00    +0.000 A 
ATOM      6  N   UNL     1       1.253   9.295  19.072  0.00  0.00    +0.000 N 
ATOM      7  C   UNL     1       1.431   8.108  19.781  0.00  0.00    +0.000 A 
ATOM      8  O   UNL     1       0.873   7.883  20.854  0.00  0.00    +0.000 OA
ATOM      9  C   UNL     1       2.388   7.182  19.173  0.00  0.00    +0.000 A 
ATOM     10  C   UNL     1       2.856   5.883  19.611  0.00  0.00    +0.000 A 
ATOM     11  C   UNL     1       2.408   5.167  20.850  0.00  0.00    +0.000 C 
ENDROOT
BRANCH   1  12
ATOM     12  C   UNL     1       4.576   4.133  18.863  0.00  0.00    +0.000 C 
ATOM     13  O   UNL     1       5.645   4.020  19.451  0.00  0.00    +0.000 OA
BRANCH  12  14
ATOM     14  O   UNL     1       3.998   3.121  18.149  0.00  0.00    +0.000 OA
BRANCH  14  16
ATOM     15  C   UNL     1       1.878   2.157  18.670  0.00  0.00    +0.000 C 
ATOM     16  C   UNL     1       3.374   2.089  18.922  0.00  0.00    +0.000 C 
ENDBRANCH  14  16
ENDBRANCH  12  14
ENDBRANCH   1  12
BRANCH   6  17
ATOM     17  C   UNL     1       0.379  10.321  19.631  0.00  0.00    +0.000 C 
BRANCH  17  18
ATOM     18  C   UNL     1       1.118  11.287  20.572  0.00  0.00    +0.000 C 
ATOM     19  O   UNL     1       1.197  11.050  21.780  0.00  0.00    +0.000 OA
ATOM     20  N   UNL     1       1.644  12.461  20.012  0.00  0.00    +0.000 N 
BRANCH  20  21
ATOM     21  C   UNL     1       1.475  12.873  18.611  0.00  0.00    +0.000 C 
ATOM     22  C   UNL     1       2.429  13.969  18.159  0.00  0.00    +0.000 C 
ENDBRANCH  20  21
BRANCH  20  23
ATOM     23  C   UNL     1       2.253  13.434  20.929  0.00  0.00    +0.000 C 
ATOM     24  C   UNL     1       1.247  14.394  21.545  0.00  0.00    +0.000 C 
ENDBRANCH  20  23
ENDBRANCH  17  18
ENDBRANCH   6  17
TORSDOF 7
ENDMDL
MODEL 8
REMARK VINA RESULT:      -6.1      1.226      1.598
REMARK  Name = 
REMARK  11 active torsions:
REMARK  status: ('A' for Active; 'I' for Inactive)
REMARK    1  A    between atoms: C_1  and  C_2
REMARK    2  A    between atoms: C_2  and  O_3
REMARK    3  A    between atoms: O_3  and  C_4
REMARK    4  A    between atoms: C_4  and  C_6
REMARK    5  A    between atoms: N_11  and  C_12
REMARK    6  A    between atoms: C_12  and  C_13
REMARK    7  A    between atoms: N_15  and  C_16
REMARK    8  A    between atoms: N_15  and  C_18
REMARK    9  A    between atoms: C_16  and  C_17
REMARK   10  A    between atoms: C_18  and  C_19
REMARK   11  A    between atoms: C_23  and  C_24
REMARK                            x       y       z     vdW  Elec       q    Type
REMARK                         _______ _______ _______ _____ _____    ______ ____
ROOT
ATOM      1  C   UNL     1       0.672   9.875  20.190  0.00  0.00    +0.000 A 
ATOM      2  S   UNL     1       0.461   8.622  21.341  0.00  0.00    +0.000 S 
ATOM      3  C   UNL     1       1.402   7.529  20.451  0.00  0.00    +0.000 A 
ATOM      4  N   UNL     1       1.607   6.265  20.905  0.00  0.00    +0.000 NA
ATOM      5  C   UNL     1       2.366   5.546  20.143  0.00  0.00    +0.000 A 
ATOM      6  N   UNL     1       2.960   5.960  18.967  0.00  0.00    +0.000 N 
ATOM      7  C   UNL     1       2.743   7.238  18.454  0.00  0.00    +0.000 A 
ATOM      8  O   UNL     1       3.272   7.637  17.417  0.00  0.00    +0.000 OA
ATOM      9  C   UNL     1       1.886   8.083  19.287  0.00  0.00    +0.000 A 
ATOM     10  C   UNL     1       1.456   9.456  19.113  0.00  0.00    +0.000 A 
ATOM     11  C   UNL     1       1.808  10.340  17.954  0.00  0.00    +0.000 C 
ENDROOT
BRANCH   1  12
ATOM     12  C   UNL     1       0.112  11.205  20.422  0.00  0.00    +0.000 C 
ATOM     13  O   UNL     1      -0.449  11.891  19.577  0.00  0.00    +0.000 OA
BRANCH  12  14
ATOM     14  O   UNL     1       0.388  11.642  21.687  0.00  0.00    +0.000 OA
BRANCH  14  16
ATOM     15  C   UNL     1      -1.490  11.599  23.157  0.00  0.00    +0.000 C 
ATOM     16  C   UNL     1      -0.606  12.478  22.290  0.00  0.00    +0.000 C 
ENDBRANCH  14  16
ENDBRANCH  12  14
ENDBRANCH   1  12
BRANCH   6  17
ATOM     17  C   UNL     1       3.864   5.062  18.255  0.00  0.00    +0.000 C 
BRANCH  17  18
ATOM     18  C   UNL     1       5.346   5.378  18.512  0.00  0.00    +0.000 C 
ATOM     19  O   UNL     1       5.799   5.382  19.659  0.00  0.00    +0.000 OA
ATOM     20  N   UNL     1       6.138   5.712  17.402  0.00  0.00    +0.000 N 
BRANCH  20  21
ATOM     21  C   UNL     1       5.640   5.858  16.027  0.00  0.00    +0.000 C 
ATOM     22  C   UNL     1       6.086   4.756  15.077  0.00  0.00    +0.000 C 
ENDBRANCH  20  21
BRANCH  20  23
ATOM     23  C   UNL     1       7.525   6.120  17.660  0.00  0.00    +0.000 C 
ATOM     24  C   UNL     1       7.725   7.628  17.639  0.00  0.00    +0.000 C 
ENDBRANCH  20  23
ENDBRANCH  17  18
ENDBRANCH   6  17
TORSDOF 7
ENDMDL
MODEL 9
REMARK VINA RESULT:      -6.1      2.368      7.786
REMARK  Name = 
REMARK  11 active torsions:
REMARK  status: ('A' for Active; 'I' for Inactive)
REMARK    1  A    between atoms: C_1  and  C_2
REMARK    2  A    between atoms: C_2  and  O_3
REMARK    3  A    between atoms: O_3  and  C_4
REMARK    4  A    between atoms: C_4  and  C_6
REMARK    5  A    between atoms: N_11  and  C_12
REMARK    6  A    between atoms: C_12  and  C_13
REMARK    7  A    between atoms: N_15  and  C_16
REMARK    8  A    between atoms: N_15  and  C_18
REMARK    9  A    between atoms: C_16  and  C_17
REMARK   10  A    between atoms: C_18  and  C_19
REMARK   11  A    between atoms: C_23  and  C_24
REMARK                            x       y       z     vdW  Elec       q    Type
REMARK                         _______ _______ _______ _____ _____    ______ ____
ROOT
ATOM      1  C   UNL     1       3.814   5.314  18.628  0.00  0.00    +0.000 A 
ATOM      2  S   UNL     1       2.896   5.230  20.074  0.00  0.00    +0.000 S 
ATOM      3  C   UNL     1       2.282   6.797  19.878  0.00  0.00    +0.000 A 
ATOM      4  N   UNL     1       1.428   7.324  20.794  0.00  0.00    +0.000 NA
ATOM      5  C   UNL     1       1.015   8.515  20.507  0.00  0.00    +0.000 A 
ATOM      6  N   UNL     1       1.357   9.245  19.386  0.00  0.00    +0.000 N 
ATOM      7  C   UNL     1       2.258   8.750  18.444  0.00  0.00    +0.000 A 
ATOM      8  O   UNL     1       2.568   9.372  17.428  0.00  0.00    +0.000 OA
ATOM      9  C   UNL     1       2.751   7.403  18.733  0.00  0.00    +0.000 A 
ATOM     10  C   UNL     1       3.662   6.550  17.996  0.00  0.00    +0.000 A 
ATOM     11  C   UNL     1       4.345   6.910  16.710  0.00  0.00    +0.000 C 
ENDROOT
BRANCH   1  12
ATOM     12  C   UNL     1       4.584   4.163  18.164  0.00  0.00    +0.000 C 
ATOM     13  O   UNL     1       4.158   3.279  17.429  0.00  0.00    +0.000 OA
BRANCH  12  14
ATOM     14  O   UNL     1       5.822   4.131  18.741  0.00  0.00    +0.000 OA
BRANCH  14  16
ATOM     15  C   UNL     1       7.572   5.754  18.739  0.00  0.00    +0.000 C 
ATOM     16  C   UNL     1       6.896   4.648  17.946  0.00  0.00    +0.000 C 
ENDBRANCH  14  16
ENDBRANCH  12  14
ENDBRANCH   1  12
BRANCH   6  17
ATOM     17  C   UNL     1       0.743  10.548  19.152  0.00  0.00    +0.000 C 
BRANCH  17  18
ATOM     18  C   UNL     1      -0.536  10.463  18.304  0.00  0.00    +0.000 C 
ATOM     19  O   UNL     1      -0.717   9.519  17.531  0.00  0.00    +0.000 OA
ATOM     20  N   UNL     1      -1.453  11.520  18.407  0.00  0.00    +0.000 N 
BRANCH  20  21
ATOM     21  C   UNL     1      -1.245  12.738  19.204  0.00  0.00    +0.000 C 
ATOM     22  C   UNL     1      -0.431  13.816  18.504  0.00  0.00    +0.000 C 
ENDBRANCH  20  21
BRANCH  20  23
ATOM     23  C   UNL     1      -2.621  11.492  17.517  0.00  0.00    +0.000 C 
ATOM     24  C   UNL     1      -3.935  11.278  18.252  0.00  0.00    +0.000 C 
ENDBRANCH  20  23
ENDBRANCH  17  18
ENDBRANCH   6  17
TORSDOF 7
ENDMDL
