MODEL 1
REMARK VINA RESULT:      -8.0      0.000      0.000
REMARK  Name = 
REMARK  9 active torsions:
REMARK  status: ('A' for Active; 'I' for Inactive)
REMARK    1  A    between atoms: C_1  and  O_2
REMARK    2  A    between atoms: O_2  and  C_3
REMARK    3  A    between atoms: C_6  and  N_7
REMARK    4  A    between atoms: C_8  and  C_10
REMARK    5  A    between atoms: C_10  and  O_11
REMARK    6  A    between atoms: O_11  and  C_12
REMARK    7  A    between atoms: C_12  and  C_14
REMARK    8  A    between atoms: C_17  and  O_18
REMARK    9  A    between atoms: C_21  and  N_22
REMARK                            x       y       z     vdW  Elec       q    Type
REMARK                         _______ _______ _______ _____ _____    ______ ____
ROOT
ATOM      1  N   UNL     1       5.120   3.639  17.656  0.00  0.00    +0.000 N 
ATOM      2  C   UNL     1       4.575   2.798  18.616  0.00  0.00    +0.000 C 
ATOM      3  O   UNL     1       4.882   2.782  19.806  0.00  0.00    +0.000 OA
ATOM      4  H   UNL     1       4.952   3.381  16.683  0.00  0.00    +0.000 HD
ENDROOT
BRANCH   1   8
ATOM      5  C   UNL     1       7.781   6.906  18.389  0.00  0.00    +0.000 A 
ATOM      6  C   UNL     1       7.581   5.909  19.342  0.00  0.00    +0.000 A 
ATOM      7  C   UNL     1       6.707   4.840  19.105  0.00  0.00    +0.000 A 
ATOM      8  C   UNL     1       6.019   4.718  17.894  0.00  0.00    +0.000 A 
ATOM      9  C   UNL     1       6.250   5.726  16.937  0.00  0.00    +0.000 A 
ATOM     10  C   UNL     1       7.108   6.818  17.177  0.00  0.00    +0.000 A 
BRANCH   9  11
ATOM     11  N   UNL     1       5.656   5.643  15.614  0.00  0.00    +0.000 N 
ATOM     12  O   UNL     1       5.174   6.683  15.141  0.00  0.00    +0.000 OA
ATOM     13  O   UNL     1       5.679   4.540  15.050  0.00  0.00    +0.000 OA
ENDBRANCH   9  11
BRANCH   5  15
ATOM     14  C   UNL     1       8.415   9.197  18.266  0.00  0.00    +0.000 C 
ATOM     15  O   UNL     1       8.657   7.886  18.759  0.00  0.00    +0.000 OA
ENDBRANCH   5  15
ENDBRANCH   1   8
BRANCH   2  16
ATOM     16  C   UNL     1       3.541   1.803  18.079  0.00  0.00    +0.000 C 
BRANCH  16  17
ATOM     17  O   UNL     1       2.472   2.462  17.399  0.00  0.00    +0.000 OA
BRANCH  17  18
ATOM     18  C   UNL     1       1.453   2.818  18.218  0.00  0.00    +0.000 C 
ATOM     19  O   UNL     1       0.456   2.140  18.424  0.00  0.00    +0.000 OA
BRANCH  18  20
ATOM     20  C   UNL     1       1.679   4.152  18.833  0.00  0.00    +0.000 A 
ATOM     21  C   UNL     1       1.450   4.282  20.212  0.00  0.00    +0.000 A 
ATOM     22  C   UNL     1       1.650   5.506  20.853  0.00  0.00    +0.000 A 
ATOM     23  C   UNL     1       2.085   6.599  20.111  0.00  0.00    +0.000 A 
ATOM     24  C   UNL     1       2.320   6.489  18.746  0.00  0.00    +0.000 A 
ATOM     25  C   UNL     1       2.119   5.263  18.101  0.00  0.00    +0.000 A 
BRANCH  23  26
ATOM     26  O   UNL     1       2.294   7.815  20.698  0.00  0.00    +0.000 OA
ATOM     27  H   UNL     1       1.598   7.969  21.360  0.00  0.00    +0.000 HD
ENDBRANCH  23  26
ENDBRANCH  18  20
ENDBRANCH  17  18
ENDBRANCH  16  17
ENDBRANCH   2  16
TORSDOF 8
ENDMDL
MODEL 2
REMARK VINA RESULT:      -7.9      3.048      8.200
REMARK  Name = 
REMARK  9 active torsions:
REMARK  status: ('A' for Active; 'I' for Inactive)
REMARK    1  A    between atoms: C_1  and  O_2
REMARK    2  A    between atoms: O_2  and  C_3
REMARK    3  A    between atoms: C_6  and  N_7
REMARK    4  A    between atoms: C_8  and  C_10
REMARK    5  A    between atoms: C_10  and  O_11
REMARK    6  A    between atoms: O_11  and  C_12
REMARK    7  A    between atoms: C_12  and  C_14
REMARK    8  A    between atoms: C_17  and  O_18
REMARK    9  A    between atoms: C_21  and  N_22
REMARK                            x       y       z     vdW  Elec       q    Type
REMARK                         _______ _______ _______ _____ _____    ______ ____
ROOT
ATOM      1  N   UNL     1       6.467   7.468  17.045  0.00  0.00    +0.000 N 
ATOM      2  C   UNL     1       7.621   7.616  17.802  0.00  0.00    +0.000 C 
ATOM      3  O   UNL     1       7.971   6.875  18.719  0.00  0.00    +0.000 OA
ATOM      4  H   UNL     1       6.184   8.278  16.493  0.00  0.00    +0.000 HD
ENDROOT
BRANCH   1   8
ATOM      5  C   UNL     1       3.766   4.157  17.241  0.00  0.00    +0.000 A 
ATOM      6  C   UNL     1       3.376   5.433  17.646  0.00  0.00    +0.000 A 
ATOM      7  C   UNL     1       4.262   6.518  17.586  0.00  0.00    +0.000 A 
ATOM      8  C   UNL     1       5.562   6.370  17.095  0.00  0.00    +0.000 A 
ATOM      9  C   UNL     1       5.929   5.077  16.672  0.00  0.00    +0.000 A 
ATOM     10  C   UNL     1       5.054   3.974  16.752  0.00  0.00    +0.000 A 
BRANCH   9  11
ATOM     11  N   UNL     1       7.225   4.836  16.060  0.00  0.00    +0.000 N 
ATOM     12  O   UNL     1       7.418   5.311  14.931  0.00  0.00    +0.000 OA
ATOM     13  O   UNL     1       8.046   4.179  16.714  0.00  0.00    +0.000 OA
ENDBRANCH   9  11
BRANCH   5  15
ATOM     14  C   UNL     1       2.739   2.485  18.586  0.00  0.00    +0.000 C 
ATOM     15  O   UNL     1       2.801   3.199  17.358  0.00  0.00    +0.000 OA
ENDBRANCH   5  15
ENDBRANCH   1   8
BRANCH   2  16
ATOM     16  C   UNL     1       8.464   8.844  17.446  0.00  0.00    +0.000 C 
BRANCH  16  17
ATOM     17  O   UNL     1       8.083   9.989  18.209  0.00  0.00    +0.000 OA
BRANCH  17  18
ATOM     18  C   UNL     1       9.088  10.488  18.967  0.00  0.00    +0.000 C 
ATOM     19  O   UNL     1       9.436  10.036  20.049  0.00  0.00    +0.000 OA
BRANCH  18  20
ATOM     20  C   UNL     1       9.720  11.676  18.335  0.00  0.00    +0.000 A 
ATOM     21  C   UNL     1      11.071  11.578  17.968  0.00  0.00    +0.000 A 
ATOM     22  C   UNL     1      11.723  12.655  17.363  0.00  0.00    +0.000 A 
ATOM     23  C   UNL     1      11.017  13.829  17.122  0.00  0.00    +0.000 A 
ATOM     24  C   UNL     1       9.677  13.943  17.476  0.00  0.00    +0.000 A 
ATOM     25  C   UNL     1       9.023  12.866  18.083  0.00  0.00    +0.000 A 
BRANCH  23  26
ATOM     26  O   UNL     1      11.615  14.907  16.533  0.00  0.00    +0.000 OA
ATOM     27  H   UNL     1      10.926  15.475  16.146  0.00  0.00    +0.000 HD
ENDBRANCH  23  26
ENDBRANCH  18  20
ENDBRANCH  17  18
ENDBRANCH  16  17
ENDBRANCH   2  16
TORSDOF 8
ENDMDL
MODEL 3
REMARK VINA RESULT:      -7.8      2.904      8.107
REMARK  Name = 
REMARK  9 active torsions:
REMARK  status: ('A' for Active; 'I' for Inactive)
REMARK    1  A    between atoms: C_1  and  O_2
REMARK    2  A    between atoms: O_2  and  C_3
REMARK    3  A    between atoms: C_6  and  N_7
REMARK    4  A    between atoms: C_8  and  C_10
REMARK    5  A    between atoms: C_10  and  O_11
REMARK    6  A    between atoms: O_11  and  C_12
REMARK    7  A    between atoms: C_12  and  C_14
REMARK    8  A    between atoms: C_17  and  O_18
REMARK    9  A    between atoms: C_21  and  N_22
REMARK                            x       y       z     vdW  Elec       q    Type
REMARK                         _______ _______ _______ _____ _____    ______ ____
ROOT
ATOM      1  N   UNL     1       6.300   7.496  17.266  0.00  0.00    +0.000 N 
ATOM      2  C   UNL     1       7.460   7.630  18.014  0.00  0.00    +0.000 C 
ATOM      3  O   UNL     1       7.869   6.821  18.846  0.00  0.00    +0.000 OA
ATOM      4  H   UNL     1       5.962   8.341  16.802  0.00  0.00    +0.000 HD
ENDROOT
BRANCH   1   8
ATOM      5  C   UNL     1       3.780   4.041  17.169  0.00  0.00    +0.000 A 
ATOM      6  C   UNL     1       3.319   5.257  17.669  0.00  0.00    +0.000 A 
ATOM      7  C   UNL     1       4.145   6.390  17.704  0.00  0.00    +0.000 A 
ATOM      8  C   UNL     1       5.455   6.350  17.218  0.00  0.00    +0.000 A 
ATOM      9  C   UNL     1       5.894   5.116  16.700  0.00  0.00    +0.000 A 
ATOM     10  C   UNL     1       5.080   3.966  16.682  0.00  0.00    +0.000 A 
BRANCH   9  11
ATOM     11  N   UNL     1       7.206   4.994  16.086  0.00  0.00    +0.000 N 
ATOM     12  O   UNL     1       8.062   4.340  16.700  0.00  0.00    +0.000 OA
ATOM     13  O   UNL     1       7.373   5.546  14.991  0.00  0.00    +0.000 OA
ENDBRANCH   9  11
BRANCH   5  15
ATOM     14  C   UNL     1       3.175   1.898  18.009  0.00  0.00    +0.000 C 
ATOM     15  O   UNL     1       2.868   3.026  17.200  0.00  0.00    +0.000 OA
ENDBRANCH   5  15
ENDBRANCH   1   8
BRANCH   2  16
ATOM     16  C   UNL     1       8.229   8.932  17.771  0.00  0.00    +0.000 C 
BRANCH  16  17
ATOM     17  O   UNL     1       9.314   9.087  18.686  0.00  0.00    +0.000 OA
BRANCH  17  18
ATOM     18  C   UNL     1       9.284  10.261  19.361  0.00  0.00    +0.000 C 
ATOM     19  O   UNL     1       8.849  10.402  20.495  0.00  0.00    +0.000 OA
BRANCH  18  20
ATOM     20  C   UNL     1       9.835  11.378  18.549  0.00  0.00    +0.000 A 
ATOM     21  C   UNL     1       8.980  12.451  18.251  0.00  0.00    +0.000 A 
ATOM     22  C   UNL     1       9.437  13.535  17.498  0.00  0.00    +0.000 A 
ATOM     23  C   UNL     1      10.753  13.545  17.049  0.00  0.00    +0.000 A 
ATOM     24  C   UNL     1      11.615  12.492  17.337  0.00  0.00    +0.000 A 
ATOM     25  C   UNL     1      11.159  11.405  18.090  0.00  0.00    +0.000 A 
BRANCH  23  26
ATOM     26  O   UNL     1      11.242  14.585  16.310  0.00  0.00    +0.000 OA
ATOM     27  H   UNL     1      12.185  14.700  16.516  0.00  0.00    +0.000 HD
ENDBRANCH  23  26
ENDBRANCH  18  20
ENDBRANCH  17  18
ENDBRANCH  16  17
ENDBRANCH   2  16
TORSDOF 8
ENDMDL
MODEL 4
REMARK VINA RESULT:      -7.8      0.827      1.282
REMARK  Name = 
REMARK  9 active torsions:
REMARK  status: ('A' for Active; 'I' for Inactive)
REMARK    1  A    between atoms: C_1  and  O_2
REMARK    2  A    between atoms: O_2  and  C_3
REMARK    3  A    between atoms: C_6  and  N_7
REMARK    4  A    between atoms: C_8  and  C_10
REMARK    5  A    between atoms: C_10  and  O_11
REMARK    6  A    between atoms: O_11  and  C_12
REMARK    7  A    between atoms: C_12  and  C_14
REMARK    8  A    between atoms: C_17  and  O_18
REMARK    9  A    between atoms: C_21  and  N_22
REMARK                            x       y       z     vdW  Elec       q    Type
REMARK                         _______ _______ _______ _____ _____    ______ ____
ROOT
ATOM      1  N   UNL     1       4.858   3.330  17.842  0.00  0.00    +0.000 N 
ATOM      2  C   UNL     1       4.434   2.476  18.849  0.00  0.00    +0.000 C 
ATOM      3  O   UNL     1       4.886   2.442  19.993  0.00  0.00    +0.000 OA
ATOM      4  H   UNL     1       4.571   3.087  16.893  0.00  0.00    +0.000 HD
ENDROOT
BRANCH   1   8
ATOM      5  C   UNL     1       7.596   6.590  18.263  0.00  0.00    +0.000 A 
ATOM      6  C   UNL     1       7.063   5.946  19.378  0.00  0.00    +0.000 A 
ATOM      7  C   UNL     1       6.162   4.880  19.242  0.00  0.00    +0.000 A 
ATOM      8  C   UNL     1       5.783   4.404  17.983  0.00  0.00    +0.000 A 
ATOM      9  C   UNL     1       6.349   5.057  16.870  0.00  0.00    +0.000 A 
ATOM     10  C   UNL     1       7.236   6.145  16.997  0.00  0.00    +0.000 A 
BRANCH   9  11
ATOM     11  N   UNL     1       6.092   4.581  15.521  0.00  0.00    +0.000 N 
ATOM     12  O   UNL     1       4.908   4.420  15.191  0.00  0.00    +0.000 OA
ATOM     13  O   UNL     1       7.075   4.376  14.796  0.00  0.00    +0.000 OA
ENDBRANCH   9  11
BRANCH   5  15
ATOM     14  C   UNL     1       8.193   8.871  17.945  0.00  0.00    +0.000 C 
ATOM     15  O   UNL     1       8.456   7.611  18.549  0.00  0.00    +0.000 OA
ENDBRANCH   5  15
ENDBRANCH   1   8
BRANCH   2  16
ATOM     16  C   UNL     1       3.339   1.491  18.431  0.00  0.00    +0.000 C 
BRANCH  16  17
ATOM     17  O   UNL     1       2.212   1.544  19.306  0.00  0.00    +0.000 OA
BRANCH  17  18
ATOM     18  C   UNL     1       1.239   2.384  18.880  0.00  0.00    +0.000 C 
ATOM     19  O   UNL     1       0.250   2.042  18.248  0.00  0.00    +0.000 OA
BRANCH  18  20
ATOM     20  C   UNL     1       1.523   3.794  19.259  0.00  0.00    +0.000 A 
ATOM     21  C   UNL     1       1.847   4.693  18.232  0.00  0.00    +0.000 A 
ATOM     22  C   UNL     1       2.117   6.033  18.519  0.00  0.00    +0.000 A 
ATOM     23  C   UNL     1       2.058   6.471  19.838  0.00  0.00    +0.000 A 
ATOM     24  C   UNL     1       1.736   5.595  20.869  0.00  0.00    +0.000 A 
ATOM     25  C   UNL     1       1.466   4.252  20.583  0.00  0.00    +0.000 A 
BRANCH  23  26
ATOM     26  O   UNL     1       2.315   7.772  20.165  0.00  0.00    +0.000 OA
ATOM     27  H   UNL     1       3.267   7.941  20.055  0.00  0.00    +0.000 HD
ENDBRANCH  23  26
ENDBRANCH  18  20
ENDBRANCH  17  18
ENDBRANCH  16  17
ENDBRANCH   2  16
TORSDOF 8
ENDMDL
MODEL 5
REMARK VINA RESULT:      -7.6      2.514      3.918
REMARK  Name = 
REMARK  9 active torsions:
REMARK  status: ('A' for Active; 'I' for Inactive)
REMARK    1  A    between atoms: C_1  and  O_2
REMARK    2  A    between atoms: O_2  and  C_3
REMARK    3  A    between atoms: C_6  and  N_7
REMARK    4  A    between atoms: C_8  and  C_10
REMARK    5  A    between atoms: C_10  and  O_11
REMARK    6  A    between atoms: O_11  and  C_12
REMARK    7  A    between atoms: C_12  and  C_14
REMARK    8  A    between atoms: C_17  and  O_18
REMARK    9  A    between atoms: C_21  and  N_22
REMARK                            x       y       z     vdW  Elec       q    Type
REMARK                         _______ _______ _______ _____ _____    ______ ____
ROOT
ATOM      1  N   UNL     1       4.803   4.369  17.991  0.00  0.00    +0.000 N 
ATOM      2  C   UNL     1       4.034   3.321  18.476  0.00  0.00    +0.000 C 
ATOM      3  O   UNL     1       3.673   2.341  17.827  0.00  0.00    +0.000 OA
ATOM      4  H   UNL     1       4.820   5.216  18.559  0.00  0.00    +0.000 HD
ENDROOT
BRANCH   1   8
ATOM      5  C   UNL     1       6.682   4.515  14.151  0.00  0.00    +0.000 A 
ATOM      6  C   UNL     1       5.306   4.336  14.275  0.00  0.00    +0.000 A 
ATOM      7  C   UNL     1       4.689   4.284  15.533  0.00  0.00    +0.000 A 
ATOM      8  C   UNL     1       5.426   4.434  16.712  0.00  0.00    +0.000 A 
ATOM      9  C   UNL     1       6.812   4.633  16.563  0.00  0.00    +0.000 A 
ATOM     10  C   UNL     1       7.445   4.662  15.303  0.00  0.00    +0.000 A 
BRANCH   9  11
ATOM     11  N   UNL     1       7.653   4.891  17.719  0.00  0.00    +0.000 N 
ATOM     12  O   UNL     1       7.410   5.910  18.383  0.00  0.00    +0.000 OA
ATOM     13  O   UNL     1       8.549   4.071  17.963  0.00  0.00    +0.000 OA
ENDBRANCH   9  11
BRANCH   5  15
ATOM     14  C   UNL     1       6.697   3.511  11.994  0.00  0.00    +0.000 C 
ATOM     15  O   UNL     1       7.143   4.542  12.866  0.00  0.00    +0.000 OA
ENDBRANCH   5  15
ENDBRANCH   1   8
BRANCH   2  16
ATOM     16  C   UNL     1       3.595   3.474  19.936  0.00  0.00    +0.000 C 
BRANCH  16  17
ATOM     17  O   UNL     1       3.502   4.846  20.321  0.00  0.00    +0.000 OA
BRANCH  17  18
ATOM     18  C   UNL     1       2.233   5.320  20.319  0.00  0.00    +0.000 C 
ATOM     19  O   UNL     1       1.273   4.743  20.809  0.00  0.00    +0.000 OA
BRANCH  18  20
ATOM     20  C   UNL     1       2.136   6.634  19.630  0.00  0.00    +0.000 A 
ATOM     21  C   UNL     1       2.573   6.706  18.298  0.00  0.00    +0.000 A 
ATOM     22  C   UNL     1       2.503   7.909  17.591  0.00  0.00    +0.000 A 
ATOM     23  C   UNL     1       1.990   9.038  18.220  0.00  0.00    +0.000 A 
ATOM     24  C   UNL     1       1.549   8.985  19.538  0.00  0.00    +0.000 A 
ATOM     25  C   UNL     1       1.620   7.781  20.248  0.00  0.00    +0.000 A 
BRANCH  23  26
ATOM     26  O   UNL     1       1.903  10.234  17.567  0.00  0.00    +0.000 OA
ATOM     27  H   UNL     1       1.843  10.067  16.611  0.00  0.00    +0.000 HD
ENDBRANCH  23  26
ENDBRANCH  18  20
ENDBRANCH  17  18
ENDBRANCH  16  17
ENDBRANCH   2  16
TORSDOF 8
ENDMDL
MODEL 6
REMARK VINA RESULT:      -7.6      2.451      3.782
REMARK  Name = 
REMARK  9 active torsions:
REMARK  status: ('A' for Active; 'I' for Inactive)
REMARK    1  A    between atoms: C_1  and  O_2
REMARK    2  A    between atoms: O_2  and  C_3
REMARK    3  A    between atoms: C_6  and  N_7
REMARK    4  A    between atoms: C_8  and  C_10
REMARK    5  A    between atoms: C_10  and  O_11
REMARK    6  A    between atoms: O_11  and  C_12
REMARK    7  A    between atoms: C_12  and  C_14
REMARK    8  A    between atoms: C_17  and  O_18
REMARK    9  A    between atoms: C_21  and  N_22
REMARK                            x       y       z     vdW  Elec       q    Type
REMARK                         _______ _______ _______ _____ _____    ______ ____
ROOT
ATOM      1  N   UNL     1       4.825   4.486  18.038  0.00  0.00    +0.000 N 
ATOM      2  C   UNL     1       4.044   3.430  18.486  0.00  0.00    +0.000 C 
ATOM      3  O   UNL     1       3.707   2.457  17.813  0.00  0.00    +0.000 OA
ATOM      4  H   UNL     1       4.822   5.327  18.617  0.00  0.00    +0.000 HD
ENDROOT
BRANCH   1   8
ATOM      5  C   UNL     1       6.836   4.684  14.268  0.00  0.00    +0.000 A 
ATOM      6  C   UNL     1       5.501   4.294  14.355  0.00  0.00    +0.000 A 
ATOM      7  C   UNL     1       4.841   4.225  15.590  0.00  0.00    +0.000 A 
ATOM      8  C   UNL     1       5.489   4.568  16.781  0.00  0.00    +0.000 A 
ATOM      9  C   UNL     1       6.832   4.977  16.668  0.00  0.00    +0.000 A 
ATOM     10  C   UNL     1       7.511   5.026  15.433  0.00  0.00    +0.000 A 
BRANCH   9  11
ATOM     11  N   UNL     1       7.567   5.443  17.832  0.00  0.00    +0.000 N 
ATOM     12  O   UNL     1       7.746   6.665  17.941  0.00  0.00    +0.000 OA
ATOM     13  O   UNL     1       7.955   4.585  18.637  0.00  0.00    +0.000 OA
ENDBRANCH   9  11
BRANCH   5  15
ATOM     14  C   UNL     1       6.801   3.778  12.068  0.00  0.00    +0.000 C 
ATOM     15  O   UNL     1       7.346   4.701  13.002  0.00  0.00    +0.000 OA
ENDBRANCH   5  15
ENDBRANCH   1   8
BRANCH   2  16
ATOM     16  C   UNL     1       3.557   3.566  19.932  0.00  0.00    +0.000 C 
BRANCH  16  17
ATOM     17  O   UNL     1       3.443   4.933  20.328  0.00  0.00    +0.000 OA
BRANCH  17  18
ATOM     18  C   UNL     1       2.178   5.411  20.250  0.00  0.00    +0.000 C 
ATOM     19  O   UNL     1       1.194   4.860  20.722  0.00  0.00    +0.000 OA
BRANCH  18  20
ATOM     20  C   UNL     1       2.119   6.693  19.499  0.00  0.00    +0.000 A 
ATOM     21  C   UNL     1       1.636   7.824  20.177  0.00  0.00    +0.000 A 
ATOM     22  C   UNL     1       1.561   9.061  19.532  0.00  0.00    +0.000 A 
ATOM     23  C   UNL     1       1.975   9.163  18.208  0.00  0.00    +0.000 A 
ATOM     24  C   UNL     1       2.459   8.055  17.522  0.00  0.00    +0.000 A 
ATOM     25  C   UNL     1       2.534   6.815  18.166  0.00  0.00    +0.000 A 
BRANCH  23  26
ATOM     26  O   UNL     1       1.919  10.353  17.539  0.00  0.00    +0.000 OA
ATOM     27  H   UNL     1       1.369  10.240  16.744  0.00  0.00    +0.000 HD
ENDBRANCH  23  26
ENDBRANCH  18  20
ENDBRANCH  17  18
ENDBRANCH  16  17
ENDBRANCH   2  16
TORSDOF 8
ENDMDL
MODEL 7
REMARK VINA RESULT:      -7.6      4.428      6.419
REMARK  Name = 
REMARK  9 active torsions:
REMARK  status: ('A' for Active; 'I' for Inactive)
REMARK    1  A    between atoms: C_1  and  O_2
REMARK    2  A    between atoms: O_2  and  C_3
REMARK    3  A    between atoms: C_6  and  N_7
REMARK    4  A    between atoms: C_8  and  C_10
REMARK    5  A    between atoms: C_10  and  O_11
REMARK    6  A    between atoms: O_11  and  C_12
REMARK    7  A    between atoms: C_12  and  C_14
REMARK    8  A    between atoms: C_17  and  O_18
REMARK    9  A    between atoms: C_21  and  N_22
REMARK                            x       y       z     vdW  Elec       q    Type
REMARK                         _______ _______ _______ _____ _____    ______ ____
ROOT
ATOM      1  N   UNL     1       2.874   7.137  18.771  0.00  0.00    +0.000 N 
ATOM      2  C   UNL     1       2.235   8.286  18.328  0.00  0.00    +0.000 C 
ATOM      3  O   UNL     1       2.329   8.764  17.198  0.00  0.00    +0.000 OA
ATOM      4  H   UNL     1       2.900   6.997  19.782  0.00  0.00    +0.000 HD
ENDROOT
BRANCH   1   8
ATOM      5  C   UNL     1       5.125   4.440  16.331  0.00  0.00    +0.000 A 
ATOM      6  C   UNL     1       5.597   5.719  16.619  0.00  0.00    +0.000 A 
ATOM      7  C   UNL     1       4.859   6.606  17.415  0.00  0.00    +0.000 A 
ATOM      8  C   UNL     1       3.631   6.233  17.972  0.00  0.00    +0.000 A 
ATOM      9  C   UNL     1       3.182   4.930  17.685  0.00  0.00    +0.000 A 
ATOM     10  C   UNL     1       3.906   4.040  16.865  0.00  0.00    +0.000 A 
BRANCH   9  11
ATOM     11  N   UNL     1       1.965   4.414  18.289  0.00  0.00    +0.000 N 
ATOM     12  O   UNL     1       1.087   3.988  17.525  0.00  0.00    +0.000 OA
ATOM     13  O   UNL     1       1.896   4.431  19.525  0.00  0.00    +0.000 OA
ENDBRANCH   9  11
BRANCH   5  15
ATOM     14  C   UNL     1       6.581   4.347  14.452  0.00  0.00    +0.000 C 
ATOM     15  O   UNL     1       5.948   3.690  15.542  0.00  0.00    +0.000 OA
ENDBRANCH   5  15
ENDBRANCH   1   8
BRANCH   2  16
ATOM     16  C   UNL     1       1.391   8.997  19.390  0.00  0.00    +0.000 C 
BRANCH  16  17
ATOM     17  O   UNL     1       0.740  10.155  18.865  0.00  0.00    +0.000 OA
BRANCH  17  18
ATOM     18  C   UNL     1      -0.412  10.461  19.507  0.00  0.00    +0.000 C 
ATOM     19  O   UNL     1      -0.526  10.580  20.719  0.00  0.00    +0.000 OA
BRANCH  18  20
ATOM     20  C   UNL     1      -1.545  10.623  18.558  0.00  0.00    +0.000 A 
ATOM     21  C   UNL     1      -1.515   9.873  17.372  0.00  0.00    +0.000 A 
ATOM     22  C   UNL     1      -2.552   9.974  16.441  0.00  0.00    +0.000 A 
ATOM     23  C   UNL     1      -3.620  10.824  16.703  0.00  0.00    +0.000 A 
ATOM     24  C   UNL     1      -3.669  11.572  17.874  0.00  0.00    +0.000 A 
ATOM     25  C   UNL     1      -2.631  11.473  18.807  0.00  0.00    +0.000 A 
BRANCH  23  26
ATOM     26  O   UNL     1      -4.656  10.953  15.821  0.00  0.00    +0.000 OA
ATOM     27  H   UNL     1      -4.428  11.637  15.167  0.00  0.00    +0.000 HD
ENDBRANCH  23  26
ENDBRANCH  18  20
ENDBRANCH  17  18
ENDBRANCH  16  17
ENDBRANCH   2  16
TORSDOF 8
ENDMDL
MODEL 8
REMARK VINA RESULT:      -7.5      2.578      5.503
REMARK  Name = 
REMARK  9 active torsions:
REMARK  status: ('A' for Active; 'I' for Inactive)
REMARK    1  A    between atoms: C_1  and  O_2
REMARK    2  A    between atoms: O_2  and  C_3
REMARK    3  A    between atoms: C_6  and  N_7
REMARK    4  A    between atoms: C_8  and  C_10
REMARK    5  A    between atoms: C_10  and  O_11
REMARK    6  A    between atoms: O_11  and  C_12
REMARK    7  A    between atoms: C_12  and  C_14
REMARK    8  A    between atoms: C_17  and  O_18
REMARK    9  A    between atoms: C_21  and  N_22
REMARK                            x       y       z     vdW  Elec       q    Type
REMARK                         _______ _______ _______ _____ _____    ______ ____
ROOT
ATOM      1  N   UNL     1       2.476   5.865  20.656  0.00  0.00    +0.000 N 
ATOM      2  C   UNL     1       1.774   4.671  20.586  0.00  0.00    +0.000 C 
ATOM      3  O   UNL     1       0.579   4.561  20.318  0.00  0.00    +0.000 OA
ATOM      4  H   UNL     1       3.385   5.828  21.120  0.00  0.00    +0.000 HD
ENDROOT
BRANCH   1   8
ATOM      5  C   UNL     1       0.955   9.712  19.568  0.00  0.00    +0.000 A 
ATOM      6  C   UNL     1       0.842   9.233  20.872  0.00  0.00    +0.000 A 
ATOM      7  C   UNL     1       1.337   7.971  21.230  0.00  0.00    +0.000 A 
ATOM      8  C   UNL     1       1.984   7.153  20.298  0.00  0.00    +0.000 A 
ATOM      9  C   UNL     1       2.105   7.665  18.992  0.00  0.00    +0.000 A 
ATOM     10  C   UNL     1       1.589   8.922  18.617  0.00  0.00    +0.000 A 
BRANCH   9  11
ATOM     11  N   UNL     1       2.841   6.935  17.974  0.00  0.00    +0.000 N 
ATOM     12  O   UNL     1       3.903   7.434  17.572  0.00  0.00    +0.000 OA
ATOM     13  O   UNL     1       2.359   5.863  17.585  0.00  0.00    +0.000 OA
ENDBRANCH   9  11
BRANCH   5  15
ATOM     14  C   UNL     1      -0.992  11.063  19.349  0.00  0.00    +0.000 C 
ATOM     15  O   UNL     1       0.425  10.955  19.367  0.00  0.00    +0.000 OA
ENDBRANCH   5  15
ENDBRANCH   1   8
BRANCH   2  16
ATOM     16  C   UNL     1       2.601   3.425  20.920  0.00  0.00    +0.000 C 
BRANCH  16  17
ATOM     17  O   UNL     1       3.891   3.463  20.309  0.00  0.00    +0.000 OA
BRANCH  17  18
ATOM     18  C   UNL     1       3.884   3.069  19.014  0.00  0.00    +0.000 C 
ATOM     19  O   UNL     1       3.174   2.183  18.558  0.00  0.00    +0.000 OA
BRANCH  18  20
ATOM     20  C   UNL     1       4.863   3.835  18.199  0.00  0.00    +0.000 A 
ATOM     21  C   UNL     1       4.791   3.708  16.802  0.00  0.00    +0.000 A 
ATOM     22  C   UNL     1       5.677   4.406  15.979  0.00  0.00    +0.000 A 
ATOM     23  C   UNL     1       6.632   5.235  16.556  0.00  0.00    +0.000 A 
ATOM     24  C   UNL     1       6.717   5.376  17.937  0.00  0.00    +0.000 A 
ATOM     25  C   UNL     1       5.831   4.676  18.764  0.00  0.00    +0.000 A 
BRANCH  23  26
ATOM     26  O   UNL     1       7.519   5.936  15.789  0.00  0.00    +0.000 OA
ATOM     27  H   UNL     1       7.344   5.743  14.852  0.00  0.00    +0.000 HD
ENDBRANCH  23  26
ENDBRANCH  18  20
ENDBRANCH  17  18
ENDBRANCH  16  17
ENDBRANCH   2  16
TORSDOF 8
ENDMDL
MODEL 9
REMARK VINA RESULT:      -7.4      2.064      5.763
REMARK  Name = 
REMARK  9 active torsions:
REMARK  status: ('A' for Active; 'I' for Inactive)
REMARK    1  A    between atoms: C_1  and  O_2
REMARK    2  A    between atoms: O_2  and  C_3
REMARK    3  A    between atoms: C_6  and  N_7
REMARK    4  A    between atoms: C_8  and  C_10
REMARK    5  A    between atoms: C_10  and  O_11
REMARK    6  A    between atoms: O_11  and  C_12
REMARK    7  A    between atoms: C_12  and  C_14
REMARK    8  A    between atoms: C_17  and  O_18
REMARK    9  A    between atoms: C_21  and  N_22
REMARK                            x       y       z     vdW  Elec       q    Type
REMARK                         _______ _______ _______ _____ _____    ______ ____
ROOT
ATOM      1  N   UNL     1       3.058   4.972  18.416  0.00  0.00    +0.000 N 
ATOM      2  C   UNL     1       2.408   4.136  17.519  0.00  0.00    +0.000 C 
ATOM      3  O   UNL     1       1.204   4.154  17.273  0.00  0.00    +0.000 OA
ATOM      4  H   UNL     1       3.997   4.688  18.698  0.00  0.00    +0.000 HD
ENDROOT
BRANCH   1   8
ATOM      5  C   UNL     1       1.381   8.312  20.496  0.00  0.00    +0.000 A 
ATOM      6  C   UNL     1       1.977   8.465  19.246  0.00  0.00    +0.000 A 
ATOM      7  C   UNL     1       2.531   7.372  18.565  0.00  0.00    +0.000 A 
ATOM      8  C   UNL     1       2.485   6.081  19.101  0.00  0.00    +0.000 A 
ATOM      9  C   UNL     1       1.860   5.946  20.356  0.00  0.00    +0.000 A 
ATOM     10  C   UNL     1       1.322   7.043  21.060  0.00  0.00    +0.000 A 
BRANCH   9  11
ATOM     11  N   UNL     1       1.678   4.636  20.957  0.00  0.00    +0.000 N 
ATOM     12  O   UNL     1       2.474   4.303  21.847  0.00  0.00    +0.000 OA
ATOM     13  O   UNL     1       0.735   3.948  20.542  0.00  0.00    +0.000 OA
ENDBRANCH   9  11
BRANCH   5  15
ATOM     14  C   UNL     1       0.585  10.527  20.147  0.00  0.00    +0.000 C 
ATOM     15  O   UNL     1       0.888   9.463  21.040  0.00  0.00    +0.000 OA
ENDBRANCH   5  15
ENDBRANCH   1   8
BRANCH   2  16
ATOM     16  C   UNL     1       3.312   3.100  16.843  0.00  0.00    +0.000 C 
BRANCH  16  17
ATOM     17  O   UNL     1       4.689   3.313  17.154  0.00  0.00    +0.000 OA
BRANCH  17  18
ATOM     18  C   UNL     1       5.319   4.128  16.275  0.00  0.00    +0.000 C 
ATOM     19  O   UNL     1       5.218   4.053  15.059  0.00  0.00    +0.000 OA
BRANCH  18  20
ATOM     20  C   UNL     1       6.173   5.130  16.966  0.00  0.00    +0.000 A 
ATOM     21  C   UNL     1       7.066   4.663  17.943  0.00  0.00    +0.000 A 
ATOM     22  C   UNL     1       7.901   5.551  18.625  0.00  0.00    +0.000 A 
ATOM     23  C   UNL     1       7.843   6.907  18.323  0.00  0.00    +0.000 A 
ATOM     24  C   UNL     1       6.967   7.387  17.356  0.00  0.00    +0.000 A 
ATOM     25  C   UNL     1       6.128   6.500  16.673  0.00  0.00    +0.000 A 
BRANCH  23  26
ATOM     26  O   UNL     1       8.641   7.811  18.965  0.00  0.00    +0.000 OA
ATOM     27  H   UNL     1       9.216   8.244  18.310  0.00  0.00    +0.000 HD
ENDBRANCH  23  26
ENDBRANCH  18  20
ENDBRANCH  17  18
ENDBRANCH  16  17
ENDBRANCH   2  16
TORSDOF 8
ENDMDL
