MODEL 1
REMARK VINA RESULT:      -8.1      0.000      0.000
REMARK  Name = 
REMARK  9 active torsions:
REMARK  status: ('A' for Active; 'I' for Inactive)
REMARK    1  A    between atoms: C_1  and  O_2
REMARK    2  A    between atoms: O_2  and  C_3
REMARK    3  A    between atoms: C_7  and  C_8
REMARK    4  A    between atoms: C_12  and  S_13
REMARK    5  A    between atoms: S_13  and  C_14
REMARK    6  A    between atoms: C_14  and  C_15
REMARK    7  A    between atoms: C_20  and  C_21
REMARK    8  A    between atoms: C_27  and  O_28
REMARK    9  A    between atoms: O_28  and  C_29
REMARK                            x       y       z     vdW  Elec       q    Type
REMARK                         _______ _______ _______ _____ _____    ______ ____
ROOT
ATOM      1  C   UNL     1       0.983   9.248  19.423  0.00  0.00    +0.000 A 
ATOM      2  C   UNL     1       0.990   8.147  20.270  0.00  0.00    +0.000 A 
ATOM      3  C   UNL     1       1.808   7.048  20.031  0.00  0.00    +0.000 A 
ATOM      4  C   UNL     1       1.681   5.899  20.923  0.00  0.00    +0.000 A 
ATOM      5  C   UNL     1       2.394   4.779  20.726  0.00  0.00    +0.000 A 
ATOM      6  C   UNL     1       2.202   3.625  21.682  0.00  0.00    +0.000 C 
ATOM      7  C   UNL     1       3.279   4.739  19.607  0.00  0.00    +0.000 A 
ATOM      8  N   UNL     1       4.023   3.742  19.172  0.00  0.00    +0.000 NA
ATOM      9  N   UNL     1       4.674   4.156  18.044  0.00  0.00    +0.000 NA
ATOM     10  C   UNL     1       4.342   5.408  17.814  0.00  0.00    +0.000 A 
ATOM     11  N   UNL     1       3.429   5.848  18.760  0.00  0.00    +0.000 N 
ATOM     12  C   UNL     1       2.688   7.050  18.942  0.00  0.00    +0.000 A 
ATOM     13  C   UNL     1       2.757   8.191  18.134  0.00  0.00    +0.000 A 
ATOM     14  C   UNL     1       1.925   9.308  18.384  0.00  0.00    +0.000 A 
ENDROOT
BRANCH   1  16
ATOM     15  C   UNL     1      -1.048  10.161  18.666  0.00  0.00    +0.000 C 
ATOM     16  O   UNL     1       0.051  10.247  19.583  0.00  0.00    +0.000 OA
ENDBRANCH   1  16
BRANCH  14  17
ATOM     17  O   UNL     1       2.114  10.338  17.496  0.00  0.00    +0.000 OA
ATOM     18  C   UNL     1       2.461  11.610  18.035  0.00  0.00    +0.000 C 
ENDBRANCH  14  17
BRANCH  10  19
ATOM     19  S   UNL     1       4.951   6.282  16.456  0.00  0.00    +0.000 S 
BRANCH  19  20
ATOM     20  C   UNL     1       6.731   5.927  16.564  0.00  0.00    +0.000 C 
BRANCH  20  21
ATOM     21  C   UNL     1       7.391   6.824  17.593  0.00  0.00    +0.000 C 
ATOM     22  O   UNL     1       7.590   6.393  18.730  0.00  0.00    +0.000 OA
ATOM     23  N   UNL     1       7.667   8.106  17.146  0.00  0.00    +0.000 N 
ATOM     24  C   UNL     1       8.281   9.053  17.954  0.00  0.00    +0.000 A 
ATOM     25  C   UNL     1       8.300  10.447  17.702  0.00  0.00    +0.000 A 
ATOM     26  C   UNL     1       9.005  10.981  18.756  0.00  0.00    +0.000 A 
ATOM     27  C   UNL     1       9.398  12.338  19.169  0.00  0.00    +0.000 C 
ATOM     28  O   UNL     1       9.402   9.975  19.575  0.00  0.00    +0.000 OA
ATOM     29  N   UNL     1       8.948   8.777  19.077  0.00  0.00    +0.000 NA
ATOM     30  H   UNL     1       7.315   8.417  16.250  0.00  0.00    +0.000 HD
ENDBRANCH  20  21
ENDBRANCH  19  20
ENDBRANCH  10  19
TORSDOF 5
ENDMDL
MODEL 2
REMARK VINA RESULT:      -7.9      2.904      7.455
REMARK  Name = 
REMARK  9 active torsions:
REMARK  status: ('A' for Active; 'I' for Inactive)
REMARK    1  A    between atoms: C_1  and  O_2
REMARK    2  A    between atoms: O_2  and  C_3
REMARK    3  A    between atoms: C_7  and  C_8
REMARK    4  A    between atoms: C_12  and  S_13
REMARK    5  A    between atoms: S_13  and  C_14
REMARK    6  A    between atoms: C_14  and  C_15
REMARK    7  A    between atoms: C_20  and  C_21
REMARK    8  A    between atoms: C_27  and  O_28
REMARK    9  A    between atoms: O_28  and  C_29
REMARK                            x       y       z     vdW  Elec       q    Type
REMARK                         _______ _______ _______ _____ _____    ______ ____
ROOT
ATOM      1  C   UNL     1       6.080   4.965  16.308  0.00  0.00    +0.000 A 
ATOM      2  C   UNL     1       5.217   3.905  16.552  0.00  0.00    +0.000 A 
ATOM      3  C   UNL     1       4.116   4.037  17.391  0.00  0.00    +0.000 A 
ATOM      4  C   UNL     1       3.319   2.844  17.659  0.00  0.00    +0.000 A 
ATOM      5  C   UNL     1       2.275   2.875  18.502  0.00  0.00    +0.000 A 
ATOM      6  C   UNL     1       1.503   1.600  18.742  0.00  0.00    +0.000 C 
ATOM      7  C   UNL     1       1.970   4.116  19.140  0.00  0.00    +0.000 A 
ATOM      8  N   UNL     1       1.049   4.380  20.045  0.00  0.00    +0.000 NA
ATOM      9  N   UNL     1       1.156   5.698  20.391  0.00  0.00    +0.000 NA
ATOM     10  C   UNL     1       2.123   6.233  19.678  0.00  0.00    +0.000 A 
ATOM     11  N   UNL     1       2.712   5.275  18.867  0.00  0.00    +0.000 N 
ATOM     12  C   UNL     1       3.824   5.274  17.978  0.00  0.00    +0.000 A 
ATOM     13  C   UNL     1       4.632   6.374  17.667  0.00  0.00    +0.000 A 
ATOM     14  C   UNL     1       5.750   6.235  16.810  0.00  0.00    +0.000 A 
ENDROOT
BRANCH   1  16
ATOM     15  C   UNL     1       7.087   4.811  14.189  0.00  0.00    +0.000 C 
ATOM     16  O   UNL     1       7.250   4.770  15.612  0.00  0.00    +0.000 OA
ENDBRANCH   1  16
BRANCH  14  17
ATOM     17  O   UNL     1       6.438   7.406  16.616  0.00  0.00    +0.000 OA
ATOM     18  C   UNL     1       7.504   7.695  17.515  0.00  0.00    +0.000 C 
ENDBRANCH  14  17
BRANCH  10  19
ATOM     19  S   UNL     1       2.576   7.889  19.846  0.00  0.00    +0.000 S 
BRANCH  19  20
ATOM     20  C   UNL     1       1.884   8.611  18.327  0.00  0.00    +0.000 C 
BRANCH  20  21
ATOM     21  C   UNL     1       0.672   9.464  18.646  0.00  0.00    +0.000 C 
ATOM     22  O   UNL     1       0.532   9.910  19.787  0.00  0.00    +0.000 OA
ATOM     23  N   UNL     1      -0.217   9.618  17.595  0.00  0.00    +0.000 N 
ATOM     24  C   UNL     1      -1.372  10.378  17.711  0.00  0.00    +0.000 A 
ATOM     25  C   UNL     1      -2.476  10.322  16.823  0.00  0.00    +0.000 A 
ATOM     26  C   UNL     1      -3.377  11.229  17.330  0.00  0.00    +0.000 A 
ATOM     27  C   UNL     1      -4.726  11.683  16.955  0.00  0.00    +0.000 C 
ATOM     28  O   UNL     1      -2.844  11.808  18.435  0.00  0.00    +0.000 OA
ATOM     29  N   UNL     1      -1.600  11.275  18.673  0.00  0.00    +0.000 NA
ATOM     30  H   UNL     1      -0.099   9.077  16.748  0.00  0.00    +0.000 HD
ENDBRANCH  20  21
ENDBRANCH  19  20
ENDBRANCH  10  19
TORSDOF 5
ENDMDL
MODEL 3
REMARK VINA RESULT:      -7.8      4.057      7.456
REMARK  Name = 
REMARK  9 active torsions:
REMARK  status: ('A' for Active; 'I' for Inactive)
REMARK    1  A    between atoms: C_1  and  O_2
REMARK    2  A    between atoms: O_2  and  C_3
REMARK    3  A    between atoms: C_7  and  C_8
REMARK    4  A    between atoms: C_12  and  S_13
REMARK    5  A    between atoms: S_13  and  C_14
REMARK    6  A    between atoms: C_14  and  C_15
REMARK    7  A    between atoms: C_20  and  C_21
REMARK    8  A    between atoms: C_27  and  O_28
REMARK    9  A    between atoms: O_28  and  C_29
REMARK                            x       y       z     vdW  Elec       q    Type
REMARK                         _______ _______ _______ _____ _____    ______ ____
ROOT
ATOM      1  C   UNL     1      -4.914  12.041  18.324  0.00  0.00    +0.000 A 
ATOM      2  C   UNL     1      -4.454  12.574  19.522  0.00  0.00    +0.000 A 
ATOM      3  C   UNL     1      -3.170  12.317  19.990  0.00  0.00    +0.000 A 
ATOM      4  C   UNL     1      -2.807  12.844  21.301  0.00  0.00    +0.000 A 
ATOM      5  C   UNL     1      -1.607  12.592  21.848  0.00  0.00    +0.000 A 
ATOM      6  C   UNL     1      -1.303  13.160  23.215  0.00  0.00    +0.000 C 
ATOM      7  C   UNL     1      -0.693  11.781  21.109  0.00  0.00    +0.000 A 
ATOM      8  N   UNL     1       0.500  11.346  21.458  0.00  0.00    +0.000 NA
ATOM      9  N   UNL     1       0.985  10.569  20.443  0.00  0.00    +0.000 NA
ATOM     10  C   UNL     1       0.096  10.558  19.473  0.00  0.00    +0.000 A 
ATOM     11  N   UNL     1      -1.022  11.294  19.835  0.00  0.00    +0.000 N 
ATOM     12  C   UNL     1      -2.286  11.543  19.228  0.00  0.00    +0.000 A 
ATOM     13  C   UNL     1      -2.706  11.077  17.977  0.00  0.00    +0.000 A 
ATOM     14  C   UNL     1      -4.013  11.344  17.504  0.00  0.00    +0.000 A 
ENDROOT
BRANCH   1  16
ATOM     15  C   UNL     1      -6.512  13.352  17.202  0.00  0.00    +0.000 C 
ATOM     16  O   UNL     1      -6.235  12.169  17.963  0.00  0.00    +0.000 OA
ENDBRANCH   1  16
BRANCH  14  17
ATOM     17  O   UNL     1      -4.264  10.810  16.264  0.00  0.00    +0.000 OA
ATOM     18  C   UNL     1      -3.166  10.702  15.364  0.00  0.00    +0.000 C 
ENDBRANCH  14  17
BRANCH  10  19
ATOM     19  S   UNL     1       0.340   9.664  18.018  0.00  0.00    +0.000 S 
BRANCH  19  20
ATOM     20  C   UNL     1       2.155   9.575  17.947  0.00  0.00    +0.000 C 
BRANCH  20  21
ATOM     21  C   UNL     1       2.631   8.166  18.243  0.00  0.00    +0.000 C 
ATOM     22  O   UNL     1       3.424   7.623  17.471  0.00  0.00    +0.000 OA
ATOM     23  N   UNL     1       2.064   7.591  19.368  0.00  0.00    +0.000 N 
ATOM     24  C   UNL     1       2.397   6.312  19.790  0.00  0.00    +0.000 A 
ATOM     25  C   UNL     1       1.645   5.537  20.708  0.00  0.00    +0.000 A 
ATOM     26  C   UNL     1       2.341   4.355  20.818  0.00  0.00    +0.000 A 
ATOM     27  C   UNL     1       2.154   3.097  21.558  0.00  0.00    +0.000 C 
ATOM     28  O   UNL     1       3.448   4.423  20.037  0.00  0.00    +0.000 OA
ATOM     29  N   UNL     1       3.479   5.638  19.395  0.00  0.00    +0.000 NA
ATOM     30  H   UNL     1       1.299   8.053  19.842  0.00  0.00    +0.000 HD
ENDBRANCH  20  21
ENDBRANCH  19  20
ENDBRANCH  10  19
TORSDOF 5
ENDMDL
MODEL 4
REMARK VINA RESULT:      -7.6      0.928      1.192
REMARK  Name = 
REMARK  9 active torsions:
REMARK  status: ('A' for Active; 'I' for Inactive)
REMARK    1  A    between atoms: C_1  and  O_2
REMARK    2  A    between atoms: O_2  and  C_3
REMARK    3  A    between atoms: C_7  and  C_8
REMARK    4  A    between atoms: C_12  and  S_13
REMARK    5  A    between atoms: S_13  and  C_14
REMARK    6  A    between atoms: C_14  and  C_15
REMARK    7  A    between atoms: C_20  and  C_21
REMARK    8  A    between atoms: C_27  and  O_28
REMARK    9  A    between atoms: O_28  and  C_29
REMARK                            x       y       z     vdW  Elec       q    Type
REMARK                         _______ _______ _______ _____ _____    ______ ____
ROOT
ATOM      1  C   UNL     1       1.011   8.195  20.474  0.00  0.00    +0.000 A 
ATOM      2  C   UNL     1       1.141   6.954  21.084  0.00  0.00    +0.000 A 
ATOM      3  C   UNL     1       1.971   5.968  20.563  0.00  0.00    +0.000 A 
ATOM      4  C   UNL     1       1.974   4.664  21.221  0.00  0.00    +0.000 A 
ATOM      5  C   UNL     1       2.703   3.643  20.745  0.00  0.00    +0.000 A 
ATOM      6  C   UNL     1       2.648   2.319  21.470  0.00  0.00    +0.000 C 
ATOM      7  C   UNL     1       3.476   3.867  19.565  0.00  0.00    +0.000 A 
ATOM      8  N   UNL     1       4.210   3.014  18.880  0.00  0.00    +0.000 NA
ATOM      9  N   UNL     1       4.732   3.672  17.801  0.00  0.00    +0.000 NA
ATOM     10  C   UNL     1       4.334   4.925  17.851  0.00  0.00    +0.000 A 
ATOM     11  N   UNL     1       3.502   5.124  18.942  0.00  0.00    +0.000 N 
ATOM     12  C   UNL     1       2.740   6.226  19.421  0.00  0.00    +0.000 A 
ATOM     13  C   UNL     1       2.688   7.504  18.851  0.00  0.00    +0.000 A 
ATOM     14  C   UNL     1       1.844   8.505  19.387  0.00  0.00    +0.000 A 
ENDROOT
BRANCH   1  16
ATOM     15  C   UNL     1       0.497   9.900  22.010  0.00  0.00    +0.000 C 
ATOM     16  O   UNL     1       0.064   9.092  20.908  0.00  0.00    +0.000 OA
ENDBRANCH   1  16
BRANCH  14  17
ATOM     17  O   UNL     1       1.908   9.695  18.705  0.00  0.00    +0.000 OA
ATOM     18  C   UNL     1       0.846   9.988  17.802  0.00  0.00    +0.000 C 
ENDBRANCH  14  17
BRANCH  10  19
ATOM     19  S   UNL     1       4.774   6.074  16.642  0.00  0.00    +0.000 S 
BRANCH  19  20
ATOM     20  C   UNL     1       6.576   5.839  16.558  0.00  0.00    +0.000 C 
BRANCH  20  21
ATOM     21  C   UNL     1       7.277   6.732  17.564  0.00  0.00    +0.000 C 
ATOM     22  O   UNL     1       7.514   6.298  18.693  0.00  0.00    +0.000 OA
ATOM     23  N   UNL     1       7.544   8.013  17.109  0.00  0.00    +0.000 N 
ATOM     24  C   UNL     1       8.190   8.955  17.896  0.00  0.00    +0.000 A 
ATOM     25  C   UNL     1       8.208  10.350  17.646  0.00  0.00    +0.000 A 
ATOM     26  C   UNL     1       8.952  10.878  18.676  0.00  0.00    +0.000 A 
ATOM     27  C   UNL     1       9.367  12.232  19.076  0.00  0.00    +0.000 C 
ATOM     28  O   UNL     1       9.373   9.869  19.478  0.00  0.00    +0.000 OA
ATOM     29  N   UNL     1       8.895   8.674  18.995  0.00  0.00    +0.000 NA
ATOM     30  H   UNL     1       7.162   8.327  16.227  0.00  0.00    +0.000 HD
ENDBRANCH  20  21
ENDBRANCH  19  20
ENDBRANCH  10  19
TORSDOF 5
ENDMDL
MODEL 5
REMARK VINA RESULT:      -7.5      3.195      6.631
REMARK  Name = 
REMARK  9 active torsions:
REMARK  status: ('A' for Active; 'I' for Inactive)
REMARK    1  A    between atoms: C_1  and  O_2
REMARK    2  A    between atoms: O_2  and  C_3
REMARK    3  A    between atoms: C_7  and  C_8
REMARK    4  A    between atoms: C_12  and  S_13
REMARK    5  A    between atoms: S_13  and  C_14
REMARK    6  A    between atoms: C_14  and  C_15
REMARK    7  A    between atoms: C_20  and  C_21
REMARK    8  A    between atoms: C_27  and  O_28
REMARK    9  A    between atoms: O_28  and  C_29
REMARK                            x       y       z     vdW  Elec       q    Type
REMARK                         _______ _______ _______ _____ _____    ______ ____
ROOT
ATOM      1  C   UNL     1       6.061   4.964  16.400  0.00  0.00    +0.000 A 
ATOM      2  C   UNL     1       5.258   3.851  16.619  0.00  0.00    +0.000 A 
ATOM      3  C   UNL     1       4.141   3.909  17.444  0.00  0.00    +0.000 A 
ATOM      4  C   UNL     1       3.411   2.668  17.687  0.00  0.00    +0.000 A 
ATOM      5  C   UNL     1       2.356   2.628  18.516  0.00  0.00    +0.000 A 
ATOM      6  C   UNL     1       1.656   1.307  18.730  0.00  0.00    +0.000 C 
ATOM      7  C   UNL     1       1.971   3.841  19.165  0.00  0.00    +0.000 A 
ATOM      8  N   UNL     1       1.025   4.039  20.060  0.00  0.00    +0.000 NA
ATOM      9  N   UNL     1       1.051   5.356  20.425  0.00  0.00    +0.000 NA
ATOM     10  C   UNL     1       1.994   5.956  19.731  0.00  0.00    +0.000 A 
ATOM     11  N   UNL     1       2.648   5.044  18.916  0.00  0.00    +0.000 N 
ATOM     12  C   UNL     1       3.770   5.119  18.043  0.00  0.00    +0.000 A 
ATOM     13  C   UNL     1       4.517   6.268  17.757  0.00  0.00    +0.000 A 
ATOM     14  C   UNL     1       5.651   6.205  16.913  0.00  0.00    +0.000 A 
ENDROOT
BRANCH   1  16
ATOM     15  C   UNL     1       7.096   4.830  14.293  0.00  0.00    +0.000 C 
ATOM     16  O   UNL     1       7.249   4.846  15.718  0.00  0.00    +0.000 OA
ENDBRANCH   1  16
BRANCH  14  17
ATOM     17  O   UNL     1       6.273   7.417  16.743  0.00  0.00    +0.000 OA
ATOM     18  C   UNL     1       7.436   7.670  17.524  0.00  0.00    +0.000 C 
ENDBRANCH  14  17
BRANCH  10  19
ATOM     19  S   UNL     1       2.348   7.633  19.926  0.00  0.00    +0.000 S 
BRANCH  19  20
ATOM     20  C   UNL     1       1.080   8.133  21.131  0.00  0.00    +0.000 C 
BRANCH  20  21
ATOM     21  C   UNL     1       1.085   9.637  21.316  0.00  0.00    +0.000 C 
ATOM     22  O   UNL     1       1.249  10.106  22.444  0.00  0.00    +0.000 OA
ATOM     23  N   UNL     1       0.841  10.360  20.160  0.00  0.00    +0.000 N 
ATOM     24  C   UNL     1       0.821  11.748  20.147  0.00  0.00    +0.000 A 
ATOM     25  C   UNL     1       0.267  12.544  19.114  0.00  0.00    +0.000 A 
ATOM     26  C   UNL     1       0.466  13.840  19.529  0.00  0.00    +0.000 A 
ATOM     27  C   UNL     1       0.142  15.171  18.991  0.00  0.00    +0.000 C 
ATOM     28  O   UNL     1       1.115  13.826  20.720  0.00  0.00    +0.000 OA
ATOM     29  N   UNL     1       1.331  12.525  21.105  0.00  0.00    +0.000 NA
ATOM     30  H   UNL     1       0.552   9.883  19.315  0.00  0.00    +0.000 HD
ENDBRANCH  20  21
ENDBRANCH  19  20
ENDBRANCH  10  19
TORSDOF 5
ENDMDL
MODEL 6
REMARK VINA RESULT:      -7.5      3.863      6.725
REMARK  Name = 
REMARK  9 active torsions:
REMARK  status: ('A' for Active; 'I' for Inactive)
REMARK    1  A    between atoms: C_1  and  O_2
REMARK    2  A    between atoms: O_2  and  C_3
REMARK    3  A    between atoms: C_7  and  C_8
REMARK    4  A    between atoms: C_12  and  S_13
REMARK    5  A    between atoms: S_13  and  C_14
REMARK    6  A    between atoms: C_14  and  C_15
REMARK    7  A    between atoms: C_20  and  C_21
REMARK    8  A    between atoms: C_27  and  O_28
REMARK    9  A    between atoms: O_28  and  C_29
REMARK                            x       y       z     vdW  Elec       q    Type
REMARK                         _______ _______ _______ _____ _____    ______ ____
ROOT
ATOM      1  C   UNL     1      -3.709  11.297  17.440  0.00  0.00    +0.000 A 
ATOM      2  C   UNL     1      -3.625  12.034  18.614  0.00  0.00    +0.000 A 
ATOM      3  C   UNL     1      -2.554  11.895  19.489  0.00  0.00    +0.000 A 
ATOM      4  C   UNL     1      -2.597  12.644  20.741  0.00  0.00    +0.000 A 
ATOM      5  C   UNL     1      -1.629  12.519  21.664  0.00  0.00    +0.000 A 
ATOM      6  C   UNL     1      -1.746  13.316  22.942  0.00  0.00    +0.000 C 
ATOM      7  C   UNL     1      -0.555  11.621  21.387  0.00  0.00    +0.000 A 
ATOM      8  N   UNL     1       0.463  11.283  22.153  0.00  0.00    +0.000 NA
ATOM      9  N   UNL     1       1.215  10.362  21.481  0.00  0.00    +0.000 NA
ATOM     10  C   UNL     1       0.667  10.164  20.302  0.00  0.00    +0.000 A 
ATOM     11  N   UNL     1      -0.489  10.919  20.174  0.00  0.00    +0.000 N 
ATOM     12  C   UNL     1      -1.499  11.028  19.177  0.00  0.00    +0.000 A 
ATOM     13  C   UNL     1      -1.526  10.348  17.953  0.00  0.00    +0.000 A 
ATOM     14  C   UNL     1      -2.617  10.497  17.065  0.00  0.00    +0.000 A 
ENDROOT
BRANCH   1  16
ATOM     15  C   UNL     1      -5.841  12.245  17.154  0.00  0.00    +0.000 C 
ATOM     16  O   UNL     1      -4.851  11.326  16.675  0.00  0.00    +0.000 OA
ENDBRANCH   1  16
BRANCH  14  17
ATOM     17  O   UNL     1      -2.490   9.756  15.916  0.00  0.00    +0.000 OA
ATOM     18  C   UNL     1      -2.965  10.340  14.706  0.00  0.00    +0.000 C 
ENDBRANCH  14  17
BRANCH  10  19
ATOM     19  S   UNL     1       1.322   9.046  19.163  0.00  0.00    +0.000 S 
BRANCH  19  20
ATOM     20  C   UNL     1       1.843   7.684  20.250  0.00  0.00    +0.000 C 
BRANCH  20  21
ATOM     21  C   UNL     1       2.525   6.593  19.448  0.00  0.00    +0.000 C 
ATOM     22  O   UNL     1       2.452   5.425  19.835  0.00  0.00    +0.000 OA
ATOM     23  N   UNL     1       3.233   7.045  18.347  0.00  0.00    +0.000 N 
ATOM     24  C   UNL     1       3.907   6.179  17.497  0.00  0.00    +0.000 A 
ATOM     25  C   UNL     1       4.904   6.565  16.566  0.00  0.00    +0.000 A 
ATOM     26  C   UNL     1       5.287   5.390  15.961  0.00  0.00    +0.000 A 
ATOM     27  C   UNL     1       6.269   5.019  14.930  0.00  0.00    +0.000 C 
ATOM     28  O   UNL     1       4.555   4.371  16.475  0.00  0.00    +0.000 OA
ATOM     29  N   UNL     1       3.701   4.862  17.433  0.00  0.00    +0.000 NA
ATOM     30  H   UNL     1       3.372   8.037  18.207  0.00  0.00    +0.000 HD
ENDBRANCH  20  21
ENDBRANCH  19  20
ENDBRANCH  10  19
TORSDOF 5
ENDMDL
MODEL 7
REMARK VINA RESULT:      -7.4      3.009      7.130
REMARK  Name = 
REMARK  9 active torsions:
REMARK  status: ('A' for Active; 'I' for Inactive)
REMARK    1  A    between atoms: C_1  and  O_2
REMARK    2  A    between atoms: O_2  and  C_3
REMARK    3  A    between atoms: C_7  and  C_8
REMARK    4  A    between atoms: C_12  and  S_13
REMARK    5  A    between atoms: S_13  and  C_14
REMARK    6  A    between atoms: C_14  and  C_15
REMARK    7  A    between atoms: C_20  and  C_21
REMARK    8  A    between atoms: C_27  and  O_28
REMARK    9  A    between atoms: O_28  and  C_29
REMARK                            x       y       z     vdW  Elec       q    Type
REMARK                         _______ _______ _______ _____ _____    ______ ____
ROOT
ATOM      1  C   UNL     1       6.081   5.011  16.300  0.00  0.00    +0.000 A 
ATOM      2  C   UNL     1       5.242   3.924  16.513  0.00  0.00    +0.000 A 
ATOM      3  C   UNL     1       4.147   4.003  17.367  0.00  0.00    +0.000 A 
ATOM      4  C   UNL     1       3.377   2.785  17.599  0.00  0.00    +0.000 A 
ATOM      5  C   UNL     1       2.341   2.765  18.452  0.00  0.00    +0.000 A 
ATOM      6  C   UNL     1       1.597   1.466  18.653  0.00  0.00    +0.000 C 
ATOM      7  C   UNL     1       2.017   3.975  19.138  0.00  0.00    +0.000 A 
ATOM      8  N   UNL     1       1.100   4.187  20.060  0.00  0.00    +0.000 NA
ATOM      9  N   UNL     1       1.185   5.493  20.454  0.00  0.00    +0.000 NA
ATOM     10  C   UNL     1       2.133   6.074  19.751  0.00  0.00    +0.000 A 
ATOM     11  N   UNL     1       2.733   5.158  18.900  0.00  0.00    +0.000 N 
ATOM     12  C   UNL     1       3.836   5.212  18.002  0.00  0.00    +0.000 A 
ATOM     13  C   UNL     1       4.619   6.339  17.724  0.00  0.00    +0.000 A 
ATOM     14  C   UNL     1       5.730   6.254  16.852  0.00  0.00    +0.000 A 
ENDROOT
BRANCH   1  16
ATOM     15  C   UNL     1       7.050   4.790  14.170  0.00  0.00    +0.000 C 
ATOM     16  O   UNL     1       7.247   4.865  15.587  0.00  0.00    +0.000 OA
ENDBRANCH   1  16
BRANCH  14  17
ATOM     17  O   UNL     1       6.393   7.446  16.695  0.00  0.00    +0.000 OA
ATOM     18  C   UNL     1       7.516   7.685  17.537  0.00  0.00    +0.000 C 
ENDBRANCH  14  17
BRANCH  10  19
ATOM     19  S   UNL     1       2.555   7.732  19.976  0.00  0.00    +0.000 S 
BRANCH  19  20
ATOM     20  C   UNL     1       1.763   8.506  18.533  0.00  0.00    +0.000 C 
BRANCH  20  21
ATOM     21  C   UNL     1       0.875   9.656  18.966  0.00  0.00    +0.000 C 
ATOM     22  O   UNL     1       0.655  10.578  18.177  0.00  0.00    +0.000 OA
ATOM     23  N   UNL     1       0.426   9.577  20.273  0.00  0.00    +0.000 N 
ATOM     24  C   UNL     1      -0.406  10.539  20.828  0.00  0.00    +0.000 A 
ATOM     25  C   UNL     1      -0.639  10.712  22.215  0.00  0.00    +0.000 A 
ATOM     26  C   UNL     1      -1.511  11.773  22.292  0.00  0.00    +0.000 A 
ATOM     27  C   UNL     1      -2.162  12.513  23.385  0.00  0.00    +0.000 C 
ATOM     28  O   UNL     1      -1.801  12.196  21.036  0.00  0.00    +0.000 OA
ATOM     29  N   UNL     1      -1.110  11.431  20.127  0.00  0.00    +0.000 NA
ATOM     30  H   UNL     1       0.796   8.868  20.894  0.00  0.00    +0.000 HD
ENDBRANCH  20  21
ENDBRANCH  19  20
ENDBRANCH  10  19
TORSDOF 5
ENDMDL
MODEL 8
REMARK VINA RESULT:      -7.4      4.449      7.658
REMARK  Name = 
REMARK  9 active torsions:
REMARK  status: ('A' for Active; 'I' for Inactive)
REMARK    1  A    between atoms: C_1  and  O_2
REMARK    2  A    between atoms: O_2  and  C_3
REMARK    3  A    between atoms: C_7  and  C_8
REMARK    4  A    between atoms: C_12  and  S_13
REMARK    5  A    between atoms: S_13  and  C_14
REMARK    6  A    between atoms: C_14  and  C_15
REMARK    7  A    between atoms: C_20  and  C_21
REMARK    8  A    between atoms: C_27  and  O_28
REMARK    9  A    between atoms: O_28  and  C_29
REMARK                            x       y       z     vdW  Elec       q    Type
REMARK                         _______ _______ _______ _____ _____    ______ ____
ROOT
ATOM      1  C   UNL     1      -4.707  11.770  18.153  0.00  0.00    +0.000 A 
ATOM      2  C   UNL     1      -4.746  12.319  19.429  0.00  0.00    +0.000 A 
ATOM      3  C   UNL     1      -3.590  12.510  20.177  0.00  0.00    +0.000 A 
ATOM      4  C   UNL     1      -3.737  13.008  21.541  0.00  0.00    +0.000 A 
ATOM      5  C   UNL     1      -2.675  13.166  22.347  0.00  0.00    +0.000 A 
ATOM      6  C   UNL     1      -2.904  13.674  23.750  0.00  0.00    +0.000 C 
ATOM      7  C   UNL     1      -1.389  12.821  21.830  0.00  0.00    +0.000 A 
ATOM      8  N   UNL     1      -0.221  12.826  22.441  0.00  0.00    +0.000 NA
ATOM      9  N   UNL     1       0.723  12.381  21.558  0.00  0.00    +0.000 NA
ATOM     10  C   UNL     1       0.129  12.134  20.410  0.00  0.00    +0.000 A 
ATOM     11  N   UNL     1      -1.233  12.369  20.511  0.00  0.00    +0.000 N 
ATOM     12  C   UNL     1      -2.339  12.191  19.633  0.00  0.00    +0.000 A 
ATOM     13  C   UNL     1      -2.278  11.724  18.315  0.00  0.00    +0.000 A 
ATOM     14  C   UNL     1      -3.458  11.534  17.557  0.00  0.00    +0.000 A 
ENDROOT
BRANCH   1  16
ATOM     15  C   UNL     1      -6.972  11.182  18.379  0.00  0.00    +0.000 C 
ATOM     16  O   UNL     1      -5.870  11.436  17.499  0.00  0.00    +0.000 OA
ENDBRANCH   1  16
BRANCH  14  17
ATOM     17  O   UNL     1      -3.222  11.064  16.288  0.00  0.00    +0.000 OA
ATOM     18  C   UNL     1      -2.610   9.783  16.169  0.00  0.00    +0.000 C 
ENDBRANCH  14  17
BRANCH  10  19
ATOM     19  S   UNL     1       0.994  11.534  19.043  0.00  0.00    +0.000 S 
BRANCH  19  20
ATOM     20  C   UNL     1       0.814   9.737  19.261  0.00  0.00    +0.000 C 
BRANCH  20  21
ATOM     21  C   UNL     1       1.803   8.993  18.385  0.00  0.00    +0.000 C 
ATOM     22  O   UNL     1       2.242   9.541  17.372  0.00  0.00    +0.000 OA
ATOM     23  N   UNL     1       2.083   7.702  18.801  0.00  0.00    +0.000 N 
ATOM     24  C   UNL     1       2.975   6.885  18.121  0.00  0.00    +0.000 A 
ATOM     25  C   UNL     1       3.070   5.479  18.274  0.00  0.00    +0.000 A 
ATOM     26  C   UNL     1       4.071   5.102  17.409  0.00  0.00    +0.000 A 
ATOM     27  C   UNL     1       4.692   3.824  17.024  0.00  0.00    +0.000 C 
ATOM     28  O   UNL     1       4.561   6.207  16.794  0.00  0.00    +0.000 OA
ATOM     29  N   UNL     1       3.876   7.314  17.235  0.00  0.00    +0.000 NA
ATOM     30  H   UNL     1       1.546   7.283  19.550  0.00  0.00    +0.000 HD
ENDBRANCH  20  21
ENDBRANCH  19  20
ENDBRANCH  10  19
TORSDOF 5
ENDMDL
MODEL 9
REMARK VINA RESULT:      -7.3      2.888      6.300
REMARK  Name = 
REMARK  9 active torsions:
REMARK  status: ('A' for Active; 'I' for Inactive)
REMARK    1  A    between atoms: C_1  and  O_2
REMARK    2  A    between atoms: O_2  and  C_3
REMARK    3  A    between atoms: C_7  and  C_8
REMARK    4  A    between atoms: C_12  and  S_13
REMARK    5  A    between atoms: S_13  and  C_14
REMARK    6  A    between atoms: C_14  and  C_15
REMARK    7  A    between atoms: C_20  and  C_21
REMARK    8  A    between atoms: C_27  and  O_28
REMARK    9  A    between atoms: O_28  and  C_29
REMARK                            x       y       z     vdW  Elec       q    Type
REMARK                         _______ _______ _______ _____ _____    ______ ____
ROOT
ATOM      1  C   UNL     1       6.145   5.062  16.341  0.00  0.00    +0.000 A 
ATOM      2  C   UNL     1       5.336   3.959  16.584  0.00  0.00    +0.000 A 
ATOM      3  C   UNL     1       4.207   4.045  17.390  0.00  0.00    +0.000 A 
ATOM      4  C   UNL     1       3.471   2.814  17.663  0.00  0.00    +0.000 A 
ATOM      5  C   UNL     1       2.404   2.804  18.477  0.00  0.00    +0.000 A 
ATOM      6  C   UNL     1       1.698   1.491  18.723  0.00  0.00    +0.000 C 
ATOM      7  C   UNL     1       2.012   4.037  19.080  0.00  0.00    +0.000 A 
ATOM      8  N   UNL     1       1.053   4.266  19.955  0.00  0.00    +0.000 NA
ATOM      9  N   UNL     1       1.077   5.594  20.276  0.00  0.00    +0.000 NA
ATOM     10  C   UNL     1       2.032   6.169  19.577  0.00  0.00    +0.000 A 
ATOM     11  N   UNL     1       2.696   5.231  18.802  0.00  0.00    +0.000 N 
ATOM     12  C   UNL     1       3.830   5.275  17.944  0.00  0.00    +0.000 A 
ATOM     13  C   UNL     1       4.584   6.413  17.632  0.00  0.00    +0.000 A 
ATOM     14  C   UNL     1       5.730   6.320  16.808  0.00  0.00    +0.000 A 
ENDROOT
BRANCH   1  16
ATOM     15  C   UNL     1       7.203   4.756  14.263  0.00  0.00    +0.000 C 
ATOM     16  O   UNL     1       7.343   4.920  15.680  0.00  0.00    +0.000 OA
ENDBRANCH   1  16
BRANCH  14  17
ATOM     17  O   UNL     1       6.357   7.525  16.607  0.00  0.00    +0.000 OA
ATOM     18  C   UNL     1       7.453   7.842  17.460  0.00  0.00    +0.000 C 
ENDBRANCH  14  17
BRANCH  10  19
ATOM     19  S   UNL     1       2.386   7.852  19.723  0.00  0.00    +0.000 S 
BRANCH  19  20
ATOM     20  C   UNL     1       1.741   8.496  18.149  0.00  0.00    +0.000 C 
BRANCH  20  21
ATOM     21  C   UNL     1       1.162   9.884  18.339  0.00  0.00    +0.000 C 
ATOM     22  O   UNL     1      -0.060  10.022  18.423  0.00  0.00    +0.000 OA
ATOM     23  N   UNL     1       2.101  10.903  18.347  0.00  0.00    +0.000 N 
ATOM     24  C   UNL     1       1.744  12.233  18.522  0.00  0.00    +0.000 A 
ATOM     25  C   UNL     1       2.571  13.344  18.220  0.00  0.00    +0.000 A 
ATOM     26  C   UNL     1       1.809  14.442  18.542  0.00  0.00    +0.000 A 
ATOM     27  C   UNL     1       1.999  15.900  18.477  0.00  0.00    +0.000 C 
ATOM     28  O   UNL     1       0.614  14.023  19.027  0.00  0.00    +0.000 OA
ATOM     29  N   UNL     1       0.573  12.649  19.009  0.00  0.00    +0.000 NA
ATOM     30  H   UNL     1       3.063  10.707  18.104  0.00  0.00    +0.000 HD
ENDBRANCH  20  21
ENDBRANCH  19  20
ENDBRANCH  10  19
TORSDOF 5
ENDMDL
