MODEL 1
REMARK VINA RESULT:      -9.2      0.000      0.000
REMARK  Name = 
REMARK  10 active torsions:
REMARK  status: ('A' for Active; 'I' for Inactive)
REMARK    1  A    between atoms: C_2  and  O_3
REMARK    2  A    between atoms: C_2  and  C_4
REMARK    3  A    between atoms: C_4  and  C_5
REMARK    4  A    between atoms: C_5  and  C_6
REMARK    5  A    between atoms: C_5  and  C_25
REMARK    6  A    between atoms: C_6  and  C_7
REMARK    7  A    between atoms: C_9  and  C_10
REMARK    8  A    between atoms: C_10  and  C_11
REMARK    9  A    between atoms: C_11  and  C_12
REMARK   10  A    between atoms: C_12  and  C_13
REMARK                            x       y       z     vdW  Elec       q    Type
REMARK                         _______ _______ _______ _____ _____    ______ ____
ROOT
ATOM      1  C   UNL     1       7.429   5.752  17.537  0.00  0.00    +0.000 A 
ATOM      2  N   UNL     1       7.427   6.895  16.896  0.00  0.00    +0.000 NA
ATOM      3  C   UNL     1       7.960   7.747  17.813  0.00  0.00    +0.000 A 
ATOM      4  N   UNL     1       8.247   7.200  18.999  0.00  0.00    +0.000 NA
ATOM      5  O   UNL     1       7.883   5.856  18.820  0.00  0.00    +0.000 OA
ENDROOT
BRANCH   1   6
ATOM      6  C   UNL     1       7.136   4.395  17.019  0.00  0.00    +0.000 C 
BRANCH   6   7
ATOM      7  C   UNL     1       5.745   4.277  16.333  0.00  0.00    +0.000 C 
BRANCH   7   8
ATOM      8  C   UNL     1       4.644   4.625  17.337  0.00  0.00    +0.000 A 
ATOM      9  C   UNL     1       3.952   5.862  17.335  0.00  0.00    +0.000 A 
ATOM     10  C   UNL     1       3.027   6.186  18.332  0.00  0.00    +0.000 A 
ATOM     11  C   UNL     1       2.804   5.268  19.339  0.00  0.00    +0.000 A 
ATOM     12  C   UNL     1       3.482   4.062  19.350  0.00  0.00    +0.000 A 
ATOM     13  C   UNL     1       4.378   3.715  18.365  0.00  0.00    +0.000 A 
ATOM     14  O   UNL     1       3.220   3.283  20.447  0.00  0.00    +0.000 OA
ATOM     15  C   UNL     1       2.116   3.951  21.099  0.00  0.00    +0.000 C 
ATOM     16  C   UNL     1       1.965   5.373  20.548  0.00  0.00    +0.000 C 
ENDBRANCH   7   8
BRANCH   7  17
ATOM     17  C   UNL     1       5.590   5.012  14.979  0.00  0.00    +0.000 C 
BRANCH  17  19
ATOM     18  O   UNL     1       7.570   5.344  13.614  0.00  0.00    +0.000 OA
ATOM     19  C   UNL     1       6.631   4.642  13.954  0.00  0.00    +0.000 C 
BRANCH  19  20
ATOM     20  O   UNL     1       6.429   3.413  13.429  0.00  0.00    +0.000 OA
ATOM     21  H   UNL     1       5.501   3.102  13.459  0.00  0.00    +0.000 HD
ENDBRANCH  19  20
ENDBRANCH  17  19
ENDBRANCH   7  17
ENDBRANCH   6   7
ENDBRANCH   1   6
BRANCH   3  22
ATOM     22  C   UNL     1       8.340   9.123  17.413  0.00  0.00    +0.000 C 
BRANCH  22  23
ATOM     23  C   UNL     1       8.378  10.089  18.604  0.00  0.00    +0.000 C 
BRANCH  23  24
ATOM     24  C   UNL     1       9.794  10.485  19.046  0.00  0.00    +0.000 C 
BRANCH  24  25
ATOM     25  C   UNL     1      10.225  11.803  18.449  0.00  0.00    +0.000 A 
ATOM     26  C   UNL     1      11.385  11.873  17.682  0.00  0.00    +0.000 A 
ATOM     27  C   UNL     1      11.755  13.098  17.141  0.00  0.00    +0.000 A 
ATOM     28  C   UNL     1      10.958  14.218  17.375  0.00  0.00    +0.000 A 
ATOM     29  C   UNL     1       9.815  14.066  18.163  0.00  0.00    +0.000 A 
ATOM     30  N   UNL     1       9.444  12.882  18.694  0.00  0.00    +0.000 NA
ATOM     31  N   UNL     1       8.962  15.139  18.396  0.00  0.00    +0.000 N 
ATOM     32  C   UNL     1       9.551  16.459  18.321  0.00  0.00    +0.000 C 
ATOM     33  C   UNL     1      10.262  16.609  16.981  0.00  0.00    +0.000 C 
ATOM     34  C   UNL     1      11.378  15.572  16.865  0.00  0.00    +0.000 C 
ATOM     35  H   UNL     1       8.340  14.922  19.166  0.00  0.00    +0.000 HD
ENDBRANCH  24  25
ENDBRANCH  23  24
ENDBRANCH  22  23
ENDBRANCH   3  22
TORSDOF 10
ENDMDL
MODEL 2
REMARK VINA RESULT:      -9.1      1.433      1.969
REMARK  Name = 
REMARK  10 active torsions:
REMARK  status: ('A' for Active; 'I' for Inactive)
REMARK    1  A    between atoms: C_2  and  O_3
REMARK    2  A    between atoms: C_2  and  C_4
REMARK    3  A    between atoms: C_4  and  C_5
REMARK    4  A    between atoms: C_5  and  C_6
REMARK    5  A    between atoms: C_5  and  C_25
REMARK    6  A    between atoms: C_6  and  C_7
REMARK    7  A    between atoms: C_9  and  C_10
REMARK    8  A    between atoms: C_10  and  C_11
REMARK    9  A    between atoms: C_11  and  C_12
REMARK   10  A    between atoms: C_12  and  C_13
REMARK                            x       y       z     vdW  Elec       q    Type
REMARK                         _______ _______ _______ _____ _____    ______ ____
ROOT
ATOM      1  C   UNL     1       7.340   5.605  17.583  0.00  0.00    +0.000 A 
ATOM      2  N   UNL     1       7.219   6.785  17.026  0.00  0.00    +0.000 NA
ATOM      3  C   UNL     1       7.816   7.601  17.936  0.00  0.00    +0.000 A 
ATOM      4  N   UNL     1       8.257   6.995  19.043  0.00  0.00    +0.000 NA
ATOM      5  O   UNL     1       7.930   5.648  18.813  0.00  0.00    +0.000 OA
ENDROOT
BRANCH   1   6
ATOM      6  C   UNL     1       7.046   4.272  17.008  0.00  0.00    +0.000 C 
BRANCH   6   7
ATOM      7  C   UNL     1       5.651   4.179  16.328  0.00  0.00    +0.000 C 
BRANCH   7   8
ATOM      8  C   UNL     1       4.558   4.511  17.348  0.00  0.00    +0.000 A 
ATOM      9  C   UNL     1       3.843   5.735  17.351  0.00  0.00    +0.000 A 
ATOM     10  C   UNL     1       2.927   6.046  18.361  0.00  0.00    +0.000 A 
ATOM     11  C   UNL     1       2.737   5.129  19.375  0.00  0.00    +0.000 A 
ATOM     12  C   UNL     1       3.439   3.936  19.382  0.00  0.00    +0.000 A 
ATOM     13  C   UNL     1       4.326   3.601  18.384  0.00  0.00    +0.000 A 
ATOM     14  O   UNL     1       3.209   3.158  20.486  0.00  0.00    +0.000 OA
ATOM     15  C   UNL     1       2.102   3.808  21.152  0.00  0.00    +0.000 C 
ATOM     16  C   UNL     1       1.915   5.224  20.597  0.00  0.00    +0.000 C 
ENDBRANCH   7   8
BRANCH   7  17
ATOM     17  C   UNL     1       5.492   4.948  14.994  0.00  0.00    +0.000 C 
BRANCH  17  19
ATOM     18  O   UNL     1       6.507   3.759  13.136  0.00  0.00    +0.000 OA
ATOM     19  C   UNL     1       6.562   4.643  13.977  0.00  0.00    +0.000 C 
BRANCH  19  20
ATOM     20  O   UNL     1       7.626   5.470  14.079  0.00  0.00    +0.000 OA
ATOM     21  H   UNL     1       8.457   5.035  14.361  0.00  0.00    +0.000 HD
ENDBRANCH  19  20
ENDBRANCH  17  19
ENDBRANCH   7  17
ENDBRANCH   6   7
ENDBRANCH   1   6
BRANCH   3  22
ATOM     22  C   UNL     1       8.092   9.017  17.593  0.00  0.00    +0.000 C 
BRANCH  22  23
ATOM     23  C   UNL     1       8.888   9.740  18.688  0.00  0.00    +0.000 C 
BRANCH  23  24
ATOM     24  C   UNL     1       9.634  10.990  18.200  0.00  0.00    +0.000 C 
BRANCH  24  25
ATOM     25  C   UNL     1       9.751  12.036  19.281  0.00  0.00    +0.000 A 
ATOM     26  C   UNL     1       9.642  11.669  20.620  0.00  0.00    +0.000 A 
ATOM     27  C   UNL     1       9.758  12.652  21.594  0.00  0.00    +0.000 A 
ATOM     28  C   UNL     1       9.983  13.973  21.209  0.00  0.00    +0.000 A 
ATOM     29  C   UNL     1      10.072  14.262  19.845  0.00  0.00    +0.000 A 
ATOM     30  N   UNL     1       9.961  13.316  18.889  0.00  0.00    +0.000 NA
ATOM     31  N   UNL     1      10.336  15.553  19.405  0.00  0.00    +0.000 N 
ATOM     32  C   UNL     1       9.944  16.629  20.291  0.00  0.00    +0.000 C 
ATOM     33  C   UNL     1      10.556  16.386  21.666  0.00  0.00    +0.000 C 
ATOM     34  C   UNL     1      10.036  15.070  22.241  0.00  0.00    +0.000 C 
ATOM     35  H   UNL     1      10.123  15.630  18.417  0.00  0.00    +0.000 HD
ENDBRANCH  24  25
ENDBRANCH  23  24
ENDBRANCH  22  23
ENDBRANCH   3  22
TORSDOF 10
ENDMDL
MODEL 3
REMARK VINA RESULT:      -9.1      2.488      3.602
REMARK  Name = 
REMARK  10 active torsions:
REMARK  status: ('A' for Active; 'I' for Inactive)
REMARK    1  A    between atoms: C_2  and  O_3
REMARK    2  A    between atoms: C_2  and  C_4
REMARK    3  A    between atoms: C_4  and  C_5
REMARK    4  A    between atoms: C_5  and  C_6
REMARK    5  A    between atoms: C_5  and  C_25
REMARK    6  A    between atoms: C_6  and  C_7
REMARK    7  A    between atoms: C_9  and  C_10
REMARK    8  A    between atoms: C_10  and  C_11
REMARK    9  A    between atoms: C_11  and  C_12
REMARK   10  A    between atoms: C_12  and  C_13
REMARK                            x       y       z     vdW  Elec       q    Type
REMARK                         _______ _______ _______ _____ _____    ______ ____
ROOT
ATOM      1  C   UNL     1       5.509   6.344  17.247  0.00  0.00    +0.000 A 
ATOM      2  N   UNL     1       6.211   6.872  18.219  0.00  0.00    +0.000 NA
ATOM      3  C   UNL     1       7.430   7.046  17.641  0.00  0.00    +0.000 A 
ATOM      4  N   UNL     1       7.530   6.610  16.380  0.00  0.00    +0.000 NA
ATOM      5  O   UNL     1       6.238   6.128  16.113  0.00  0.00    +0.000 OA
ENDROOT
BRANCH   1   6
ATOM      6  C   UNL     1       4.052   6.084  17.187  0.00  0.00    +0.000 C 
BRANCH   6   7
ATOM      7  C   UNL     1       3.374   6.010  18.584  0.00  0.00    +0.000 C 
BRANCH   7   8
ATOM      8  C   UNL     1       2.482   7.237  18.789  0.00  0.00    +0.000 A 
ATOM      9  C   UNL     1       2.195   8.170  17.762  0.00  0.00    +0.000 A 
ATOM     10  C   UNL     1       1.464   9.335  18.013  0.00  0.00    +0.000 A 
ATOM     11  C   UNL     1       1.028   9.567  19.303  0.00  0.00    +0.000 A 
ATOM     12  C   UNL     1       1.312   8.663  20.312  0.00  0.00    +0.000 A 
ATOM     13  C   UNL     1       2.010   7.500  20.079  0.00  0.00    +0.000 A 
ATOM     14  O   UNL     1       0.887   9.058  21.553  0.00  0.00    +0.000 OA
ATOM     15  C   UNL     1       0.070  10.223  21.292  0.00  0.00    +0.000 C 
ATOM     16  C   UNL     1       0.324  10.734  19.870  0.00  0.00    +0.000 C 
ENDBRANCH   7   8
BRANCH   7  17
ATOM     17  C   UNL     1       2.664   4.678  18.927  0.00  0.00    +0.000 C 
BRANCH  17  19
ATOM     18  O   UNL     1       2.813   2.970  17.207  0.00  0.00    +0.000 OA
ATOM     19  C   UNL     1       2.206   3.896  17.721  0.00  0.00    +0.000 C 
BRANCH  19  20
ATOM     20  O   UNL     1       1.016   4.325  17.246  0.00  0.00    +0.000 OA
ATOM     21  H   UNL     1       0.738   5.206  17.571  0.00  0.00    +0.000 HD
ENDBRANCH  19  20
ENDBRANCH  17  19
ENDBRANCH   7  17
ENDBRANCH   6   7
ENDBRANCH   1   6
BRANCH   3  22
ATOM     22  C   UNL     1       8.478   7.828  18.340  0.00  0.00    +0.000 C 
BRANCH  22  23
ATOM     23  C   UNL     1       8.353   9.335  18.081  0.00  0.00    +0.000 C 
BRANCH  23  24
ATOM     24  C   UNL     1       8.967  10.214  19.180  0.00  0.00    +0.000 C 
BRANCH  24  25
ATOM     25  C   UNL     1       9.710  11.397  18.608  0.00  0.00    +0.000 A 
ATOM     26  C   UNL     1      11.057  11.280  18.278  0.00  0.00    +0.000 A 
ATOM     27  C   UNL     1      11.715  12.383  17.749  0.00  0.00    +0.000 A 
ATOM     28  C   UNL     1      11.011  13.572  17.559  0.00  0.00    +0.000 A 
ATOM     29  C   UNL     1       9.663  13.611  17.923  0.00  0.00    +0.000 A 
ATOM     30  N   UNL     1       9.013  12.547  18.438  0.00  0.00    +0.000 NA
ATOM     31  N   UNL     1       8.902  14.756  17.719  0.00  0.00    +0.000 N 
ATOM     32  C   UNL     1       9.623  16.012  17.687  0.00  0.00    +0.000 C 
ATOM     33  C   UNL     1      10.745  15.912  16.660  0.00  0.00    +0.000 C 
ATOM     34  C   UNL     1      11.719  14.805  17.059  0.00  0.00    +0.000 C 
ATOM     35  H   UNL     1       8.043  14.697  18.252  0.00  0.00    +0.000 HD
ENDBRANCH  24  25
ENDBRANCH  23  24
ENDBRANCH  22  23
ENDBRANCH   3  22
TORSDOF 10
ENDMDL
MODEL 4
REMARK VINA RESULT:      -8.9      1.836      3.355
REMARK  Name = 
REMARK  10 active torsions:
REMARK  status: ('A' for Active; 'I' for Inactive)
REMARK    1  A    between atoms: C_2  and  O_3
REMARK    2  A    between atoms: C_2  and  C_4
REMARK    3  A    between atoms: C_4  and  C_5
REMARK    4  A    between atoms: C_5  and  C_6
REMARK    5  A    between atoms: C_5  and  C_25
REMARK    6  A    between atoms: C_6  and  C_7
REMARK    7  A    between atoms: C_9  and  C_10
REMARK    8  A    between atoms: C_10  and  C_11
REMARK    9  A    between atoms: C_11  and  C_12
REMARK   10  A    between atoms: C_12  and  C_13
REMARK                            x       y       z     vdW  Elec       q    Type
REMARK                         _______ _______ _______ _____ _____    ______ ____
ROOT
ATOM      1  C   UNL     1       6.063   5.764  17.365  0.00  0.00    +0.000 A 
ATOM      2  N   UNL     1       6.871   6.051  18.357  0.00  0.00    +0.000 NA
ATOM      3  C   UNL     1       7.543   7.135  17.884  0.00  0.00    +0.000 A 
ATOM      4  N   UNL     1       7.227   7.503  16.638  0.00  0.00    +0.000 NA
ATOM      5  O   UNL     1       6.235   6.575  16.280  0.00  0.00    +0.000 OA
ENDROOT
BRANCH   1   6
ATOM      6  C   UNL     1       4.946   4.793  17.327  0.00  0.00    +0.000 C 
BRANCH   6   7
ATOM      7  C   UNL     1       4.076   4.792  18.615  0.00  0.00    +0.000 C 
BRANCH   7   8
ATOM      8  C   UNL     1       3.230   6.067  18.667  0.00  0.00    +0.000 A 
ATOM      9  C   UNL     1       3.188   7.015  17.615  0.00  0.00    +0.000 A 
ATOM     10  C   UNL     1       2.489   8.220  17.742  0.00  0.00    +0.000 A 
ATOM     11  C   UNL     1       1.838   8.474  18.932  0.00  0.00    +0.000 A 
ATOM     12  C   UNL     1       1.882   7.555  19.967  0.00  0.00    +0.000 A 
ATOM     13  C   UNL     1       2.545   6.355  19.852  0.00  0.00    +0.000 A 
ATOM     14  O   UNL     1       1.259   7.973  21.113  0.00  0.00    +0.000 OA
ATOM     15  C   UNL     1       0.569   9.181  20.720  0.00  0.00    +0.000 C 
ATOM     16  C   UNL     1       1.107   9.678  19.374  0.00  0.00    +0.000 C 
ENDBRANCH   7   8
BRANCH   7  17
ATOM     17  C   UNL     1       3.255   3.506  18.882  0.00  0.00    +0.000 C 
BRANCH  17  19
ATOM     18  O   UNL     1       3.175   2.535  21.105  0.00  0.00    +0.000 OA
ATOM     19  C   UNL     1       3.756   2.685  20.042  0.00  0.00    +0.000 C 
BRANCH  19  20
ATOM     20  O   UNL     1       4.950   2.103  19.790  0.00  0.00    +0.000 OA
ATOM     21  H   UNL     1       5.009   1.647  18.926  0.00  0.00    +0.000 HD
ENDBRANCH  19  20
ENDBRANCH  17  19
ENDBRANCH   7  17
ENDBRANCH   6   7
ENDBRANCH   1   6
BRANCH   3  22
ATOM     22  C   UNL     1       8.416   7.919  18.791  0.00  0.00    +0.000 C 
BRANCH  22  23
ATOM     23  C   UNL     1       8.650   9.349  18.286  0.00  0.00    +0.000 C 
BRANCH  23  24
ATOM     24  C   UNL     1       9.289  10.284  19.322  0.00  0.00    +0.000 C 
BRANCH  24  25
ATOM     25  C   UNL     1       9.887  11.513  18.681  0.00  0.00    +0.000 A 
ATOM     26  C   UNL     1      11.200  11.488  18.220  0.00  0.00    +0.000 A 
ATOM     27  C   UNL     1      11.724  12.631  17.631  0.00  0.00    +0.000 A 
ATOM     28  C   UNL     1      10.924  13.768  17.513  0.00  0.00    +0.000 A 
ATOM     29  C   UNL     1       9.619  13.715  18.010  0.00  0.00    +0.000 A 
ATOM     30  N   UNL     1       9.099  12.610  18.584  0.00  0.00    +0.000 NA
ATOM     31  N   UNL     1       8.764  14.803  17.883  0.00  0.00    +0.000 N 
ATOM     32  C   UNL     1       9.389  16.106  17.783  0.00  0.00    +0.000 C 
ATOM     33  C   UNL     1      10.408  16.080  16.650  0.00  0.00    +0.000 C 
ATOM     34  C   UNL     1      11.491  15.044  16.948  0.00  0.00    +0.000 C 
ATOM     35  H   UNL     1       7.968  14.688  18.499  0.00  0.00    +0.000 HD
ENDBRANCH  24  25
ENDBRANCH  23  24
ENDBRANCH  22  23
ENDBRANCH   3  22
TORSDOF 10
ENDMDL
MODEL 5
REMARK VINA RESULT:      -8.7      1.402      1.602
REMARK  Name = 
REMARK  10 active torsions:
REMARK  status: ('A' for Active; 'I' for Inactive)
REMARK    1  A    between atoms: C_2  and  O_3
REMARK    2  A    between atoms: C_2  and  C_4
REMARK    3  A    between atoms: C_4  and  C_5
REMARK    4  A    between atoms: C_5  and  C_6
REMARK    5  A    between atoms: C_5  and  C_25
REMARK    6  A    between atoms: C_6  and  C_7
REMARK    7  A    between atoms: C_9  and  C_10
REMARK    8  A    between atoms: C_10  and  C_11
REMARK    9  A    between atoms: C_11  and  C_12
REMARK   10  A    between atoms: C_12  and  C_13
REMARK                            x       y       z     vdW  Elec       q    Type
REMARK                         _______ _______ _______ _____ _____    ______ ____
ROOT
ATOM      1  C   UNL     1       6.520   7.632  17.446  0.00  0.00    +0.000 A 
ATOM      2  N   UNL     1       6.973   8.861  17.381  0.00  0.00    +0.000 NA
ATOM      3  C   UNL     1       8.150   8.776  18.058  0.00  0.00    +0.000 A 
ATOM      4  N   UNL     1       8.424   7.575  18.577  0.00  0.00    +0.000 NA
ATOM      5  O   UNL     1       7.323   6.802  18.174  0.00  0.00    +0.000 OA
ENDROOT
BRANCH   1   6
ATOM      6  C   UNL     1       5.360   7.030  16.749  0.00  0.00    +0.000 C 
BRANCH   6   7
ATOM      7  C   UNL     1       5.292   5.482  16.874  0.00  0.00    +0.000 C 
BRANCH   7   8
ATOM      8  C   UNL     1       4.018   5.082  17.623  0.00  0.00    +0.000 A 
ATOM      9  C   UNL     1       3.411   5.893  18.614  0.00  0.00    +0.000 A 
ATOM     10  C   UNL     1       2.310   5.447  19.352  0.00  0.00    +0.000 A 
ATOM     11  C   UNL     1       1.824   4.180  19.099  0.00  0.00    +0.000 A 
ATOM     12  C   UNL     1       2.417   3.381  18.138  0.00  0.00    +0.000 A 
ATOM     13  C   UNL     1       3.486   3.810  17.385  0.00  0.00    +0.000 A 
ATOM     14  O   UNL     1       1.881   2.123  18.047  0.00  0.00    +0.000 OA
ATOM     15  C   UNL     1       0.699   2.183  18.878  0.00  0.00    +0.000 C 
ATOM     16  C   UNL     1       0.748   3.426  19.772  0.00  0.00    +0.000 C 
ENDBRANCH   7   8
BRANCH   7  17
ATOM     17  C   UNL     1       5.505   4.683  15.565  0.00  0.00    +0.000 C 
BRANCH  17  19
ATOM     18  O   UNL     1       7.916   4.457  15.730  0.00  0.00    +0.000 OA
ATOM     19  C   UNL     1       6.925   4.697  15.059  0.00  0.00    +0.000 C 
BRANCH  19  20
ATOM     20  O   UNL     1       7.005   5.006  13.746  0.00  0.00    +0.000 OA
ATOM     21  H   UNL     1       6.281   5.574  13.413  0.00  0.00    +0.000 HD
ENDBRANCH  19  20
ENDBRANCH  17  19
ENDBRANCH   7  17
ENDBRANCH   6   7
ENDBRANCH   1   6
BRANCH   3  22
ATOM     22  C   UNL     1       9.101   9.914  18.035  0.00  0.00    +0.000 C 
BRANCH  22  23
ATOM     23  C   UNL     1       9.324  10.517  19.427  0.00  0.00    +0.000 C 
BRANCH  23  24
ATOM     24  C   UNL     1      10.691  11.193  19.607  0.00  0.00    +0.000 C 
BRANCH  24  25
ATOM     25  C   UNL     1      10.796  12.475  18.817  0.00  0.00    +0.000 A 
ATOM     26  C   UNL     1      11.406  12.473  17.565  0.00  0.00    +0.000 A 
ATOM     27  C   UNL     1      11.485  13.665  16.858  0.00  0.00    +0.000 A 
ATOM     28  C   UNL     1      10.950  14.827  17.414  0.00  0.00    +0.000 A 
ATOM     29  C   UNL     1      10.362  14.748  18.679  0.00  0.00    +0.000 A 
ATOM     30  N   UNL     1      10.280  13.595  19.376  0.00  0.00    +0.000 NA
ATOM     31  N   UNL     1       9.778  15.864  19.265  0.00  0.00    +0.000 N 
ATOM     32  C   UNL     1      10.285  17.153  18.843  0.00  0.00    +0.000 C 
ATOM     33  C   UNL     1      10.218  17.238  17.323  0.00  0.00    +0.000 C 
ATOM     34  C   UNL     1      11.090  16.148  16.703  0.00  0.00    +0.000 C 
ATOM     35  H   UNL     1       9.628  15.696  20.252  0.00  0.00    +0.000 HD
ENDBRANCH  24  25
ENDBRANCH  23  24
ENDBRANCH  22  23
ENDBRANCH   3  22
TORSDOF 10
ENDMDL
MODEL 6
REMARK VINA RESULT:      -8.7      1.563      2.002
REMARK  Name = 
REMARK  10 active torsions:
REMARK  status: ('A' for Active; 'I' for Inactive)
REMARK    1  A    between atoms: C_2  and  O_3
REMARK    2  A    between atoms: C_2  and  C_4
REMARK    3  A    between atoms: C_4  and  C_5
REMARK    4  A    between atoms: C_5  and  C_6
REMARK    5  A    between atoms: C_5  and  C_25
REMARK    6  A    between atoms: C_6  and  C_7
REMARK    7  A    between atoms: C_9  and  C_10
REMARK    8  A    between atoms: C_10  and  C_11
REMARK    9  A    between atoms: C_11  and  C_12
REMARK   10  A    between atoms: C_12  and  C_13
REMARK                            x       y       z     vdW  Elec       q    Type
REMARK                         _______ _______ _______ _____ _____    ______ ____
ROOT
ATOM      1  C   UNL     1       6.418   7.201  17.307  0.00  0.00    +0.000 A 
ATOM      2  N   UNL     1       6.870   8.412  17.089  0.00  0.00    +0.000 NA
ATOM      3  C   UNL     1       7.998   8.445  17.848  0.00  0.00    +0.000 A 
ATOM      4  N   UNL     1       8.240   7.338  18.558  0.00  0.00    +0.000 NA
ATOM      5  O   UNL     1       7.172   6.499  18.203  0.00  0.00    +0.000 OA
ENDROOT
BRANCH   1   6
ATOM      6  C   UNL     1       5.311   6.486  16.630  0.00  0.00    +0.000 C 
BRANCH   6   7
ATOM      7  C   UNL     1       5.479   4.940  16.623  0.00  0.00    +0.000 C 
BRANCH   7   8
ATOM      8  C   UNL     1       4.547   4.316  17.665  0.00  0.00    +0.000 A 
ATOM      9  C   UNL     1       5.003   3.784  18.897  0.00  0.00    +0.000 A 
ATOM     10  C   UNL     1       4.138   3.126  19.777  0.00  0.00    +0.000 A 
ATOM     11  C   UNL     1       2.813   2.995  19.413  0.00  0.00    +0.000 A 
ATOM     12  C   UNL     1       2.363   3.506  18.207  0.00  0.00    +0.000 A 
ATOM     13  C   UNL     1       3.194   4.177  17.340  0.00  0.00    +0.000 A 
ATOM     14  O   UNL     1       1.046   3.236  17.942  0.00  0.00    +0.000 OA
ATOM     15  C   UNL     1       0.543   2.682  19.179  0.00  0.00    +0.000 C 
ATOM     16  C   UNL     1       1.710   2.285  20.089  0.00  0.00    +0.000 C 
ENDBRANCH   7   8
BRANCH   7  17
ATOM     17  C   UNL     1       5.391   4.252  15.239  0.00  0.00    +0.000 C 
BRANCH  17  19
ATOM     18  O   UNL     1       7.533   5.207  14.610  0.00  0.00    +0.000 OA
ATOM     19  C   UNL     1       6.622   4.425  14.386  0.00  0.00    +0.000 C 
BRANCH  19  20
ATOM     20  O   UNL     1       6.631   3.603  13.314  0.00  0.00    +0.000 OA
ATOM     21  H   UNL     1       7.519   3.286  13.048  0.00  0.00    +0.000 HD
ENDBRANCH  19  20
ENDBRANCH  17  19
ENDBRANCH   7  17
ENDBRANCH   6   7
ENDBRANCH   1   6
BRANCH   3  22
ATOM     22  C   UNL     1       8.945   9.579  17.720  0.00  0.00    +0.000 C 
BRANCH  22  23
ATOM     23  C   UNL     1       8.761  10.623  18.828  0.00  0.00    +0.000 C 
BRANCH  23  24
ATOM     24  C   UNL     1      10.051  10.967  19.587  0.00  0.00    +0.000 C 
BRANCH  24  25
ATOM     25  C   UNL     1      10.422  12.423  19.440  0.00  0.00    +0.000 A 
ATOM     26  C   UNL     1      10.619  13.208  20.573  0.00  0.00    +0.000 A 
ATOM     27  C   UNL     1      10.964  14.543  20.409  0.00  0.00    +0.000 A 
ATOM     28  C   UNL     1      11.107  15.060  19.121  0.00  0.00    +0.000 A 
ATOM     29  C   UNL     1      10.882  14.209  18.036  0.00  0.00    +0.000 A 
ATOM     30  N   UNL     1      10.547  12.910  18.182  0.00  0.00    +0.000 NA
ATOM     31  N   UNL     1      11.050  14.658  16.732  0.00  0.00    +0.000 N 
ATOM     32  C   UNL     1      10.881  16.079  16.513  0.00  0.00    +0.000 C 
ATOM     33  C   UNL     1      11.789  16.839  17.472  0.00  0.00    +0.000 C 
ATOM     34  C   UNL     1      11.404  16.522  18.915  0.00  0.00    +0.000 C 
ATOM     35  H   UNL     1      10.617  14.008  16.087  0.00  0.00    +0.000 HD
ENDBRANCH  24  25
ENDBRANCH  23  24
ENDBRANCH  22  23
ENDBRANCH   3  22
TORSDOF 10
ENDMDL
MODEL 7
REMARK VINA RESULT:      -8.6      1.329      1.767
REMARK  Name = 
REMARK  10 active torsions:
REMARK  status: ('A' for Active; 'I' for Inactive)
REMARK    1  A    between atoms: C_2  and  O_3
REMARK    2  A    between atoms: C_2  and  C_4
REMARK    3  A    between atoms: C_4  and  C_5
REMARK    4  A    between atoms: C_5  and  C_6
REMARK    5  A    between atoms: C_5  and  C_25
REMARK    6  A    between atoms: C_6  and  C_7
REMARK    7  A    between atoms: C_9  and  C_10
REMARK    8  A    between atoms: C_10  and  C_11
REMARK    9  A    between atoms: C_11  and  C_12
REMARK   10  A    between atoms: C_12  and  C_13
REMARK                            x       y       z     vdW  Elec       q    Type
REMARK                         _______ _______ _______ _____ _____    ______ ____
ROOT
ATOM      1  C   UNL     1       6.589   6.999  17.393  0.00  0.00    +0.000 A 
ATOM      2  N   UNL     1       6.852   8.273  17.225  0.00  0.00    +0.000 NA
ATOM      3  C   UNL     1       7.955   8.449  18.003  0.00  0.00    +0.000 A 
ATOM      4  N   UNL     1       8.357   7.366  18.675  0.00  0.00    +0.000 NA
ATOM      5  O   UNL     1       7.433   6.387  18.274  0.00  0.00    +0.000 OA
ENDROOT
BRANCH   1   6
ATOM      6  C   UNL     1       5.611   6.150  16.675  0.00  0.00    +0.000 C 
BRANCH   6   7
ATOM      7  C   UNL     1       5.722   4.639  17.024  0.00  0.00    +0.000 C 
BRANCH   7   8
ATOM      8  C   UNL     1       4.427   4.167  17.691  0.00  0.00    +0.000 A 
ATOM      9  C   UNL     1       3.322   3.655  16.968  0.00  0.00    +0.000 A 
ATOM     10  C   UNL     1       2.117   3.335  17.600  0.00  0.00    +0.000 A 
ATOM     11  C   UNL     1       2.021   3.537  18.963  0.00  0.00    +0.000 A 
ATOM     12  C   UNL     1       3.095   4.045  19.673  0.00  0.00    +0.000 A 
ATOM     13  C   UNL     1       4.296   4.344  19.072  0.00  0.00    +0.000 A 
ATOM     14  O   UNL     1       2.833   4.267  21.000  0.00  0.00    +0.000 OA
ATOM     15  C   UNL     1       1.541   3.653  21.212  0.00  0.00    +0.000 C 
ATOM     16  C   UNL     1       0.865   3.375  19.866  0.00  0.00    +0.000 C 
ENDBRANCH   7   8
BRANCH   7  17
ATOM     17  C   UNL     1       6.190   3.708  15.879  0.00  0.00    +0.000 C 
BRANCH  17  19
ATOM     18  O   UNL     1       5.582   4.322  13.610  0.00  0.00    +0.000 OA
ATOM     19  C   UNL     1       6.356   4.402  14.551  0.00  0.00    +0.000 C 
BRANCH  19  20
ATOM     20  O   UNL     1       7.478   5.154  14.493  0.00  0.00    +0.000 OA
ATOM     21  H   UNL     1       7.370   6.018  14.046  0.00  0.00    +0.000 HD
ENDBRANCH  19  20
ENDBRANCH  17  19
ENDBRANCH   7  17
ENDBRANCH   6   7
ENDBRANCH   1   6
BRANCH   3  22
ATOM     22  C   UNL     1       8.718   9.719  17.929  0.00  0.00    +0.000 C 
BRANCH  22  23
ATOM     23  C   UNL     1       9.176  10.207  19.309  0.00  0.00    +0.000 C 
BRANCH  23  24
ATOM     24  C   UNL     1      10.396  11.138  19.272  0.00  0.00    +0.000 C 
BRANCH  24  25
ATOM     25  C   UNL     1      10.015  12.555  18.918  0.00  0.00    +0.000 A 
ATOM     26  C   UNL     1      10.776  13.270  17.997  0.00  0.00    +0.000 A 
ATOM     27  C   UNL     1      10.401  14.570  17.686  0.00  0.00    +0.000 A 
ATOM     28  C   UNL     1       9.275  15.122  18.296  0.00  0.00    +0.000 A 
ATOM     29  C   UNL     1       8.570  14.342  19.216  0.00  0.00    +0.000 A 
ATOM     30  N   UNL     1       8.924  13.078  19.527  0.00  0.00    +0.000 NA
ATOM     31  N   UNL     1       7.417  14.825  19.825  0.00  0.00    +0.000 N 
ATOM     32  C   UNL     1       7.306  16.263  19.944  0.00  0.00    +0.000 C 
ATOM     33  C   UNL     1       7.500  16.891  18.568  0.00  0.00    +0.000 C 
ATOM     34  C   UNL     1       8.891  16.555  18.035  0.00  0.00    +0.000 C 
ATOM     35  H   UNL     1       7.182  14.247  20.623  0.00  0.00    +0.000 HD
ENDBRANCH  24  25
ENDBRANCH  23  24
ENDBRANCH  22  23
ENDBRANCH   3  22
TORSDOF 10
ENDMDL
MODEL 8
REMARK VINA RESULT:      -8.6      2.207      3.718
REMARK  Name = 
REMARK  10 active torsions:
REMARK  status: ('A' for Active; 'I' for Inactive)
REMARK    1  A    between atoms: C_2  and  O_3
REMARK    2  A    between atoms: C_2  and  C_4
REMARK    3  A    between atoms: C_4  and  C_5
REMARK    4  A    between atoms: C_5  and  C_6
REMARK    5  A    between atoms: C_5  and  C_25
REMARK    6  A    between atoms: C_6  and  C_7
REMARK    7  A    between atoms: C_9  and  C_10
REMARK    8  A    between atoms: C_10  and  C_11
REMARK    9  A    between atoms: C_11  and  C_12
REMARK   10  A    between atoms: C_12  and  C_13
REMARK                            x       y       z     vdW  Elec       q    Type
REMARK                         _______ _______ _______ _____ _____    ______ ____
ROOT
ATOM      1  C   UNL     1       5.488   6.059  17.702  0.00  0.00    +0.000 A 
ATOM      2  N   UNL     1       6.065   7.138  17.233  0.00  0.00    +0.000 NA
ATOM      3  C   UNL     1       7.261   7.138  17.882  0.00  0.00    +0.000 A 
ATOM      4  N   UNL     1       7.432   6.144  18.759  0.00  0.00    +0.000 NA
ATOM      5  O   UNL     1       6.235   5.418  18.648  0.00  0.00    +0.000 OA
ENDROOT
BRANCH   1   6
ATOM      6  C   UNL     1       4.235   5.406  17.257  0.00  0.00    +0.000 C 
BRANCH   6   7
ATOM      7  C   UNL     1       3.236   5.120  18.414  0.00  0.00    +0.000 C 
BRANCH   7   8
ATOM      8  C   UNL     1       2.652   6.438  18.929  0.00  0.00    +0.000 A 
ATOM      9  C   UNL     1       2.099   6.590  20.225  0.00  0.00    +0.000 A 
ATOM     10  C   UNL     1       1.479   7.778  20.622  0.00  0.00    +0.000 A 
ATOM     11  C   UNL     1       1.405   8.813  19.710  0.00  0.00    +0.000 A 
ATOM     12  C   UNL     1       1.935   8.667  18.440  0.00  0.00    +0.000 A 
ATOM     13  C   UNL     1       2.571   7.514  18.039  0.00  0.00    +0.000 A 
ATOM     14  O   UNL     1       1.722   9.742  17.618  0.00  0.00    +0.000 OA
ATOM     15  C   UNL     1       1.190  10.759  18.498  0.00  0.00    +0.000 C 
ATOM     16  C   UNL     1       0.742  10.127  19.820  0.00  0.00    +0.000 C 
ENDBRANCH   7   8
BRANCH   7  17
ATOM     17  C   UNL     1       2.158   4.045  18.131  0.00  0.00    +0.000 C 
BRANCH  17  19
ATOM     18  O   UNL     1       2.380   1.651  18.467  0.00  0.00    +0.000 OA
ATOM     19  C   UNL     1       2.327   2.779  18.931  0.00  0.00    +0.000 C 
BRANCH  19  20
ATOM     20  O   UNL     1       2.422   3.012  20.259  0.00  0.00    +0.000 OA
ATOM     21  H   UNL     1       1.566   3.032  20.735  0.00  0.00    +0.000 HD
ENDBRANCH  19  20
ENDBRANCH  17  19
ENDBRANCH   7  17
ENDBRANCH   6   7
ENDBRANCH   1   6
BRANCH   3  22
ATOM     22  C   UNL     1       8.326   8.086  17.474  0.00  0.00    +0.000 C 
BRANCH  22  23
ATOM     23  C   UNL     1       8.056   9.514  17.964  0.00  0.00    +0.000 C 
BRANCH  23  24
ATOM     24  C   UNL     1       9.114  10.055  18.936  0.00  0.00    +0.000 C 
BRANCH  24  25
ATOM     25  C   UNL     1       9.746  11.329  18.431  0.00  0.00    +0.000 A 
ATOM     26  C   UNL     1      11.094  11.347  18.083  0.00  0.00    +0.000 A 
ATOM     27  C   UNL     1      11.650  12.531  17.617  0.00  0.00    +0.000 A 
ATOM     28  C   UNL     1      10.846  13.666  17.506  0.00  0.00    +0.000 A 
ATOM     29  C   UNL     1       9.504  13.569  17.883  0.00  0.00    +0.000 A 
ATOM     30  N   UNL     1       8.954  12.424  18.338  0.00  0.00    +0.000 NA
ATOM     31  N   UNL     1       8.647  14.655  17.755  0.00  0.00    +0.000 N 
ATOM     32  C   UNL     1       9.259  15.967  17.794  0.00  0.00    +0.000 C 
ATOM     33  C   UNL     1      10.372  16.025  16.754  0.00  0.00    +0.000 C 
ATOM     34  C   UNL     1      11.440  14.982  17.076  0.00  0.00    +0.000 C 
ATOM     35  H   UNL     1       7.803  14.492  18.291  0.00  0.00    +0.000 HD
ENDBRANCH  24  25
ENDBRANCH  23  24
ENDBRANCH  22  23
ENDBRANCH   3  22
TORSDOF 10
ENDMDL
MODEL 9
REMARK VINA RESULT:      -8.4      2.599      4.094
REMARK  Name = 
REMARK  10 active torsions:
REMARK  status: ('A' for Active; 'I' for Inactive)
REMARK    1  A    between atoms: C_2  and  O_3
REMARK    2  A    between atoms: C_2  and  C_4
REMARK    3  A    between atoms: C_4  and  C_5
REMARK    4  A    between atoms: C_5  and  C_6
REMARK    5  A    between atoms: C_5  and  C_25
REMARK    6  A    between atoms: C_6  and  C_7
REMARK    7  A    between atoms: C_9  and  C_10
REMARK    8  A    between atoms: C_10  and  C_11
REMARK    9  A    between atoms: C_11  and  C_12
REMARK   10  A    between atoms: C_12  and  C_13
REMARK                            x       y       z     vdW  Elec       q    Type
REMARK                         _______ _______ _______ _____ _____    ______ ____
ROOT
ATOM      1  C   UNL     1       4.661   6.387  17.461  0.00  0.00    +0.000 A 
ATOM      2  N   UNL     1       5.674   6.622  18.260  0.00  0.00    +0.000 NA
ATOM      3  C   UNL     1       6.670   6.934  17.388  0.00  0.00    +0.000 A 
ATOM      4  N   UNL     1       6.340   6.859  16.095  0.00  0.00    +0.000 NA
ATOM      5  O   UNL     1       4.987   6.482  16.138  0.00  0.00    +0.000 OA
ENDROOT
BRANCH   1   6
ATOM      6  C   UNL     1       3.237   6.169  17.804  0.00  0.00    +0.000 C 
BRANCH   6   7
ATOM      7  C   UNL     1       2.941   6.259  19.327  0.00  0.00    +0.000 C 
BRANCH   7   8
ATOM      8  C   UNL     1       2.086   7.496  19.614  0.00  0.00    +0.000 A 
ATOM      9  C   UNL     1       1.869   8.528  18.667  0.00  0.00    +0.000 A 
ATOM     10  C   UNL     1       1.171   9.693  18.999  0.00  0.00    +0.000 A 
ATOM     11  C   UNL     1       0.698   9.825  20.289  0.00  0.00    +0.000 A 
ATOM     12  C   UNL     1       0.914   8.824  21.221  0.00  0.00    +0.000 A 
ATOM     13  C   UNL     1       1.578   7.660  20.906  0.00  0.00    +0.000 A 
ATOM     14  O   UNL     1       0.458   9.122  22.478  0.00  0.00    +0.000 OA
ATOM     15  C   UNL     1      -0.308  10.336  22.298  0.00  0.00    +0.000 C 
ATOM     16  C   UNL     1       0.016  10.962  20.937  0.00  0.00    +0.000 C 
ENDBRANCH   7   8
BRANCH   7  17
ATOM     17  C   UNL     1       2.393   4.973  19.992  0.00  0.00    +0.000 C 
BRANCH  17  19
ATOM     18  O   UNL     1       2.350   2.856  18.805  0.00  0.00    +0.000 OA
ATOM     19  C   UNL     1       2.971   3.698  19.434  0.00  0.00    +0.000 C 
BRANCH  19  20
ATOM     20  O   UNL     1       4.290   3.566  19.699  0.00  0.00    +0.000 OA
ATOM     21  H   UNL     1       4.855   3.439  18.909  0.00  0.00    +0.000 HD
ENDBRANCH  19  20
ENDBRANCH  17  19
ENDBRANCH   7  17
ENDBRANCH   6   7
ENDBRANCH   1   6
BRANCH   3  22
ATOM     22  C   UNL     1       7.951   7.484  17.893  0.00  0.00    +0.000 C 
BRANCH  22  23
ATOM     23  C   UNL     1       8.067   8.997  17.669  0.00  0.00    +0.000 C 
BRANCH  23  24
ATOM     24  C   UNL     1       8.717   9.757  18.834  0.00  0.00    +0.000 C 
BRANCH  24  25
ATOM     25  C   UNL     1       9.448  10.991  18.366  0.00  0.00    +0.000 A 
ATOM     26  C   UNL     1      10.806  10.922  18.063  0.00  0.00    +0.000 A 
ATOM     27  C   UNL     1      11.454  12.072  17.631  0.00  0.00    +0.000 A 
ATOM     28  C   UNL     1      10.731  13.258  17.507  0.00  0.00    +0.000 A 
ATOM     29  C   UNL     1       9.374  13.247  17.839  0.00  0.00    +0.000 A 
ATOM     30  N   UNL     1       8.734  12.136  18.261  0.00  0.00    +0.000 NA
ATOM     31  N   UNL     1       8.596  14.389  17.697  0.00  0.00    +0.000 N 
ATOM     32  C   UNL     1       9.292  15.657  17.772  0.00  0.00    +0.000 C 
ATOM     33  C   UNL     1      10.440  15.651  16.770  0.00  0.00    +0.000 C 
ATOM     34  C   UNL     1      11.426  14.536  17.114  0.00  0.00    +0.000 C 
ATOM     35  H   UNL     1       7.725  14.277  18.202  0.00  0.00    +0.000 HD
ENDBRANCH  24  25
ENDBRANCH  23  24
ENDBRANCH  22  23
ENDBRANCH   3  22
TORSDOF 10
ENDMDL
