MODEL 1
REMARK VINA RESULT:      -7.1      0.000      0.000
REMARK  Name = 
REMARK  8 active torsions:
REMARK  status: ('A' for Active; 'I' for Inactive)
REMARK    1  A    between atoms: C_1  and  O_2
REMARK    2  A    between atoms: O_2  and  C_3
REMARK    3  A    between atoms: C_6  and  C_7
REMARK    4  A    between atoms: N_9  and  C_10
REMARK    5  A    between atoms: C_10  and  C_11
REMARK    6  A    between atoms: C_11  and  C_12
REMARK    7  A    between atoms: C_12  and  S_13
REMARK    8  A    between atoms: S_13  and  C_14
REMARK                            x       y       z     vdW  Elec       q    Type
REMARK                         _______ _______ _______ _____ _____    ______ ____
ROOT
ATOM      1  C   UNL     1       4.558   3.343  18.951  0.00  0.00    +0.000 C 
ATOM      2  O   UNL     1       4.950   2.604  19.846  0.00  0.00    +0.000 OA
ATOM      3  N   UNL     1       3.318   3.198  18.355  0.00  0.00    +0.000 N 
ATOM      4  H   UNL     1       3.010   3.825  17.631  0.00  0.00    +0.000 HD
ENDROOT
BRANCH   1   8
ATOM      5  C   UNL     1       7.013   6.572  17.448  0.00  0.00    +0.000 A 
ATOM      6  C   UNL     1       5.859   6.163  16.777  0.00  0.00    +0.000 A 
ATOM      7  C   UNL     1       5.077   5.114  17.278  0.00  0.00    +0.000 A 
ATOM      8  C   UNL     1       5.436   4.454  18.464  0.00  0.00    +0.000 A 
ATOM      9  C   UNL     1       6.593   4.865  19.132  0.00  0.00    +0.000 A 
ATOM     10  C   UNL     1       7.366   5.909  18.624  0.00  0.00    +0.000 A 
ATOM     11  F   UNL     1       8.465   6.245  19.318  0.00  0.00    +0.000 F 
BRANCH   5  13
ATOM     12  C   UNL     1       7.809   8.806  17.614  0.00  0.00    +0.000 C 
ATOM     13  O   UNL     1       7.680   7.609  16.855  0.00  0.00    +0.000 OA
ENDBRANCH   5  13
ENDBRANCH   1   8
BRANCH   3  14
ATOM     14  C   UNL     1       2.378   2.179  18.783  0.00  0.00    +0.000 C 
BRANCH  14  15
ATOM     15  C   UNL     1       1.567   2.600  20.008  0.00  0.00    +0.000 C 
BRANCH  15  16
ATOM     16  C   UNL     1       1.050   4.036  19.903  0.00  0.00    +0.000 C 
BRANCH  16  17
ATOM     17  S   UNL     1       2.137   5.146  20.864  0.00  0.00    +0.000 S 
BRANCH  17  18
ATOM     18  C   UNL     1       1.998   6.701  19.991  0.00  0.00    +0.000 A 
ATOM     19  C   UNL     1       2.445   6.734  18.664  0.00  0.00    +0.000 A 
ATOM     20  C   UNL     1       2.367   7.907  17.909  0.00  0.00    +0.000 A 
ATOM     21  C   UNL     1       1.828   9.060  18.471  0.00  0.00    +0.000 A 
ATOM     22  C   UNL     1       1.354   9.034  19.781  0.00  0.00    +0.000 A 
ATOM     23  C   UNL     1       1.435   7.859  20.536  0.00  0.00    +0.000 A 
ENDBRANCH  17  18
ENDBRANCH  16  17
ENDBRANCH  15  16
ENDBRANCH  14  15
ENDBRANCH   3  14
TORSDOF 7
ENDMDL
MODEL 2
REMARK VINA RESULT:      -7.0      0.220      1.046
REMARK  Name = 
REMARK  8 active torsions:
REMARK  status: ('A' for Active; 'I' for Inactive)
REMARK    1  A    between atoms: C_1  and  O_2
REMARK    2  A    between atoms: O_2  and  C_3
REMARK    3  A    between atoms: C_6  and  C_7
REMARK    4  A    between atoms: N_9  and  C_10
REMARK    5  A    between atoms: C_10  and  C_11
REMARK    6  A    between atoms: C_11  and  C_12
REMARK    7  A    between atoms: C_12  and  S_13
REMARK    8  A    between atoms: S_13  and  C_14
REMARK                            x       y       z     vdW  Elec       q    Type
REMARK                         _______ _______ _______ _____ _____    ______ ____
ROOT
ATOM      1  C   UNL     1       4.767   3.395  19.020  0.00  0.00    +0.000 C 
ATOM      2  O   UNL     1       5.161   2.733  19.973  0.00  0.00    +0.000 OA
ATOM      3  N   UNL     1       3.579   3.122  18.366  0.00  0.00    +0.000 N 
ATOM      4  H   UNL     1       3.267   3.687  17.594  0.00  0.00    +0.000 HD
ENDROOT
BRANCH   1   8
ATOM      5  C   UNL     1       7.044   6.741  17.494  0.00  0.00    +0.000 A 
ATOM      6  C   UNL     1       5.901   6.279  16.837  0.00  0.00    +0.000 A 
ATOM      7  C   UNL     1       5.177   5.192  17.346  0.00  0.00    +0.000 A 
ATOM      8  C   UNL     1       5.584   4.547  18.525  0.00  0.00    +0.000 A 
ATOM      9  C   UNL     1       6.729   5.011  19.177  0.00  0.00    +0.000 A 
ATOM     10  C   UNL     1       7.444   6.093  18.662  0.00  0.00    +0.000 A 
ATOM     11  F   UNL     1       8.535   6.479  19.343  0.00  0.00    +0.000 F 
BRANCH   5  13
ATOM     12  C   UNL     1       7.964   8.920  17.728  0.00  0.00    +0.000 C 
ATOM     13  O   UNL     1       7.652   7.810  16.894  0.00  0.00    +0.000 OA
ENDBRANCH   5  13
ENDBRANCH   1   8
BRANCH   3  14
ATOM     14  C   UNL     1       2.697   2.053  18.794  0.00  0.00    +0.000 C 
BRANCH  14  15
ATOM     15  C   UNL     1       1.733   2.489  19.897  0.00  0.00    +0.000 C 
BRANCH  15  16
ATOM     16  C   UNL     1       1.203   3.908  19.685  0.00  0.00    +0.000 C 
BRANCH  16  17
ATOM     17  S   UNL     1       2.086   5.060  20.794  0.00  0.00    +0.000 S 
BRANCH  17  18
ATOM     18  C   UNL     1       1.974   6.620  19.926  0.00  0.00    +0.000 A 
ATOM     19  C   UNL     1       1.398   7.696  20.614  0.00  0.00    +0.000 A 
ATOM     20  C   UNL     1       1.278   8.951  20.011  0.00  0.00    +0.000 A 
ATOM     21  C   UNL     1       1.744   9.146  18.714  0.00  0.00    +0.000 A 
ATOM     22  C   UNL     1       2.344   8.092  18.029  0.00  0.00    +0.000 A 
ATOM     23  C   UNL     1       2.462   6.836  18.633  0.00  0.00    +0.000 A 
ENDBRANCH  17  18
ENDBRANCH  16  17
ENDBRANCH  15  16
ENDBRANCH  14  15
ENDBRANCH   3  14
TORSDOF 7
ENDMDL
MODEL 3
REMARK VINA RESULT:      -6.9      3.703      5.640
REMARK  Name = 
REMARK  8 active torsions:
REMARK  status: ('A' for Active; 'I' for Inactive)
REMARK    1  A    between atoms: C_1  and  O_2
REMARK    2  A    between atoms: O_2  and  C_3
REMARK    3  A    between atoms: C_6  and  C_7
REMARK    4  A    between atoms: N_9  and  C_10
REMARK    5  A    between atoms: C_10  and  C_11
REMARK    6  A    between atoms: C_11  and  C_12
REMARK    7  A    between atoms: C_12  and  S_13
REMARK    8  A    between atoms: S_13  and  C_14
REMARK                            x       y       z     vdW  Elec       q    Type
REMARK                         _______ _______ _______ _____ _____    ______ ____
ROOT
ATOM      1  C   UNL     1       7.314   5.359  16.165  0.00  0.00    +0.000 C 
ATOM      2  O   UNL     1       7.480   6.571  16.239  0.00  0.00    +0.000 OA
ATOM      3  N   UNL     1       7.552   4.509  17.230  0.00  0.00    +0.000 N 
ATOM      4  H   UNL     1       7.396   3.518  17.152  0.00  0.00    +0.000 HD
ENDROOT
BRANCH   1   8
ATOM      5  C   UNL     1       5.837   3.543  12.527  0.00  0.00    +0.000 A 
ATOM      6  C   UNL     1       5.215   3.317  13.758  0.00  0.00    +0.000 A 
ATOM      7  C   UNL     1       5.710   3.913  14.926  0.00  0.00    +0.000 A 
ATOM      8  C   UNL     1       6.836   4.749  14.884  0.00  0.00    +0.000 A 
ATOM      9  C   UNL     1       7.456   4.971  13.651  0.00  0.00    +0.000 A 
ATOM     10  C   UNL     1       6.958   4.372  12.494  0.00  0.00    +0.000 A 
ATOM     11  F   UNL     1       7.609   4.630  11.349  0.00  0.00    +0.000 F 
BRANCH   5  13
ATOM     12  C   UNL     1       3.894   3.237  11.192  0.00  0.00    +0.000 C 
ATOM     13  O   UNL     1       5.251   2.907  11.468  0.00  0.00    +0.000 OA
ENDBRANCH   5  13
ENDBRANCH   1   8
BRANCH   3  14
ATOM     14  C   UNL     1       7.977   5.005  18.525  0.00  0.00    +0.000 C 
BRANCH  14  15
ATOM     15  C   UNL     1       6.829   5.612  19.332  0.00  0.00    +0.000 C 
BRANCH  15  16
ATOM     16  C   UNL     1       5.631   4.668  19.447  0.00  0.00    +0.000 C 
BRANCH  16  17
ATOM     17  S   UNL     1       4.084   5.621  19.259  0.00  0.00    +0.000 S 
BRANCH  17  18
ATOM     18  C   UNL     1       2.841   4.345  19.104  0.00  0.00    +0.000 A 
ATOM     19  C   UNL     1       1.788   4.361  20.028  0.00  0.00    +0.000 A 
ATOM     20  C   UNL     1       0.772   3.403  19.973  0.00  0.00    +0.000 A 
ATOM     21  C   UNL     1       0.792   2.424  18.985  0.00  0.00    +0.000 A 
ATOM     22  C   UNL     1       1.819   2.414  18.043  0.00  0.00    +0.000 A 
ATOM     23  C   UNL     1       2.836   3.372  18.100  0.00  0.00    +0.000 A 
ENDBRANCH  17  18
ENDBRANCH  16  17
ENDBRANCH  15  16
ENDBRANCH  14  15
ENDBRANCH   3  14
TORSDOF 7
ENDMDL
MODEL 4
REMARK VINA RESULT:      -6.9      1.715      2.037
REMARK  Name = 
REMARK  8 active torsions:
REMARK  status: ('A' for Active; 'I' for Inactive)
REMARK    1  A    between atoms: C_1  and  O_2
REMARK    2  A    between atoms: O_2  and  C_3
REMARK    3  A    between atoms: C_6  and  C_7
REMARK    4  A    between atoms: N_9  and  C_10
REMARK    5  A    between atoms: C_10  and  C_11
REMARK    6  A    between atoms: C_11  and  C_12
REMARK    7  A    between atoms: C_12  and  S_13
REMARK    8  A    between atoms: S_13  and  C_14
REMARK                            x       y       z     vdW  Elec       q    Type
REMARK                         _______ _______ _______ _____ _____    ______ ____
ROOT
ATOM      1  C   UNL     1       4.445   3.434  18.132  0.00  0.00    +0.000 C 
ATOM      2  O   UNL     1       4.851   3.172  19.258  0.00  0.00    +0.000 OA
ATOM      3  N   UNL     1       3.148   3.173  17.729  0.00  0.00    +0.000 N 
ATOM      4  H   UNL     1       2.831   3.410  16.804  0.00  0.00    +0.000 HD
ENDROOT
BRANCH   1   8
ATOM      5  C   UNL     1       7.071   5.169  15.164  0.00  0.00    +0.000 A 
ATOM      6  C   UNL     1       6.272   4.061  14.870  0.00  0.00    +0.000 A 
ATOM      7  C   UNL     1       5.429   3.512  15.846  0.00  0.00    +0.000 A 
ATOM      8  C   UNL     1       5.368   4.063  17.135  0.00  0.00    +0.000 A 
ATOM      9  C   UNL     1       6.171   5.170  17.426  0.00  0.00    +0.000 A 
ATOM     10  C   UNL     1       7.009   5.708  16.449  0.00  0.00    +0.000 A 
ATOM     11  F   UNL     1       7.752   6.769  16.803  0.00  0.00    +0.000 F 
BRANCH   5  13
ATOM     12  C   UNL     1       7.623   4.989  12.859  0.00  0.00    +0.000 C 
ATOM     13  O   UNL     1       7.842   5.606  14.122  0.00  0.00    +0.000 OA
ENDBRANCH   5  13
ENDBRANCH   1   8
BRANCH   3  14
ATOM     14  C   UNL     1       2.166   2.603  18.632  0.00  0.00    +0.000 C 
BRANCH  14  15
ATOM     15  C   UNL     1       0.982   3.537  18.882  0.00  0.00    +0.000 C 
BRANCH  15  16
ATOM     16  C   UNL     1       0.852   3.936  20.354  0.00  0.00    +0.000 C 
BRANCH  16  17
ATOM     17  S   UNL     1       2.333   4.877  20.862  0.00  0.00    +0.000 S 
BRANCH  17  18
ATOM     18  C   UNL     1       2.098   6.460  20.065  0.00  0.00    +0.000 A 
ATOM     19  C   UNL     1       2.574   6.594  18.754  0.00  0.00    +0.000 A 
ATOM     20  C   UNL     1       2.426   7.796  18.056  0.00  0.00    +0.000 A 
ATOM     21  C   UNL     1       1.787   8.875  18.659  0.00  0.00    +0.000 A 
ATOM     22  C   UNL     1       1.285   8.746  19.952  0.00  0.00    +0.000 A 
ATOM     23  C   UNL     1       1.436   7.543  20.650  0.00  0.00    +0.000 A 
ENDBRANCH  17  18
ENDBRANCH  16  17
ENDBRANCH  15  16
ENDBRANCH  14  15
ENDBRANCH   3  14
TORSDOF 7
ENDMDL
MODEL 5
REMARK VINA RESULT:      -6.8      3.468      5.828
REMARK  Name = 
REMARK  8 active torsions:
REMARK  status: ('A' for Active; 'I' for Inactive)
REMARK    1  A    between atoms: C_1  and  O_2
REMARK    2  A    between atoms: O_2  and  C_3
REMARK    3  A    between atoms: C_6  and  C_7
REMARK    4  A    between atoms: N_9  and  C_10
REMARK    5  A    between atoms: C_10  and  C_11
REMARK    6  A    between atoms: C_11  and  C_12
REMARK    7  A    between atoms: C_12  and  S_13
REMARK    8  A    between atoms: S_13  and  C_14
REMARK                            x       y       z     vdW  Elec       q    Type
REMARK                         _______ _______ _______ _____ _____    ______ ____
ROOT
ATOM      1  C   UNL     1       8.046   8.330  18.018  0.00  0.00    +0.000 C 
ATOM      2  O   UNL     1       7.387   8.225  16.990  0.00  0.00    +0.000 OA
ATOM      3  N   UNL     1       8.309   7.253  18.846  0.00  0.00    +0.000 N 
ATOM      4  H   UNL     1       8.864   7.359  19.679  0.00  0.00    +0.000 HD
ENDROOT
BRANCH   1   8
ATOM      5  C   UNL     1       9.681  12.131  19.279  0.00  0.00    +0.000 A 
ATOM      6  C   UNL     1       9.710  11.013  20.115  0.00  0.00    +0.000 A 
ATOM      7  C   UNL     1       9.174   9.790  19.690  0.00  0.00    +0.000 A 
ATOM      8  C   UNL     1       8.599   9.663  18.416  0.00  0.00    +0.000 A 
ATOM      9  C   UNL     1       8.569  10.785  17.583  0.00  0.00    +0.000 A 
ATOM     10  C   UNL     1       9.103  11.998  18.016  0.00  0.00    +0.000 A 
ATOM     11  F   UNL     1       9.036  13.031  17.161  0.00  0.00    +0.000 F 
BRANCH   5  13
ATOM     12  C   UNL     1      11.553  13.592  19.375  0.00  0.00    +0.000 C 
ATOM     13  O   UNL     1      10.241  13.258  19.814  0.00  0.00    +0.000 OA
ENDBRANCH   5  13
ENDBRANCH   1   8
BRANCH   3  14
ATOM     14  C   UNL     1       7.853   5.914  18.528  0.00  0.00    +0.000 C 
BRANCH  14  15
ATOM     15  C   UNL     1       6.637   5.492  19.352  0.00  0.00    +0.000 C 
BRANCH  15  16
ATOM     16  C   UNL     1       5.632   4.675  18.538  0.00  0.00    +0.000 C 
BRANCH  16  17
ATOM     17  S   UNL     1       4.150   5.689  18.205  0.00  0.00    +0.000 S 
BRANCH  17  18
ATOM     18  C   UNL     1       2.829   4.720  18.923  0.00  0.00    +0.000 A 
ATOM     19  C   UNL     1       2.206   3.775  18.099  0.00  0.00    +0.000 A 
ATOM     20  C   UNL     1       1.169   2.973  18.584  0.00  0.00    +0.000 A 
ATOM     21  C   UNL     1       0.752   3.100  19.905  0.00  0.00    +0.000 A 
ATOM     22  C   UNL     1       1.383   4.017  20.744  0.00  0.00    +0.000 A 
ATOM     23  C   UNL     1       2.419   4.820  20.256  0.00  0.00    +0.000 A 
ENDBRANCH  17  18
ENDBRANCH  16  17
ENDBRANCH  15  16
ENDBRANCH  14  15
ENDBRANCH   3  14
TORSDOF 7
ENDMDL
MODEL 6
REMARK VINA RESULT:      -6.7      1.692      2.286
REMARK  Name = 
REMARK  8 active torsions:
REMARK  status: ('A' for Active; 'I' for Inactive)
REMARK    1  A    between atoms: C_1  and  O_2
REMARK    2  A    between atoms: O_2  and  C_3
REMARK    3  A    between atoms: C_6  and  C_7
REMARK    4  A    between atoms: N_9  and  C_10
REMARK    5  A    between atoms: C_10  and  C_11
REMARK    6  A    between atoms: C_11  and  C_12
REMARK    7  A    between atoms: C_12  and  S_13
REMARK    8  A    between atoms: S_13  and  C_14
REMARK                            x       y       z     vdW  Elec       q    Type
REMARK                         _______ _______ _______ _____ _____    ______ ____
ROOT
ATOM      1  C   UNL     1       4.533   3.210  18.393  0.00  0.00    +0.000 C 
ATOM      2  O   UNL     1       3.979   2.445  17.612  0.00  0.00    +0.000 OA
ATOM      3  N   UNL     1       4.358   3.130  19.762  0.00  0.00    +0.000 N 
ATOM      4  H   UNL     1       4.834   3.759  20.387  0.00  0.00    +0.000 HD
ENDROOT
BRANCH   1   8
ATOM      5  C   UNL     1       7.148   6.360  16.996  0.00  0.00    +0.000 A 
ATOM      6  C   UNL     1       6.630   6.366  18.293  0.00  0.00    +0.000 A 
ATOM      7  C   UNL     1       5.782   5.337  18.727  0.00  0.00    +0.000 A 
ATOM      8  C   UNL     1       5.439   4.281  17.870  0.00  0.00    +0.000 A 
ATOM      9  C   UNL     1       5.958   4.279  16.572  0.00  0.00    +0.000 A 
ATOM     10  C   UNL     1       6.799   5.308  16.149  0.00  0.00    +0.000 A 
ATOM     11  F   UNL     1       7.255   5.240  14.888  0.00  0.00    +0.000 F 
BRANCH   5  13
ATOM     12  C   UNL     1       8.033   8.460  17.671  0.00  0.00    +0.000 C 
ATOM     13  O   UNL     1       7.964   7.418  16.704  0.00  0.00    +0.000 OA
ENDBRANCH   5  13
ENDBRANCH   1   8
BRANCH   3  14
ATOM     14  C   UNL     1       3.534   2.103  20.371  0.00  0.00    +0.000 C 
BRANCH  14  15
ATOM     15  C   UNL     1       2.767   2.608  21.593  0.00  0.00    +0.000 C 
BRANCH  15  16
ATOM     16  C   UNL     1       1.266   2.744  21.327  0.00  0.00    +0.000 C 
BRANCH  16  17
ATOM     17  S   UNL     1       0.988   3.040  19.546  0.00  0.00    +0.000 S 
BRANCH  17  18
ATOM     18  C   UNL     1       1.537   4.728  19.327  0.00  0.00    +0.000 A 
ATOM     19  C   UNL     1       1.614   5.531  20.473  0.00  0.00    +0.000 A 
ATOM     20  C   UNL     1       2.039   6.859  20.390  0.00  0.00    +0.000 A 
ATOM     21  C   UNL     1       2.405   7.397  19.160  0.00  0.00    +0.000 A 
ATOM     22  C   UNL     1       2.360   6.601  18.017  0.00  0.00    +0.000 A 
ATOM     23  C   UNL     1       1.932   5.272  18.101  0.00  0.00    +0.000 A 
ENDBRANCH  17  18
ENDBRANCH  16  17
ENDBRANCH  15  16
ENDBRANCH  14  15
ENDBRANCH   3  14
TORSDOF 7
ENDMDL
MODEL 7
REMARK VINA RESULT:      -6.7      1.822      2.106
REMARK  Name = 
REMARK  8 active torsions:
REMARK  status: ('A' for Active; 'I' for Inactive)
REMARK    1  A    between atoms: C_1  and  O_2
REMARK    2  A    between atoms: O_2  and  C_3
REMARK    3  A    between atoms: C_6  and  C_7
REMARK    4  A    between atoms: N_9  and  C_10
REMARK    5  A    between atoms: C_10  and  C_11
REMARK    6  A    between atoms: C_11  and  C_12
REMARK    7  A    between atoms: C_12  and  S_13
REMARK    8  A    between atoms: S_13  and  C_14
REMARK                            x       y       z     vdW  Elec       q    Type
REMARK                         _______ _______ _______ _____ _____    ______ ____
ROOT
ATOM      1  C   UNL     1       3.135   3.392  17.377  0.00  0.00    +0.000 C 
ATOM      2  O   UNL     1       2.067   3.591  16.808  0.00  0.00    +0.000 OA
ATOM      3  N   UNL     1       3.227   2.674  18.556  0.00  0.00    +0.000 N 
ATOM      4  H   UNL     1       4.115   2.511  18.999  0.00  0.00    +0.000 HD
ENDROOT
BRANCH   1   8
ATOM      5  C   UNL     1       6.749   4.946  15.577  0.00  0.00    +0.000 A 
ATOM      6  C   UNL     1       5.689   4.480  14.796  0.00  0.00    +0.000 A 
ATOM      7  C   UNL     1       4.526   3.978  15.397  0.00  0.00    +0.000 A 
ATOM      8  C   UNL     1       4.402   3.935  16.794  0.00  0.00    +0.000 A 
ATOM      9  C   UNL     1       5.466   4.400  17.573  0.00  0.00    +0.000 A 
ATOM     10  C   UNL     1       6.619   4.896  16.965  0.00  0.00    +0.000 A 
ATOM     11  F   UNL     1       7.599   5.322  17.779  0.00  0.00    +0.000 F 
BRANCH   5  13
ATOM     12  C   UNL     1       7.743   5.302  13.448  0.00  0.00    +0.000 C 
ATOM     13  O   UNL     1       7.819   5.412  14.865  0.00  0.00    +0.000 OA
ENDBRANCH   5  13
ENDBRANCH   1   8
BRANCH   3  14
ATOM     14  C   UNL     1       2.063   2.073  19.179  0.00  0.00    +0.000 C 
BRANCH  14  15
ATOM     15  C   UNL     1       1.654   2.778  20.471  0.00  0.00    +0.000 C 
BRANCH  15  16
ATOM     16  C   UNL     1       1.235   4.231  20.238  0.00  0.00    +0.000 C 
BRANCH  16  17
ATOM     17  S   UNL     1       2.596   5.344  20.734  0.00  0.00    +0.000 S 
BRANCH  17  18
ATOM     18  C   UNL     1       2.232   6.850  19.841  0.00  0.00    +0.000 A 
ATOM     19  C   UNL     1       2.628   6.910  18.498  0.00  0.00    +0.000 A 
ATOM     20  C   UNL     1       2.377   8.047  17.726  0.00  0.00    +0.000 A 
ATOM     21  C   UNL     1       1.714   9.135  18.287  0.00  0.00    +0.000 A 
ATOM     22  C   UNL     1       1.290   9.077  19.613  0.00  0.00    +0.000 A 
ATOM     23  C   UNL     1       1.544   7.939  20.385  0.00  0.00    +0.000 A 
ENDBRANCH  17  18
ENDBRANCH  16  17
ENDBRANCH  15  16
ENDBRANCH  14  15
ENDBRANCH   3  14
TORSDOF 7
ENDMDL
MODEL 8
REMARK VINA RESULT:      -6.7      5.680      8.661
REMARK  Name = 
REMARK  8 active torsions:
REMARK  status: ('A' for Active; 'I' for Inactive)
REMARK    1  A    between atoms: C_1  and  O_2
REMARK    2  A    between atoms: O_2  and  C_3
REMARK    3  A    between atoms: C_6  and  C_7
REMARK    4  A    between atoms: N_9  and  C_10
REMARK    5  A    between atoms: C_10  and  C_11
REMARK    6  A    between atoms: C_11  and  C_12
REMARK    7  A    between atoms: C_12  and  S_13
REMARK    8  A    between atoms: S_13  and  C_14
REMARK                            x       y       z     vdW  Elec       q    Type
REMARK                         _______ _______ _______ _____ _____    ______ ____
ROOT
ATOM      1  C   UNL     1       0.287  10.156  18.478  0.00  0.00    +0.000 C 
ATOM      2  O   UNL     1       0.897  10.622  19.434  0.00  0.00    +0.000 OA
ATOM      3  N   UNL     1       0.874   9.295  17.569  0.00  0.00    +0.000 N 
ATOM      4  H   UNL     1       0.350   8.913  16.799  0.00  0.00    +0.000 HD
ENDROOT
BRANCH   1   8
ATOM      5  C   UNL     1      -3.871  11.115  17.765  0.00  0.00    +0.000 A 
ATOM      6  C   UNL     1      -3.192  10.185  16.973  0.00  0.00    +0.000 A 
ATOM      7  C   UNL     1      -1.844   9.889  17.218  0.00  0.00    +0.000 A 
ATOM      8  C   UNL     1      -1.150  10.517  18.264  0.00  0.00    +0.000 A 
ATOM      9  C   UNL     1      -1.832  11.449  19.052  0.00  0.00    +0.000 A 
ATOM     10  C   UNL     1      -3.173  11.738  18.799  0.00  0.00    +0.000 A 
ATOM     11  F   UNL     1      -3.759  12.645  19.597  0.00  0.00    +0.000 F 
BRANCH   5  13
ATOM     12  C   UNL     1      -6.160  10.841  18.344  0.00  0.00    +0.000 C 
ATOM     13  O   UNL     1      -5.181  11.307  17.421  0.00  0.00    +0.000 OA
ENDBRANCH   5  13
ENDBRANCH   1   8
BRANCH   3  14
ATOM     14  C   UNL     1       2.248   8.852  17.711  0.00  0.00    +0.000 C 
BRANCH  14  15
ATOM     15  C   UNL     1       2.355   7.395  18.163  0.00  0.00    +0.000 C 
BRANCH  15  16
ATOM     16  C   UNL     1       3.782   6.853  18.054  0.00  0.00    +0.000 C 
BRANCH  16  17
ATOM     17  S   UNL     1       3.729   5.100  17.540  0.00  0.00    +0.000 S 
BRANCH  17  18
ATOM     18  C   UNL     1       2.669   4.351  18.770  0.00  0.00    +0.000 A 
ATOM     19  C   UNL     1       2.996   4.565  20.115  0.00  0.00    +0.000 A 
ATOM     20  C   UNL     1       2.217   4.020  21.138  0.00  0.00    +0.000 A 
ATOM     21  C   UNL     1       1.091   3.264  20.827  0.00  0.00    +0.000 A 
ATOM     22  C   UNL     1       0.738   3.067  19.494  0.00  0.00    +0.000 A 
ATOM     23  C   UNL     1       1.520   3.611  18.470  0.00  0.00    +0.000 A 
ENDBRANCH  17  18
ENDBRANCH  16  17
ENDBRANCH  15  16
ENDBRANCH  14  15
ENDBRANCH   3  14
TORSDOF 7
ENDMDL
MODEL 9
REMARK VINA RESULT:      -6.7      3.178      5.657
REMARK  Name = 
REMARK  8 active torsions:
REMARK  status: ('A' for Active; 'I' for Inactive)
REMARK    1  A    between atoms: C_1  and  O_2
REMARK    2  A    between atoms: O_2  and  C_3
REMARK    3  A    between atoms: C_6  and  C_7
REMARK    4  A    between atoms: N_9  and  C_10
REMARK    5  A    between atoms: C_10  and  C_11
REMARK    6  A    between atoms: C_11  and  C_12
REMARK    7  A    between atoms: C_12  and  S_13
REMARK    8  A    between atoms: S_13  and  C_14
REMARK                            x       y       z     vdW  Elec       q    Type
REMARK                         _______ _______ _______ _____ _____    ______ ____
ROOT
ATOM      1  C   UNL     1       2.775   6.032  19.223  0.00  0.00    +0.000 C 
ATOM      2  O   UNL     1       3.925   5.848  19.605  0.00  0.00    +0.000 OA
ATOM      3  N   UNL     1       1.953   4.997  18.814  0.00  0.00    +0.000 N 
ATOM      4  H   UNL     1       1.007   5.169  18.517  0.00  0.00    +0.000 HD
ENDROOT
BRANCH   1   8
ATOM      5  C   UNL     1       1.184  10.048  18.997  0.00  0.00    +0.000 A 
ATOM      6  C   UNL     1       1.780   9.438  17.890  0.00  0.00    +0.000 A 
ATOM      7  C   UNL     1       2.291   8.136  17.983  0.00  0.00    +0.000 A 
ATOM      8  C   UNL     1       2.214   7.420  19.187  0.00  0.00    +0.000 A 
ATOM      9  C   UNL     1       1.620   8.034  20.293  0.00  0.00    +0.000 A 
ATOM     10  C   UNL     1       1.116   9.331  20.191  0.00  0.00    +0.000 A 
ATOM     11  F   UNL     1       0.562   9.855  21.296  0.00  0.00    +0.000 F 
BRANCH   5  13
ATOM     12  C   UNL     1       1.528  12.386  19.252  0.00  0.00    +0.000 C 
ATOM     13  O   UNL     1       0.724  11.316  18.769  0.00  0.00    +0.000 OA
ENDBRANCH   5  13
ENDBRANCH   1   8
BRANCH   3  14
ATOM     14  C   UNL     1       2.387   3.614  18.850  0.00  0.00    +0.000 C 
BRANCH  14  15
ATOM     15  C   UNL     1       2.933   3.131  17.506  0.00  0.00    +0.000 C 
BRANCH  15  16
ATOM     16  C   UNL     1       4.462   3.105  17.470  0.00  0.00    +0.000 C 
BRANCH  16  17
ATOM     17  S   UNL     1       5.060   4.224  16.156  0.00  0.00    +0.000 S 
BRANCH  17  18
ATOM     18  C   UNL     1       6.163   5.324  17.035  0.00  0.00    +0.000 A 
ATOM     19  C   UNL     1       6.998   4.754  18.006  0.00  0.00    +0.000 A 
ATOM     20  C   UNL     1       7.893   5.542  18.734  0.00  0.00    +0.000 A 
ATOM     21  C   UNL     1       7.971   6.910  18.491  0.00  0.00    +0.000 A 
ATOM     22  C   UNL     1       7.167   7.485  17.509  0.00  0.00    +0.000 A 
ATOM     23  C   UNL     1       6.270   6.695  16.782  0.00  0.00    +0.000 A 
ENDBRANCH  17  18
ENDBRANCH  16  17
ENDBRANCH  15  16
ENDBRANCH  14  15
ENDBRANCH   3  14
TORSDOF 7
ENDMDL
