MODEL 1
REMARK VINA RESULT:      -8.1      0.000      0.000
REMARK  Name = 
REMARK  0 active torsions:
REMARK  status: ('A' for Active; 'I' for Inactive)
REMARK                            x       y       z     vdW  Elec       q    Type
REMARK                         _______ _______ _______ _____ _____    ______ ____
ROOT
ATOM      1  C   UNL     1       3.257   3.702  20.086  0.00  0.00    +0.000 A 
ATOM      2  C   UNL     1       2.202   4.243  20.842  0.00  0.00    +0.000 A 
ATOM      3  C   UNL     1       1.771   5.547  20.598  0.00  0.00    +0.000 A 
ATOM      4  C   UNL     1       2.391   6.307  19.605  0.00  0.00    +0.000 A 
ATOM      5  C   UNL     1       3.451   5.771  18.847  0.00  0.00    +0.000 A 
ATOM      6  C   UNL     1       3.880   4.465  19.094  0.00  0.00    +0.000 A 
ATOM      7  C   UNL     1       4.097   6.583  17.809  0.00  0.00    +0.000 A 
ATOM      8  C   UNL     1       3.607   7.792  17.490  0.00  0.00    +0.000 A 
ATOM      9  C   UNL     1       2.465   8.315  18.157  0.00  0.00    +0.000 A 
ATOM     10  N   UNL     1       1.814   9.446  17.946  0.00  0.00    +0.000 NA
ATOM     11  C   UNL     1       0.969   9.556  19.013  0.00  0.00    +0.000 A 
ATOM     12  C   UNL     1       0.501  10.808  19.555  0.00  0.00    +0.000 A 
ATOM     13  C   UNL     1       0.555  12.009  18.960  0.00  0.00    +0.000 A 
ATOM     14  C   UNL     1      -0.527  13.005  18.880  0.00  0.00    +0.000 A 
ATOM     15  C   UNL     1      -0.160  14.302  18.774  0.00  0.00    +0.000 A 
ATOM     16  C   UNL     1       1.261  14.643  18.699  0.00  0.00    +0.000 A 
ATOM     17  C   UNL     1       2.173  13.843  19.284  0.00  0.00    +0.000 A 
ATOM     18  C   UNL     1       1.583  12.620  19.873  0.00  0.00    +0.000 A 
ATOM     19  N   UNL     1       1.704  12.095  21.056  0.00  0.00    +0.000 NA
ATOM     20  C   UNL     1       0.970  10.953  20.951  0.00  0.00    +0.000 A 
ATOM     21  C   UNL     1       0.975   9.887  21.766  0.00  0.00    +0.000 A 
ATOM     22  N   UNL     1       0.823   8.580  21.246  0.00  0.00    +0.000 N 
ATOM     23  C   UNL     1       1.103   8.490  19.896  0.00  0.00    +0.000 A 
ATOM     24  N   UNL     1       1.958   7.610  19.257  0.00  0.00    +0.000 N 
ATOM     25  H   UNL     1       1.194   7.883  21.887  0.00  0.00    +0.000 HD
ENDROOT
TORSDOF 0
ENDMDL
MODEL 2
REMARK VINA RESULT:      -7.7      2.493      7.093
REMARK  Name = 
REMARK  0 active torsions:
REMARK  status: ('A' for Active; 'I' for Inactive)
REMARK                            x       y       z     vdW  Elec       q    Type
REMARK                         _______ _______ _______ _____ _____    ______ ____
ROOT
ATOM      1  C   UNL     1      -0.665   9.559  21.602  0.00  0.00    +0.000 A 
ATOM      2  C   UNL     1       0.103   8.526  22.167  0.00  0.00    +0.000 A 
ATOM      3  C   UNL     1       1.099   7.908  21.412  0.00  0.00    +0.000 A 
ATOM      4  C   UNL     1       1.326   8.319  20.096  0.00  0.00    +0.000 A 
ATOM      5  C   UNL     1       0.556   9.351  19.524  0.00  0.00    +0.000 A 
ATOM      6  C   UNL     1      -0.440   9.967  20.284  0.00  0.00    +0.000 A 
ATOM      7  C   UNL     1       0.802   9.769  18.139  0.00  0.00    +0.000 A 
ATOM      8  C   UNL     1       1.837   9.261  17.450  0.00  0.00    +0.000 A 
ATOM      9  C   UNL     1       2.705   8.302  18.039  0.00  0.00    +0.000 A 
ATOM     10  N   UNL     1       3.793   7.737  17.543  0.00  0.00    +0.000 NA
ATOM     11  C   UNL     1       4.082   6.731  18.421  0.00  0.00    +0.000 A 
ATOM     12  C   UNL     1       4.762   5.509  18.063  0.00  0.00    +0.000 A 
ATOM     13  C   UNL     1       5.467   5.283  16.944  0.00  0.00    +0.000 A 
ATOM     14  C   UNL     1       6.793   4.648  16.849  0.00  0.00    +0.000 A 
ATOM     15  C   UNL     1       7.083   4.006  15.695  0.00  0.00    +0.000 A 
ATOM     16  C   UNL     1       6.108   4.011  14.605  0.00  0.00    +0.000 A 
ATOM     17  C   UNL     1       4.793   4.108  14.882  0.00  0.00    +0.000 A 
ATOM     18  C   UNL     1       4.515   4.298  16.324  0.00  0.00    +0.000 A 
ATOM     19  N   UNL     1       3.709   3.672  17.130  0.00  0.00    +0.000 NA
ATOM     20  C   UNL     1       3.868   4.354  18.297  0.00  0.00    +0.000 A 
ATOM     21  C   UNL     1       3.081   4.331  19.384  0.00  0.00    +0.000 A 
ATOM     22  N   UNL     1       2.871   5.503  20.148  0.00  0.00    +0.000 N 
ATOM     23  C   UNL     1       3.163   6.666  19.462  0.00  0.00    +0.000 A 
ATOM     24  N   UNL     1       2.366   7.784  19.297  0.00  0.00    +0.000 N 
ATOM     25  H   UNL     1       2.014   5.438  20.692  0.00  0.00    +0.000 HD
ENDROOT
TORSDOF 0
ENDMDL
MODEL 3
REMARK VINA RESULT:      -7.7      2.170      6.803
REMARK  Name = 
REMARK  0 active torsions:
REMARK  status: ('A' for Active; 'I' for Inactive)
REMARK                            x       y       z     vdW  Elec       q    Type
REMARK                         _______ _______ _______ _____ _____    ______ ____
ROOT
ATOM      1  C   UNL     1      -3.100  12.938  20.528  0.00  0.00    +0.000 A 
ATOM      2  C   UNL     1      -1.938  12.710  21.287  0.00  0.00    +0.000 A 
ATOM      3  C   UNL     1      -0.983  11.797  20.838  0.00  0.00    +0.000 A 
ATOM      4  C   UNL     1      -1.189  11.115  19.637  0.00  0.00    +0.000 A 
ATOM      5  C   UNL     1      -2.353  11.338  18.875  0.00  0.00    +0.000 A 
ATOM      6  C   UNL     1      -3.306  12.253  19.328  0.00  0.00    +0.000 A 
ATOM      7  C   UNL     1      -2.558  10.610  17.617  0.00  0.00    +0.000 A 
ATOM      8  C   UNL     1      -1.589   9.824  17.121  0.00  0.00    +0.000 A 
ATOM      9  C   UNL     1      -0.354   9.668  17.809  0.00  0.00    +0.000 A 
ATOM     10  N   UNL     1       0.724   8.989  17.455  0.00  0.00    +0.000 NA
ATOM     11  C   UNL     1       1.502   8.979  18.578  0.00  0.00    +0.000 A 
ATOM     12  C   UNL     1       2.444   7.937  18.906  0.00  0.00    +0.000 A 
ATOM     13  C   UNL     1       2.926   7.001  18.074  0.00  0.00    +0.000 A 
ATOM     14  C   UNL     1       4.333   6.586  17.932  0.00  0.00    +0.000 A 
ATOM     15  C   UNL     1       4.558   5.320  17.514  0.00  0.00    +0.000 A 
ATOM     16  C   UNL     1       3.422   4.459  17.186  0.00  0.00    +0.000 A 
ATOM     17  C   UNL     1       2.238   4.649  17.799  0.00  0.00    +0.000 A 
ATOM     18  C   UNL     1       2.230   5.824  18.699  0.00  0.00    +0.000 A 
ATOM     19  N   UNL     1       1.861   5.950  19.940  0.00  0.00    +0.000 NA
ATOM     20  C   UNL     1       2.040   7.280  20.169  0.00  0.00    +0.000 A 
ATOM     21  C   UNL     1       1.555   8.019  21.179  0.00  0.00    +0.000 A 
ATOM     22  N   UNL     1       1.150   9.358  20.963  0.00  0.00    +0.000 N 
ATOM     23  C   UNL     1       0.899   9.650  19.637  0.00  0.00    +0.000 A 
ATOM     24  N   UNL     1      -0.230  10.229  19.087  0.00  0.00    +0.000 N 
ATOM     25  H   UNL     1       0.497   9.664  21.681  0.00  0.00    +0.000 HD
ENDROOT
TORSDOF 0
ENDMDL
MODEL 4
REMARK VINA RESULT:      -7.7      2.074      6.831
REMARK  Name = 
REMARK  0 active torsions:
REMARK  status: ('A' for Active; 'I' for Inactive)
REMARK                            x       y       z     vdW  Elec       q    Type
REMARK                         _______ _______ _______ _____ _____    ______ ____
ROOT
ATOM      1  C   UNL     1      -1.851  12.350  21.359  0.00  0.00    +0.000 A 
ATOM      2  C   UNL     1      -0.876  11.718  22.151  0.00  0.00    +0.000 A 
ATOM      3  C   UNL     1      -0.046  10.747  21.590  0.00  0.00    +0.000 A 
ATOM      4  C   UNL     1      -0.191  10.409  20.243  0.00  0.00    +0.000 A 
ATOM      5  C   UNL     1      -1.168  11.036  19.445  0.00  0.00    +0.000 A 
ATOM      6  C   UNL     1      -1.996  12.007  20.012  0.00  0.00    +0.000 A 
ATOM      7  C   UNL     1      -1.312  10.666  18.032  0.00  0.00    +0.000 A 
ATOM      8  C   UNL     1      -0.438   9.823  17.459  0.00  0.00    +0.000 A 
ATOM      9  C   UNL     1       0.632   9.261  18.208  0.00  0.00    +0.000 A 
ATOM     10  N   UNL     1       1.610   8.465  17.809  0.00  0.00    +0.000 NA
ATOM     11  C   UNL     1       2.197   8.042  18.967  0.00  0.00    +0.000 A 
ATOM     12  C   UNL     1       2.875   6.778  19.121  0.00  0.00    +0.000 A 
ATOM     13  C   UNL     1       3.298   5.971  18.137  0.00  0.00    +0.000 A 
ATOM     14  C   UNL     1       4.611   5.310  18.040  0.00  0.00    +0.000 A 
ATOM     15  C   UNL     1       4.664   4.150  17.347  0.00  0.00    +0.000 A 
ATOM     16  C   UNL     1       3.452   3.643  16.703  0.00  0.00    +0.000 A 
ATOM     17  C   UNL     1       2.244   3.938  17.220  0.00  0.00    +0.000 A 
ATOM     18  C   UNL     1       2.316   4.858  18.377  0.00  0.00    +0.000 A 
ATOM     19  N   UNL     1       1.795   4.781  19.566  0.00  0.00    +0.000 NA
ATOM     20  C   UNL     1       2.175   5.958  20.134  0.00  0.00    +0.000 A 
ATOM     21  C   UNL     1       1.687   6.540  21.241  0.00  0.00    +0.000 A 
ATOM     22  N   UNL     1       1.567   7.947  21.324  0.00  0.00    +0.000 N 
ATOM     23  C   UNL     1       1.574   8.573  20.092  0.00  0.00    +0.000 A 
ATOM     24  N   UNL     1       0.664   9.485  19.592  0.00  0.00    +0.000 N 
ATOM     25  H   UNL     1       0.882   8.217  22.024  0.00  0.00    +0.000 HD
ENDROOT
TORSDOF 0
ENDMDL
MODEL 5
REMARK VINA RESULT:      -7.6      4.790      6.837
REMARK  Name = 
REMARK  0 active torsions:
REMARK  status: ('A' for Active; 'I' for Inactive)
REMARK                            x       y       z     vdW  Elec       q    Type
REMARK                         _______ _______ _______ _____ _____    ______ ____
ROOT
ATOM      1  C   UNL     1       1.489   9.048  19.095  0.00  0.00    +0.000 A 
ATOM      2  C   UNL     1       0.772  10.008  18.357  0.00  0.00    +0.000 A 
ATOM      3  C   UNL     1      -0.202  10.782  18.987  0.00  0.00    +0.000 A 
ATOM      4  C   UNL     1      -0.461  10.597  20.346  0.00  0.00    +0.000 A 
ATOM      5  C   UNL     1       0.252   9.635  21.089  0.00  0.00    +0.000 A 
ATOM      6  C   UNL     1       1.227   8.862  20.455  0.00  0.00    +0.000 A 
ATOM      7  C   UNL     1      -0.034   9.449  22.516  0.00  0.00    +0.000 A 
ATOM      8  C   UNL     1      -0.883  10.272  23.152  0.00  0.00    +0.000 A 
ATOM      9  C   UNL     1      -1.532  11.329  22.456  0.00  0.00    +0.000 A 
ATOM     10  N   UNL     1      -2.348  12.262  22.918  0.00  0.00    +0.000 NA
ATOM     11  C   UNL     1      -2.858  12.851  21.796  0.00  0.00    +0.000 A 
ATOM     12  C   UNL     1      -4.158  13.473  21.724  0.00  0.00    +0.000 A 
ATOM     13  C   UNL     1      -4.929  13.841  22.758  0.00  0.00    +0.000 A 
ATOM     14  C   UNL     1      -5.641  15.121  22.917  0.00  0.00    +0.000 A 
ATOM     15  C   UNL     1      -6.763  15.107  23.672  0.00  0.00    +0.000 A 
ATOM     16  C   UNL     1      -7.180  13.862  24.317  0.00  0.00    +0.000 A 
ATOM     17  C   UNL     1      -6.860  12.679  23.760  0.00  0.00    +0.000 A 
ATOM     18  C   UNL     1      -6.008  12.813  22.557  0.00  0.00    +0.000 A 
ATOM     19  N   UNL     1      -6.127  12.311  21.363  0.00  0.00    +0.000 NA
ATOM     20  C   UNL     1      -5.000  12.755  20.741  0.00  0.00    +0.000 A 
ATOM     21  C   UNL     1      -4.458  12.315  19.595  0.00  0.00    +0.000 A 
ATOM     22  N   UNL     1      -3.053  12.261  19.435  0.00  0.00    +0.000 N 
ATOM     23  C   UNL     1      -2.363  12.273  20.632  0.00  0.00    +0.000 A 
ATOM     24  N   UNL     1      -1.385  11.396  21.064  0.00  0.00    +0.000 N 
ATOM     25  H   UNL     1      -2.791  11.601  18.707  0.00  0.00    +0.000 HD
ENDROOT
TORSDOF 0
ENDMDL
MODEL 6
REMARK VINA RESULT:      -7.5      2.872      4.629
REMARK  Name = 
REMARK  0 active torsions:
REMARK  status: ('A' for Active; 'I' for Inactive)
REMARK                            x       y       z     vdW  Elec       q    Type
REMARK                         _______ _______ _______ _____ _____    ______ ____
ROOT
ATOM      1  C   UNL     1       2.941   7.081  18.330  0.00  0.00    +0.000 A 
ATOM      2  C   UNL     1       2.593   8.150  17.485  0.00  0.00    +0.000 A 
ATOM      3  C   UNL     1       1.759   9.164  17.955  0.00  0.00    +0.000 A 
ATOM      4  C   UNL     1       1.273   9.109  19.262  0.00  0.00    +0.000 A 
ATOM      5  C   UNL     1       1.616   8.039  20.112  0.00  0.00    +0.000 A 
ATOM      6  C   UNL     1       2.452   7.026  19.637  0.00  0.00    +0.000 A 
ATOM      7  C   UNL     1       1.094   7.992  21.483  0.00  0.00    +0.000 A 
ATOM      8  C   UNL     1       0.391   9.024  21.977  0.00  0.00    +0.000 A 
ATOM      9  C   UNL     1       0.125  10.173  21.183  0.00  0.00    +0.000 A 
ATOM     10  N   UNL     1      -0.494  11.295  21.509  0.00  0.00    +0.000 NA
ATOM     11  C   UNL     1      -0.681  11.937  20.318  0.00  0.00    +0.000 A 
ATOM     12  C   UNL     1      -1.766  12.850  20.047  0.00  0.00    +0.000 A 
ATOM     13  C   UNL     1      -2.562  13.439  20.952  0.00  0.00    +0.000 A 
ATOM     14  C   UNL     1      -2.954  14.859  20.990  0.00  0.00    +0.000 A 
ATOM     15  C   UNL     1      -4.140  15.150  21.570  0.00  0.00    +0.000 A 
ATOM     16  C   UNL     1      -4.937  14.073  22.159  0.00  0.00    +0.000 A 
ATOM     17  C   UNL     1      -4.840  12.823  21.667  0.00  0.00    +0.000 A 
ATOM     18  C   UNL     1      -3.820  12.693  20.602  0.00  0.00    +0.000 A 
ATOM     19  N   UNL     1      -3.887  12.180  19.410  0.00  0.00    +0.000 NA
ATOM     20  C   UNL     1      -2.610  12.312  18.958  0.00  0.00    +0.000 A 
ATOM     21  C   UNL     1      -2.035  11.702  17.909  0.00  0.00    +0.000 A 
ATOM     22  N   UNL     1      -0.678  11.304  17.960  0.00  0.00    +0.000 N 
ATOM     23  C   UNL     1      -0.182  11.205  19.246  0.00  0.00    +0.000 A 
ATOM     24  N   UNL     1       0.480  10.139  19.827  0.00  0.00    +0.000 N 
ATOM     25  H   UNL     1      -0.485  10.568  17.285  0.00  0.00    +0.000 HD
ENDROOT
TORSDOF 0
ENDMDL
MODEL 7
REMARK VINA RESULT:      -7.5      1.978      3.577
REMARK  Name = 
REMARK  0 active torsions:
REMARK  status: ('A' for Active; 'I' for Inactive)
REMARK                            x       y       z     vdW  Elec       q    Type
REMARK                         _______ _______ _______ _____ _____    ______ ____
ROOT
ATOM      1  C   UNL     1       3.764   2.042  17.731  0.00  0.00    +0.000 A 
ATOM      2  C   UNL     1       4.396   3.237  17.344  0.00  0.00    +0.000 A 
ATOM      3  C   UNL     1       3.943   4.456  17.847  0.00  0.00    +0.000 A 
ATOM      4  C   UNL     1       2.864   4.482  18.732  0.00  0.00    +0.000 A 
ATOM      5  C   UNL     1       2.225   3.288  19.121  0.00  0.00    +0.000 A 
ATOM      6  C   UNL     1       2.681   2.069  18.615  0.00  0.00    +0.000 A 
ATOM      7  C   UNL     1       1.088   3.331  20.048  0.00  0.00    +0.000 A 
ATOM      8  C   UNL     1       0.728   4.487  20.627  0.00  0.00    +0.000 A 
ATOM      9  C   UNL     1       1.427   5.693  20.345  0.00  0.00    +0.000 A 
ATOM     10  N   UNL     1       1.255   6.902  20.853  0.00  0.00    +0.000 NA
ATOM     11  C   UNL     1       2.016   7.714  20.060  0.00  0.00    +0.000 A 
ATOM     12  C   UNL     1       1.733   9.107  19.813  0.00  0.00    +0.000 A 
ATOM     13  C   UNL     1       0.903   9.893  20.516  0.00  0.00    +0.000 A 
ATOM     14  C   UNL     1       1.174  11.260  20.992  0.00  0.00    +0.000 A 
ATOM     15  C   UNL     1       0.107  12.074  21.157  0.00  0.00    +0.000 A 
ATOM     16  C   UNL     1      -1.238  11.556  20.905  0.00  0.00    +0.000 A 
ATOM     17  C   UNL     1      -1.417  10.563  20.012  0.00  0.00    +0.000 A 
ATOM     18  C   UNL     1      -0.147  10.049  19.451  0.00  0.00    +0.000 A 
ATOM     19  N   UNL     1       0.229   9.855  18.221  0.00  0.00    +0.000 NA
ATOM     20  C   UNL     1       1.469   9.314  18.372  0.00  0.00    +0.000 A 
ATOM     21  C   UNL     1       2.204   8.658  17.460  0.00  0.00    +0.000 A 
ATOM     22  N   UNL     1       3.017   7.564  17.839  0.00  0.00    +0.000 N 
ATOM     23  C   UNL     1       2.657   7.005  19.050  0.00  0.00    +0.000 A 
ATOM     24  N   UNL     1       2.399   5.677  19.335  0.00  0.00    +0.000 N 
ATOM     25  H   UNL     1       3.217   6.962  17.044  0.00  0.00    +0.000 HD
ENDROOT
TORSDOF 0
ENDMDL
MODEL 8
REMARK VINA RESULT:      -7.4      3.377      5.120
REMARK  Name = 
REMARK  0 active torsions:
REMARK  status: ('A' for Active; 'I' for Inactive)
REMARK                            x       y       z     vdW  Elec       q    Type
REMARK                         _______ _______ _______ _____ _____    ______ ____
ROOT
ATOM      1  C   UNL     1       2.448   7.611  18.406  0.00  0.00    +0.000 A 
ATOM      2  C   UNL     1       1.954   8.716  17.691  0.00  0.00    +0.000 A 
ATOM      3  C   UNL     1       1.196   9.686  18.347  0.00  0.00    +0.000 A 
ATOM      4  C   UNL     1       0.933   9.551  19.712  0.00  0.00    +0.000 A 
ATOM      5  C   UNL     1       1.423   8.444  20.432  0.00  0.00    +0.000 A 
ATOM      6  C   UNL     1       2.181   7.475  19.771  0.00  0.00    +0.000 A 
ATOM      7  C   UNL     1       1.133   8.313  21.865  0.00  0.00    +0.000 A 
ATOM      8  C   UNL     1       0.509   9.302  22.525  0.00  0.00    +0.000 A 
ATOM      9  C   UNL     1       0.104  10.486  21.850  0.00  0.00    +0.000 A 
ATOM     10  N   UNL     1      -0.467  11.576  22.336  0.00  0.00    +0.000 NA
ATOM     11  C   UNL     1      -0.854  12.277  21.230  0.00  0.00    +0.000 A 
ATOM     12  C   UNL     1      -1.978  13.181  21.191  0.00  0.00    +0.000 A 
ATOM     13  C   UNL     1      -2.622  13.704  22.246  0.00  0.00    +0.000 A 
ATOM     14  C   UNL     1      -3.019  15.111  22.428  0.00  0.00    +0.000 A 
ATOM     15  C   UNL     1      -4.097  15.347  23.209  0.00  0.00    +0.000 A 
ATOM     16  C   UNL     1      -4.774  14.223  23.858  0.00  0.00    +0.000 A 
ATOM     17  C   UNL     1      -4.745  13.004  23.287  0.00  0.00    +0.000 A 
ATOM     18  C   UNL     1      -3.912  12.952  22.065  0.00  0.00    +0.000 A 
ATOM     19  N   UNL     1      -4.168  12.503  20.872  0.00  0.00    +0.000 NA
ATOM     20  C   UNL     1      -2.983  12.685  20.226  0.00  0.00    +0.000 A 
ATOM     21  C   UNL     1      -2.582  12.144  19.064  0.00  0.00    +0.000 A 
ATOM     22  N   UNL     1      -1.230  11.772  18.871  0.00  0.00    +0.000 N 
ATOM     23  C   UNL     1      -0.529  11.614  20.051  0.00  0.00    +0.000 A 
ATOM     24  N   UNL     1       0.231  10.532  20.455  0.00  0.00    +0.000 N 
ATOM     25  H   UNL     1      -1.142  11.078  18.134  0.00  0.00    +0.000 HD
ENDROOT
TORSDOF 0
ENDMDL
MODEL 9
REMARK VINA RESULT:      -7.4      2.293      7.919
REMARK  Name = 
REMARK  0 active torsions:
REMARK  status: ('A' for Active; 'I' for Inactive)
REMARK                            x       y       z     vdW  Elec       q    Type
REMARK                         _______ _______ _______ _____ _____    ______ ____
ROOT
ATOM      1  C   UNL     1       0.659  18.566  17.118  0.00  0.00    +0.000 A 
ATOM      2  C   UNL     1      -0.488  17.943  17.641  0.00  0.00    +0.000 A 
ATOM      3  C   UNL     1      -0.390  16.675  18.215  0.00  0.00    +0.000 A 
ATOM      4  C   UNL     1       0.848  16.033  18.266  0.00  0.00    +0.000 A 
ATOM      5  C   UNL     1       2.000  16.651  17.741  0.00  0.00    +0.000 A 
ATOM      6  C   UNL     1       1.898  17.920  17.167  0.00  0.00    +0.000 A 
ATOM      7  C   UNL     1       3.295  15.961  17.797  0.00  0.00    +0.000 A 
ATOM      8  C   UNL     1       3.416  14.797  18.455  0.00  0.00    +0.000 A 
ATOM      9  C   UNL     1       2.295  14.203  19.097  0.00  0.00    +0.000 A 
ATOM     10  N   UNL     1       2.232  13.103  19.829  0.00  0.00    +0.000 NA
ATOM     11  C   UNL     1       0.895  12.873  19.982  0.00  0.00    +0.000 A 
ATOM     12  C   UNL     1       0.308  11.568  20.166  0.00  0.00    +0.000 A 
ATOM     13  C   UNL     1       0.952  10.442  20.510  0.00  0.00    +0.000 A 
ATOM     14  C   UNL     1       0.534   9.463  21.529  0.00  0.00    +0.000 A 
ATOM     15  C   UNL     1       0.944   8.186  21.355  0.00  0.00    +0.000 A 
ATOM     16  C   UNL     1       1.800   7.855  20.215  0.00  0.00    +0.000 A 
ATOM     17  C   UNL     1       1.721   8.582  19.084  0.00  0.00    +0.000 A 
ATOM     18  C   UNL     1       0.795   9.731  19.194  0.00  0.00    +0.000 A 
ATOM     19  N   UNL     1      -0.184  10.118  18.431  0.00  0.00    +0.000 NA
ATOM     20  C   UNL     1      -0.598  11.265  19.037  0.00  0.00    +0.000 A 
ATOM     21  C   UNL     1      -1.382  12.232  18.534  0.00  0.00    +0.000 A 
ATOM     22  N   UNL     1      -1.151  13.590  18.858  0.00  0.00    +0.000 N 
ATOM     23  C   UNL     1       0.123  13.832  19.334  0.00  0.00    +0.000 A 
ATOM     24  N   UNL     1       1.032  14.778  18.897  0.00  0.00    +0.000 N 
ATOM     25  H   UNL     1      -1.557  14.208  18.161  0.00  0.00    +0.000 HD
ENDROOT
TORSDOF 0
ENDMDL
