MODEL 1
REMARK VINA RESULT:      -7.4      0.000      0.000
REMARK  Name = 
REMARK  4 active torsions:
REMARK  status: ('A' for Active; 'I' for Inactive)
REMARK    1  A    between atoms: C_1  and  C_2
REMARK    2  A    between atoms: C_2  and  C_3
REMARK    3  A    between atoms: C_3  and  N_4
REMARK    4  A    between atoms: C_6  and  C_7
REMARK                            x       y       z     vdW  Elec       q    Type
REMARK                         _______ _______ _______ _____ _____    ______ ____
ROOT
ATOM      1  N   UNL     1       2.801   4.596  19.744  0.00  0.00    +0.000 N 
ATOM      2  C   UNL     1       2.061   5.581  20.352  0.00  0.00    +0.000 A 
ATOM      3  C   UNL     1       2.271   6.769  19.674  0.00  0.00    +0.000 A 
ATOM      4  C   UNL     1       3.164   6.475  18.594  0.00  0.00    +0.000 A 
ATOM      5  C   UNL     1       3.750   7.255  17.572  0.00  0.00    +0.000 A 
ATOM      6  C   UNL     1       4.634   6.669  16.661  0.00  0.00    +0.000 A 
ATOM      7  C   UNL     1       4.942   5.316  16.762  0.00  0.00    +0.000 A 
ATOM      8  I   UNL     1       6.274   4.470  15.404  0.00  0.00    +0.000 I 
ATOM      9  C   UNL     1       4.380   4.513  17.758  0.00  0.00    +0.000 A 
ATOM     10  C   UNL     1       3.489   5.116  18.667  0.00  0.00    +0.000 A 
ENDROOT
BRANCH   3  11
ATOM     11  C   UNL     1       1.699   8.054  20.066  0.00  0.00    +0.000 A 
ATOM     12  C   UNL     1       1.473   9.047  19.140  0.00  0.00    +0.000 A 
ATOM     13  C   UNL     1       0.853  10.174  19.618  0.00  0.00    +0.000 A 
ATOM     14  N   UNL     1       0.489  10.332  20.902  0.00  0.00    +0.000 NA
ATOM     15  C   UNL     1       0.746   9.312  21.722  0.00  0.00    +0.000 A 
ATOM     16  N   UNL     1       0.391   9.459  23.047  0.00  0.00    +0.000 N 
ATOM     17  N   UNL     1       1.353   8.179  21.366  0.00  0.00    +0.000 NA
ATOM     18  H   UNL     1       0.330  10.443  23.269  0.00  0.00    +0.000 HD
ATOM     19  H   UNL     1       0.994   8.890  23.624  0.00  0.00    +0.000 HD
ENDBRANCH   3  11
BRANCH   1  20
ATOM     20  C   UNL     1       2.828   3.207  20.180  0.00  0.00    +0.000 C 
BRANCH  20  22
ATOM     21  C   UNL     1       0.860   2.417  18.816  0.00  0.00    +0.000 C 
ATOM     22  C   UNL     1       1.436   2.577  20.215  0.00  0.00    +0.000 C 
ENDBRANCH  20  22
ENDBRANCH   1  20
TORSDOF 3
ENDMDL
MODEL 2
REMARK VINA RESULT:      -7.4      0.888      1.538
REMARK  Name = 
REMARK  4 active torsions:
REMARK  status: ('A' for Active; 'I' for Inactive)
REMARK    1  A    between atoms: C_1  and  C_2
REMARK    2  A    between atoms: C_2  and  C_3
REMARK    3  A    between atoms: C_3  and  N_4
REMARK    4  A    between atoms: C_6  and  C_7
REMARK                            x       y       z     vdW  Elec       q    Type
REMARK                         _______ _______ _______ _____ _____    ______ ____
ROOT
ATOM      1  N   UNL     1       2.752   4.681  19.858  0.00  0.00    +0.000 N 
ATOM      2  C   UNL     1       2.007   5.678  20.438  0.00  0.00    +0.000 A 
ATOM      3  C   UNL     1       2.209   6.848  19.726  0.00  0.00    +0.000 A 
ATOM      4  C   UNL     1       3.102   6.528  18.653  0.00  0.00    +0.000 A 
ATOM      5  C   UNL     1       3.682   7.282  17.608  0.00  0.00    +0.000 A 
ATOM      6  C   UNL     1       4.568   6.674  16.714  0.00  0.00    +0.000 A 
ATOM      7  C   UNL     1       4.885   5.328  16.853  0.00  0.00    +0.000 A 
ATOM      8  I   UNL     1       6.221   4.450  15.518  0.00  0.00    +0.000 I 
ATOM      9  C   UNL     1       4.329   4.550  17.873  0.00  0.00    +0.000 A 
ATOM     10  C   UNL     1       3.436   5.173  18.766  0.00  0.00    +0.000 A 
ENDROOT
BRANCH   3  11
ATOM     11  C   UNL     1       1.630   8.140  20.081  0.00  0.00    +0.000 A 
ATOM     12  C   UNL     1       1.361   8.465  21.392  0.00  0.00    +0.000 A 
ATOM     13  C   UNL     1       0.899   9.740  21.603  0.00  0.00    +0.000 A 
ATOM     14  N   UNL     1       0.699  10.630  20.617  0.00  0.00    +0.000 NA
ATOM     15  C   UNL     1       0.994  10.222  19.380  0.00  0.00    +0.000 A 
ATOM     16  N   UNL     1       0.785  11.117  18.352  0.00  0.00    +0.000 N 
ATOM     17  N   UNL     1       1.437   9.006  19.063  0.00  0.00    +0.000 NA
ATOM     18  H   UNL     1       0.103  11.805  18.640  0.00  0.00    +0.000 HD
ATOM     19  H   UNL     1       0.601  10.613  17.497  0.00  0.00    +0.000 HD
ENDBRANCH   3  11
BRANCH   1  20
ATOM     20  C   UNL     1       2.788   3.306  20.334  0.00  0.00    +0.000 C 
BRANCH  20  22
ATOM     21  C   UNL     1       0.872   2.488  18.914  0.00  0.00    +0.000 C 
ATOM     22  C   UNL     1       1.409   2.647  20.329  0.00  0.00    +0.000 C 
ENDBRANCH  20  22
ENDBRANCH   1  20
TORSDOF 3
ENDMDL
MODEL 3
REMARK VINA RESULT:      -7.3      3.987      7.298
REMARK  Name = 
REMARK  4 active torsions:
REMARK  status: ('A' for Active; 'I' for Inactive)
REMARK    1  A    between atoms: C_1  and  C_2
REMARK    2  A    between atoms: C_2  and  C_3
REMARK    3  A    between atoms: C_3  and  N_4
REMARK    4  A    between atoms: C_6  and  C_7
REMARK                            x       y       z     vdW  Elec       q    Type
REMARK                         _______ _______ _______ _____ _____    ______ ____
ROOT
ATOM      1  N   UNL     1       3.932   6.734  17.464  0.00  0.00    +0.000 N 
ATOM      2  C   UNL     1       4.658   6.684  16.299  0.00  0.00    +0.000 A 
ATOM      3  C   UNL     1       4.936   5.358  16.013  0.00  0.00    +0.000 A 
ATOM      4  C   UNL     1       4.326   4.577  17.046  0.00  0.00    +0.000 A 
ATOM      5  C   UNL     1       4.262   3.191  17.312  0.00  0.00    +0.000 A 
ATOM      6  C   UNL     1       3.603   2.726  18.455  0.00  0.00    +0.000 A 
ATOM      7  C   UNL     1       3.012   3.627  19.333  0.00  0.00    +0.000 A 
ATOM      8  I   UNL     1       2.050   2.911  21.035  0.00  0.00    +0.000 I 
ATOM      9  C   UNL     1       3.052   5.005  19.100  0.00  0.00    +0.000 A 
ATOM     10  C   UNL     1       3.718   5.459  17.946  0.00  0.00    +0.000 A 
ENDROOT
BRANCH   3  11
ATOM     11  C   UNL     1       5.743   4.911  14.881  0.00  0.00    +0.000 A 
ATOM     12  C   UNL     1       5.306   3.908  14.044  0.00  0.00    +0.000 A 
ATOM     13  C   UNL     1       6.115   3.640  12.969  0.00  0.00    +0.000 A 
ATOM     14  N   UNL     1       7.269   4.285  12.729  0.00  0.00    +0.000 NA
ATOM     15  C   UNL     1       7.605   5.244  13.594  0.00  0.00    +0.000 A 
ATOM     16  N   UNL     1       8.792   5.911  13.371  0.00  0.00    +0.000 N 
ATOM     17  N   UNL     1       6.900   5.579  14.675  0.00  0.00    +0.000 NA
ATOM     18  H   UNL     1       9.400   5.332  12.809  0.00  0.00    +0.000 HD
ATOM     19  H   UNL     1       9.157   6.252  14.249  0.00  0.00    +0.000 HD
ENDBRANCH   3  11
BRANCH   1  20
ATOM     20  C   UNL     1       3.455   7.966  18.076  0.00  0.00    +0.000 C 
BRANCH  20  22
ATOM     21  C   UNL     1       1.626   9.701  18.085  0.00  0.00    +0.000 C 
ATOM     22  C   UNL     1       2.002   8.275  17.716  0.00  0.00    +0.000 C 
ENDBRANCH  20  22
ENDBRANCH   1  20
TORSDOF 3
ENDMDL
MODEL 4
REMARK VINA RESULT:      -7.2      3.137      5.781
REMARK  Name = 
REMARK  4 active torsions:
REMARK  status: ('A' for Active; 'I' for Inactive)
REMARK    1  A    between atoms: C_1  and  C_2
REMARK    2  A    between atoms: C_2  and  C_3
REMARK    3  A    between atoms: C_3  and  N_4
REMARK    4  A    between atoms: C_6  and  C_7
REMARK                            x       y       z     vdW  Elec       q    Type
REMARK                         _______ _______ _______ _____ _____    ______ ____
ROOT
ATOM      1  N   UNL     1       2.580   5.539  20.013  0.00  0.00    +0.000 N 
ATOM      2  C   UNL     1       3.624   4.899  19.391  0.00  0.00    +0.000 A 
ATOM      3  C   UNL     1       4.092   5.710  18.372  0.00  0.00    +0.000 A 
ATOM      4  C   UNL     1       3.303   6.905  18.401  0.00  0.00    +0.000 A 
ATOM      5  C   UNL     1       3.289   8.085  17.624  0.00  0.00    +0.000 A 
ATOM      6  C   UNL     1       2.347   9.085  17.883  0.00  0.00    +0.000 A 
ATOM      7  C   UNL     1       1.418   8.918  18.905  0.00  0.00    +0.000 A 
ATOM      8  I   UNL     1       0.013  10.414  19.260  0.00  0.00    +0.000 I 
ATOM      9  C   UNL     1       1.403   7.766  19.695  0.00  0.00    +0.000 A 
ATOM     10  C   UNL     1       2.358   6.768  19.425  0.00  0.00    +0.000 A 
ENDROOT
BRANCH   3  11
ATOM     11  C   UNL     1       5.160   5.340  17.448  0.00  0.00    +0.000 A 
ATOM     12  C   UNL     1       5.024   5.524  16.090  0.00  0.00    +0.000 A 
ATOM     13  C   UNL     1       6.130   5.218  15.337  0.00  0.00    +0.000 A 
ATOM     14  N   UNL     1       7.278   4.755  15.859  0.00  0.00    +0.000 NA
ATOM     15  C   UNL     1       7.313   4.615  17.186  0.00  0.00    +0.000 A 
ATOM     16  N   UNL     1       8.479   4.129  17.741  0.00  0.00    +0.000 N 
ATOM     17  N   UNL     1       6.296   4.872  18.008  0.00  0.00    +0.000 NA
ATOM     18  H   UNL     1       8.992   3.611  17.042  0.00  0.00    +0.000 HD
ATOM     19  H   UNL     1       8.269   3.656  18.608  0.00  0.00    +0.000 HD
ENDBRANCH   3  11
BRANCH   1  20
ATOM     20  C   UNL     1       1.838   4.989  21.138  0.00  0.00    +0.000 C 
BRANCH  20  22
ATOM     21  C   UNL     1       0.725   3.096  19.899  0.00  0.00    +0.000 C 
ATOM     22  C   UNL     1       1.660   3.475  21.038  0.00  0.00    +0.000 C 
ENDBRANCH  20  22
ENDBRANCH   1  20
TORSDOF 3
ENDMDL
MODEL 5
REMARK VINA RESULT:      -7.2      3.203      5.969
REMARK  Name = 
REMARK  4 active torsions:
REMARK  status: ('A' for Active; 'I' for Inactive)
REMARK    1  A    between atoms: C_1  and  C_2
REMARK    2  A    between atoms: C_2  and  C_3
REMARK    3  A    between atoms: C_3  and  N_4
REMARK    4  A    between atoms: C_6  and  C_7
REMARK                            x       y       z     vdW  Elec       q    Type
REMARK                         _______ _______ _______ _____ _____    ______ ____
ROOT
ATOM      1  N   UNL     1       2.886   5.172  20.100  0.00  0.00    +0.000 N 
ATOM      2  C   UNL     1       3.922   4.564  19.435  0.00  0.00    +0.000 A 
ATOM      3  C   UNL     1       4.336   5.398  18.410  0.00  0.00    +0.000 A 
ATOM      4  C   UNL     1       3.521   6.573  18.482  0.00  0.00    +0.000 A 
ATOM      5  C   UNL     1       3.454   7.762  17.721  0.00  0.00    +0.000 A 
ATOM      6  C   UNL     1       2.498   8.736  18.026  0.00  0.00    +0.000 A 
ATOM      7  C   UNL     1       1.609   8.536  19.076  0.00  0.00    +0.000 A 
ATOM      8  I   UNL     1       0.185   9.994  19.499  0.00  0.00    +0.000 I 
ATOM      9  C   UNL     1       1.648   7.374  19.852  0.00  0.00    +0.000 A 
ATOM     10  C   UNL     1       2.616   6.402  19.536  0.00  0.00    +0.000 A 
ENDROOT
BRANCH   3  11
ATOM     11  C   UNL     1       5.379   5.063  17.445  0.00  0.00    +0.000 A 
ATOM     12  C   UNL     1       6.696   4.947  17.829  0.00  0.00    +0.000 A 
ATOM     13  C   UNL     1       7.566   4.545  16.848  0.00  0.00    +0.000 A 
ATOM     14  N   UNL     1       7.191   4.286  15.584  0.00  0.00    +0.000 NA
ATOM     15  C   UNL     1       5.892   4.422  15.310  0.00  0.00    +0.000 A 
ATOM     16  N   UNL     1       5.488   4.172  14.015  0.00  0.00    +0.000 N 
ATOM     17  N   UNL     1       4.965   4.817  16.183  0.00  0.00    +0.000 NA
ATOM     18  H   UNL     1       6.276   4.283  13.392  0.00  0.00    +0.000 HD
ATOM     19  H   UNL     1       4.656   4.707  13.811  0.00  0.00    +0.000 HD
ENDBRANCH   3  11
BRANCH   1  20
ATOM     20  C   UNL     1       2.197   4.591  21.243  0.00  0.00    +0.000 C 
BRANCH  20  22
ATOM     21  C   UNL     1       0.774   3.097  19.794  0.00  0.00    +0.000 C 
ATOM     22  C   UNL     1       1.726   3.162  20.979  0.00  0.00    +0.000 C 
ENDBRANCH  20  22
ENDBRANCH   1  20
TORSDOF 3
ENDMDL
MODEL 6
REMARK VINA RESULT:      -7.0      3.213      5.748
REMARK  Name = 
REMARK  4 active torsions:
REMARK  status: ('A' for Active; 'I' for Inactive)
REMARK    1  A    between atoms: C_1  and  C_2
REMARK    2  A    between atoms: C_2  and  C_3
REMARK    3  A    between atoms: C_3  and  N_4
REMARK    4  A    between atoms: C_6  and  C_7
REMARK                            x       y       z     vdW  Elec       q    Type
REMARK                         _______ _______ _______ _____ _____    ______ ____
ROOT
ATOM      1  N   UNL     1       2.714   4.926  20.372  0.00  0.00    +0.000 N 
ATOM      2  C   UNL     1       3.642   4.371  19.525  0.00  0.00    +0.000 A 
ATOM      3  C   UNL     1       3.929   5.286  18.527  0.00  0.00    +0.000 A 
ATOM      4  C   UNL     1       3.150   6.456  18.805  0.00  0.00    +0.000 A 
ATOM      5  C   UNL     1       3.001   7.704  18.160  0.00  0.00    +0.000 A 
ATOM      6  C   UNL     1       2.111   8.654  18.670  0.00  0.00    +0.000 A 
ATOM      7  C   UNL     1       1.367   8.370  19.810  0.00  0.00    +0.000 A 
ATOM      8  I   UNL     1       0.035   9.796  20.540  0.00  0.00    +0.000 I 
ATOM      9  C   UNL     1       1.490   7.147  20.475  0.00  0.00    +0.000 A 
ATOM     10  C   UNL     1       2.392   6.200  19.952  0.00  0.00    +0.000 A 
ENDROOT
BRANCH   3  11
ATOM     11  C   UNL     1       4.828   5.029  17.406  0.00  0.00    +0.000 A 
ATOM     12  C   UNL     1       4.548   4.053  16.475  0.00  0.00    +0.000 A 
ATOM     13  C   UNL     1       5.426   3.968  15.424  0.00  0.00    +0.000 A 
ATOM     14  N   UNL     1       6.503   4.761  15.290  0.00  0.00    +0.000 NA
ATOM     15  C   UNL     1       6.687   5.679  16.241  0.00  0.00    +0.000 A 
ATOM     16  N   UNL     1       7.793   6.495  16.128  0.00  0.00    +0.000 N 
ATOM     17  N   UNL     1       5.904   5.840  17.308  0.00  0.00    +0.000 NA
ATOM     18  H   UNL     1       8.488   6.038  15.554  0.00  0.00    +0.000 HD
ATOM     19  H   UNL     1       8.080   6.804  17.046  0.00  0.00    +0.000 HD
ENDBRANCH   3  11
BRANCH   1  20
ATOM     20  C   UNL     1       2.174   4.255  21.545  0.00  0.00    +0.000 C 
BRANCH  20  22
ATOM     21  C   UNL     1       0.629   3.015  19.985  0.00  0.00    +0.000 C 
ATOM     22  C   UNL     1       1.530   2.911  21.206  0.00  0.00    +0.000 C 
ENDBRANCH  20  22
ENDBRANCH   1  20
TORSDOF 3
ENDMDL
MODEL 7
REMARK VINA RESULT:      -6.9      3.447      5.636
REMARK  Name = 
REMARK  4 active torsions:
REMARK  status: ('A' for Active; 'I' for Inactive)
REMARK    1  A    between atoms: C_1  and  C_2
REMARK    2  A    between atoms: C_2  and  C_3
REMARK    3  A    between atoms: C_3  and  N_4
REMARK    4  A    between atoms: C_6  and  C_7
REMARK                            x       y       z     vdW  Elec       q    Type
REMARK                         _______ _______ _______ _____ _____    ______ ____
ROOT
ATOM      1  N   UNL     1       6.761   6.024  18.148  0.00  0.00    +0.000 N 
ATOM      2  C   UNL     1       5.804   5.713  19.082  0.00  0.00    +0.000 A 
ATOM      3  C   UNL     1       4.856   4.900  18.485  0.00  0.00    +0.000 A 
ATOM      4  C   UNL     1       5.281   4.697  17.132  0.00  0.00    +0.000 A 
ATOM      5  C   UNL     1       4.744   3.982  16.038  0.00  0.00    +0.000 A 
ATOM      6  C   UNL     1       5.393   4.006  14.799  0.00  0.00    +0.000 A 
ATOM      7  C   UNL     1       6.565   4.736  14.641  0.00  0.00    +0.000 A 
ATOM      8  I   UNL     1       7.503   4.769  12.782  0.00  0.00    +0.000 I 
ATOM      9  C   UNL     1       7.126   5.453  15.702  0.00  0.00    +0.000 A 
ATOM     10  C   UNL     1       6.464   5.419  16.944  0.00  0.00    +0.000 A 
ENDROOT
BRANCH   3  11
ATOM     11  C   UNL     1       3.650   4.414  19.149  0.00  0.00    +0.000 A 
ATOM     12  C   UNL     1       2.978   5.191  20.067  0.00  0.00    +0.000 A 
ATOM     13  C   UNL     1       1.813   4.656  20.556  0.00  0.00    +0.000 A 
ATOM     14  N   UNL     1       1.339   3.452  20.193  0.00  0.00    +0.000 NA
ATOM     15  C   UNL     1       2.059   2.777  19.294  0.00  0.00    +0.000 A 
ATOM     16  N   UNL     1       1.596   1.534  18.917  0.00  0.00    +0.000 N 
ATOM     17  N   UNL     1       3.208   3.197  18.764  0.00  0.00    +0.000 NA
ATOM     18  H   UNL     1       0.992   1.168  19.640  0.00  0.00    +0.000 HD
ATOM     19  H   UNL     1       2.372   0.957  18.626  0.00  0.00    +0.000 HD
ENDBRANCH   3  11
BRANCH   1  20
ATOM     20  C   UNL     1       7.922   6.861  18.415  0.00  0.00    +0.000 C 
BRANCH  20  22
ATOM     21  C   UNL     1       8.600   9.289  18.451  0.00  0.00    +0.000 C 
ATOM     22  C   UNL     1       7.855   8.204  17.689  0.00  0.00    +0.000 C 
ENDBRANCH  20  22
ENDBRANCH   1  20
TORSDOF 3
ENDMDL
MODEL 8
REMARK VINA RESULT:      -6.8      0.974      1.281
REMARK  Name = 
REMARK  4 active torsions:
REMARK  status: ('A' for Active; 'I' for Inactive)
REMARK    1  A    between atoms: C_1  and  C_2
REMARK    2  A    between atoms: C_2  and  C_3
REMARK    3  A    between atoms: C_3  and  N_4
REMARK    4  A    between atoms: C_6  and  C_7
REMARK                            x       y       z     vdW  Elec       q    Type
REMARK                         _______ _______ _______ _____ _____    ______ ____
ROOT
ATOM      1  N   UNL     1       2.714   4.414  18.595  0.00  0.00    +0.000 N 
ATOM      2  C   UNL     1       2.011   5.386  19.263  0.00  0.00    +0.000 A 
ATOM      3  C   UNL     1       2.412   6.622  18.788  0.00  0.00    +0.000 A 
ATOM      4  C   UNL     1       3.387   6.375  17.768  0.00  0.00    +0.000 A 
ATOM      5  C   UNL     1       4.158   7.213  16.931  0.00  0.00    +0.000 A 
ATOM      6  C   UNL     1       5.077   6.656  16.037  0.00  0.00    +0.000 A 
ATOM      7  C   UNL     1       5.237   5.277  15.971  0.00  0.00    +0.000 A 
ATOM      8  I   UNL     1       6.625   4.473  14.642  0.00  0.00    +0.000 I 
ATOM      9  C   UNL     1       4.491   4.417  16.782  0.00  0.00    +0.000 A 
ATOM     10  C   UNL     1       3.568   4.990  17.677  0.00  0.00    +0.000 A 
ENDROOT
BRANCH   3  11
ATOM     11  C   UNL     1       1.929   7.900  19.303  0.00  0.00    +0.000 A 
ATOM     12  C   UNL     1       1.685   8.962  18.461  0.00  0.00    +0.000 A 
ATOM     13  C   UNL     1       1.151  10.078  19.055  0.00  0.00    +0.000 A 
ATOM     14  N   UNL     1       0.886  10.164  20.370  0.00  0.00    +0.000 NA
ATOM     15  C   UNL     1       1.152   9.080  21.102  0.00  0.00    +0.000 A 
ATOM     16  N   UNL     1       0.897   9.152  22.455  0.00  0.00    +0.000 N 
ATOM     17  N   UNL     1       1.680   7.951  20.629  0.00  0.00    +0.000 NA
ATOM     18  H   UNL     1       0.897  10.120  22.745  0.00  0.00    +0.000 HD
ATOM     19  H   UNL     1       1.512   8.520  22.949  0.00  0.00    +0.000 HD
ENDBRANCH   3  11
BRANCH   1  20
ATOM     20  C   UNL     1       2.556   2.985  18.828  0.00  0.00    +0.000 C 
BRANCH  20  22
ATOM     21  C   UNL     1       4.543   2.153  20.138  0.00  0.00    +0.000 C 
ATOM     22  C   UNL     1       3.076   2.553  20.198  0.00  0.00    +0.000 C 
ENDBRANCH  20  22
ENDBRANCH   1  20
TORSDOF 3
ENDMDL
MODEL 9
REMARK VINA RESULT:      -6.7      3.418      6.217
REMARK  Name = 
REMARK  4 active torsions:
REMARK  status: ('A' for Active; 'I' for Inactive)
REMARK    1  A    between atoms: C_1  and  C_2
REMARK    2  A    between atoms: C_2  and  C_3
REMARK    3  A    between atoms: C_3  and  N_4
REMARK    4  A    between atoms: C_6  and  C_7
REMARK                            x       y       z     vdW  Elec       q    Type
REMARK                         _______ _______ _______ _____ _____    ______ ____
ROOT
ATOM      1  N   UNL     1       3.363   4.011  19.294  0.00  0.00    +0.000 N 
ATOM      2  C   UNL     1       4.247   3.649  18.307  0.00  0.00    +0.000 A 
ATOM      3  C   UNL     1       4.520   4.764  17.533  0.00  0.00    +0.000 A 
ATOM      4  C   UNL     1       3.780   5.851  18.100  0.00  0.00    +0.000 A 
ATOM      5  C   UNL     1       3.638   7.216  17.764  0.00  0.00    +0.000 A 
ATOM      6  C   UNL     1       2.789   8.038  18.511  0.00  0.00    +0.000 A 
ATOM      7  C   UNL     1       2.080   7.513  19.585  0.00  0.00    +0.000 A 
ATOM      8  I   UNL     1       0.809   8.754  20.673  0.00  0.00    +0.000 I 
ATOM      9  C   UNL     1       2.197   6.168  19.949  0.00  0.00    +0.000 A 
ATOM     10  C   UNL     1       3.056   5.352  19.189  0.00  0.00    +0.000 A 
ENDROOT
BRANCH   3  11
ATOM     11  C   UNL     1       5.373   4.756  16.348  0.00  0.00    +0.000 A 
ATOM     12  C   UNL     1       6.684   5.172  16.410  0.00  0.00    +0.000 A 
ATOM     13  C   UNL     1       7.404   5.035  15.250  0.00  0.00    +0.000 A 
ATOM     14  N   UNL     1       6.889   4.542  14.111  0.00  0.00    +0.000 NA
ATOM     15  C   UNL     1       5.611   4.161  14.152  0.00  0.00    +0.000 A 
ATOM     16  N   UNL     1       5.061   3.663  12.990  0.00  0.00    +0.000 N 
ATOM     17  N   UNL     1       4.819   4.260  15.220  0.00  0.00    +0.000 NA
ATOM     18  H   UNL     1       5.589   4.002  12.198  0.00  0.00    +0.000 HD
ATOM     19  H   UNL     1       4.064   3.830  12.989  0.00  0.00    +0.000 HD
ENDBRANCH   3  11
BRANCH   1  20
ATOM     20  C   UNL     1       2.848   3.098  20.305  0.00  0.00    +0.000 C 
BRANCH  20  22
ATOM     21  C   UNL     1       0.993   2.332  18.779  0.00  0.00    +0.000 C 
ATOM     22  C   UNL     1       1.346   2.854  20.164  0.00  0.00    +0.000 C 
ENDBRANCH  20  22
ENDBRANCH   1  20
TORSDOF 3
ENDMDL
