MODEL 1
REMARK VINA RESULT:      -8.4      0.000      0.000
REMARK  Name = 
REMARK  11 active torsions:
REMARK  status: ('A' for Active; 'I' for Inactive)
REMARK    1  A    between atoms: C_1  and  O_2
REMARK    2  A    between atoms: O_2  and  C_3
REMARK    3  A    between atoms: C_6  and  S_7
REMARK    4  A    between atoms: S_7  and  N_10
REMARK    5  A    between atoms: N_10  and  C_11
REMARK    6  A    between atoms: C_11  and  C_12
REMARK    7  A    between atoms: C_14  and  C_15
REMARK    8  A    between atoms: C_15  and  N_16
REMARK    9  A    between atoms: C_21  and  O_22
REMARK   10  A    between atoms: C_23  and  C_24
REMARK   11  A    between atoms: C_24  and  N_25
REMARK                            x       y       z     vdW  Elec       q    Type
REMARK                         _______ _______ _______ _____ _____    ______ ____
ROOT
ATOM      1  C   UNL     1       2.438   7.745  18.392  0.00  0.00    +0.000 A 
ATOM      2  C   UNL     1       3.315   7.173  17.454  0.00  0.00    +0.000 A 
ATOM      3  C   UNL     1       4.009   5.991  17.758  0.00  0.00    +0.000 A 
ATOM      4  C   UNL     1       3.773   5.391  19.007  0.00  0.00    +0.000 A 
ATOM      5  C   UNL     1       2.751   5.811  19.860  0.00  0.00    +0.000 A 
ATOM      6  C   UNL     1       2.182   7.058  19.593  0.00  0.00    +0.000 A 
ENDROOT
BRANCH   4   7
ATOM      7  O   UNL     1       4.620   4.407  19.447  0.00  0.00    +0.000 OA
ATOM      8  H   UNL     1       5.513   4.792  19.361  0.00  0.00    +0.000 HD
ENDBRANCH   4   7
BRANCH   1   9
ATOM      9  C   UNL     1       1.732   9.063  18.142  0.00  0.00    +0.000 C 
BRANCH   9  10
ATOM     10  N   UNL     1       1.079   9.543  19.369  0.00  0.00    +0.000 NA
ATOM     11  H   UNL     1       0.374   8.907  19.761  0.00  0.00    +0.000 HD
BRANCH  10  12
ATOM     12  S   UNL     1       0.644  11.155  19.477  0.00  0.00    +0.000 S 
ATOM     13  O   UNL     1       1.402  11.910  18.496  0.00  0.00    +0.000 OA
ATOM     14  O   UNL     1       0.657  11.497  20.880  0.00  0.00    +0.000 OA
BRANCH  12  18
ATOM     15  C   UNL     1      -3.712  11.047  18.137  0.00  0.00    +0.000 A 
ATOM     16  C   UNL     1      -3.298  11.952  19.116  0.00  0.00    +0.000 A 
ATOM     17  C   UNL     1      -1.963  11.997  19.518  0.00  0.00    +0.000 A 
ATOM     18  C   UNL     1      -1.045  11.107  18.952  0.00  0.00    +0.000 A 
ATOM     19  C   UNL     1      -1.452  10.200  17.967  0.00  0.00    +0.000 A 
ATOM     20  C   UNL     1      -2.792  10.162  17.572  0.00  0.00    +0.000 A 
BRANCH  15  22
ATOM     21  C   UNL     1      -5.464  12.133  16.981  0.00  0.00    +0.000 C 
ATOM     22  O   UNL     1      -5.050  11.085  17.849  0.00  0.00    +0.000 OA
ENDBRANCH  15  22
ENDBRANCH  12  18
ENDBRANCH  10  12
ENDBRANCH   9  10
ENDBRANCH   1   9
BRANCH   3  23
ATOM     23  C   UNL     1       4.838   5.238  16.726  0.00  0.00    +0.000 C 
BRANCH  23  24
ATOM     24  N   UNL     1       6.179   5.762  16.427  0.00  0.00    +0.000 NA
ATOM     25  C   UNL     1       7.169   4.667  16.504  0.00  0.00    +0.000 C 
ATOM     26  C   UNL     1       7.718   4.682  17.921  0.00  0.00    +0.000 C 
ATOM     27  C   UNL     1       7.642   6.137  18.330  0.00  0.00    +0.000 C 
ATOM     28  C   UNL     1       6.651   6.784  17.370  0.00  0.00    +0.000 C 
ENDBRANCH  23  24
ENDBRANCH   3  23
BRANCH   5  29
ATOM     29  C   UNL     1       2.269   4.939  21.004  0.00  0.00    +0.000 C 
BRANCH  29  30
ATOM     30  N   UNL     1       1.364   3.819  20.683  0.00  0.00    +0.000 NA
ATOM     31  C   UNL     1       1.906   2.472  20.862  0.00  0.00    +0.000 C 
ATOM     32  C   UNL     1       2.253   1.987  19.467  0.00  0.00    +0.000 C 
ATOM     33  C   UNL     1       1.225   2.664  18.578  0.00  0.00    +0.000 C 
ATOM     34  C   UNL     1       0.708   3.857  19.379  0.00  0.00    +0.000 C 
ENDBRANCH  29  30
ENDBRANCH   5  29
TORSDOF 10
ENDMDL
MODEL 2
REMARK VINA RESULT:      -8.3      1.024      4.318
REMARK  Name = 
REMARK  11 active torsions:
REMARK  status: ('A' for Active; 'I' for Inactive)
REMARK    1  A    between atoms: C_1  and  O_2
REMARK    2  A    between atoms: O_2  and  C_3
REMARK    3  A    between atoms: C_6  and  S_7
REMARK    4  A    between atoms: S_7  and  N_10
REMARK    5  A    between atoms: N_10  and  C_11
REMARK    6  A    between atoms: C_11  and  C_12
REMARK    7  A    between atoms: C_14  and  C_15
REMARK    8  A    between atoms: C_15  and  N_16
REMARK    9  A    between atoms: C_21  and  O_22
REMARK   10  A    between atoms: C_23  and  C_24
REMARK   11  A    between atoms: C_24  and  N_25
REMARK                            x       y       z     vdW  Elec       q    Type
REMARK                         _______ _______ _______ _____ _____    ______ ____
ROOT
ATOM      1  C   UNL     1       2.930   7.936  17.851  0.00  0.00    +0.000 A 
ATOM      2  C   UNL     1       2.777   7.068  18.947  0.00  0.00    +0.000 A 
ATOM      3  C   UNL     1       3.325   5.775  18.912  0.00  0.00    +0.000 A 
ATOM      4  C   UNL     1       4.049   5.398  17.769  0.00  0.00    +0.000 A 
ATOM      5  C   UNL     1       4.402   6.307  16.770  0.00  0.00    +0.000 A 
ATOM      6  C   UNL     1       3.731   7.532  16.769  0.00  0.00    +0.000 A 
ENDROOT
BRANCH   4   7
ATOM      7  O   UNL     1       4.358   4.076  17.579  0.00  0.00    +0.000 OA
ATOM      8  H   UNL     1       4.325   3.949  16.612  0.00  0.00    +0.000 HD
ENDBRANCH   4   7
BRANCH   1   9
ATOM      9  C   UNL     1       2.287   9.307  17.809  0.00  0.00    +0.000 C 
BRANCH   9  10
ATOM     10  N   UNL     1       0.877   9.232  18.222  0.00  0.00    +0.000 NA
ATOM     11  H   UNL     1       0.203   9.169  17.450  0.00  0.00    +0.000 HD
BRANCH  10  12
ATOM     12  S   UNL     1       0.349  10.201  19.480  0.00  0.00    +0.000 S 
ATOM     13  O   UNL     1       1.190  11.381  19.546  0.00  0.00    +0.000 OA
ATOM     14  O   UNL     1       0.158   9.334  20.620  0.00  0.00    +0.000 OA
BRANCH  12  18
ATOM     15  C   UNL     1      -3.774  11.484  18.018  0.00  0.00    +0.000 A 
ATOM     16  C   UNL     1      -3.200  12.094  19.135  0.00  0.00    +0.000 A 
ATOM     17  C   UNL     1      -1.933  11.714  19.577  0.00  0.00    +0.000 A 
ATOM     18  C   UNL     1      -1.251  10.693  18.907  0.00  0.00    +0.000 A 
ATOM     19  C   UNL     1      -1.817  10.080  17.784  0.00  0.00    +0.000 A 
ATOM     20  C   UNL     1      -3.087  10.468  17.350  0.00  0.00    +0.000 A 
BRANCH  15  22
ATOM     21  C   UNL     1      -6.101  11.079  18.090  0.00  0.00    +0.000 C 
ATOM     22  O   UNL     1      -5.029  11.929  17.702  0.00  0.00    +0.000 OA
ENDBRANCH  15  22
ENDBRANCH  12  18
ENDBRANCH  10  12
ENDBRANCH   9  10
ENDBRANCH   1   9
BRANCH   3  23
ATOM     23  C   UNL     1       3.336   4.857  20.126  0.00  0.00    +0.000 C 
BRANCH  23  24
ATOM     24  N   UNL     1       2.935   3.459  19.918  0.00  0.00    +0.000 NA
ATOM     25  C   UNL     1       1.567   3.411  19.357  0.00  0.00    +0.000 C 
ATOM     26  C   UNL     1       0.623   3.278  20.540  0.00  0.00    +0.000 C 
ATOM     27  C   UNL     1       1.425   2.510  21.569  0.00  0.00    +0.000 C 
ATOM     28  C   UNL     1       2.882   2.657  21.148  0.00  0.00    +0.000 C 
ENDBRANCH  23  24
ENDBRANCH   3  23
BRANCH   5  29
ATOM     29  C   UNL     1       5.482   5.983  15.755  0.00  0.00    +0.000 C 
BRANCH  29  30
ATOM     30  N   UNL     1       6.889   6.082  16.189  0.00  0.00    +0.000 NA
ATOM     31  C   UNL     1       7.575   4.820  16.464  0.00  0.00    +0.000 C 
ATOM     32  C   UNL     1       7.598   4.693  17.976  0.00  0.00    +0.000 C 
ATOM     33  C   UNL     1       7.672   6.130  18.462  0.00  0.00    +0.000 C 
ATOM     34  C   UNL     1       7.171   6.985  17.300  0.00  0.00    +0.000 C 
ENDBRANCH  29  30
ENDBRANCH   5  29
TORSDOF 10
ENDMDL
MODEL 3
REMARK VINA RESULT:      -8.1      1.113      1.738
REMARK  Name = 
REMARK  11 active torsions:
REMARK  status: ('A' for Active; 'I' for Inactive)
REMARK    1  A    between atoms: C_1  and  O_2
REMARK    2  A    between atoms: O_2  and  C_3
REMARK    3  A    between atoms: C_6  and  S_7
REMARK    4  A    between atoms: S_7  and  N_10
REMARK    5  A    between atoms: N_10  and  C_11
REMARK    6  A    between atoms: C_11  and  C_12
REMARK    7  A    between atoms: C_14  and  C_15
REMARK    8  A    between atoms: C_15  and  N_16
REMARK    9  A    between atoms: C_21  and  O_22
REMARK   10  A    between atoms: C_23  and  C_24
REMARK   11  A    between atoms: C_24  and  N_25
REMARK                            x       y       z     vdW  Elec       q    Type
REMARK                         _______ _______ _______ _____ _____    ______ ____
ROOT
ATOM      1  C   UNL     1       2.649   7.122  18.558  0.00  0.00    +0.000 A 
ATOM      2  C   UNL     1       3.714   7.300  17.657  0.00  0.00    +0.000 A 
ATOM      3  C   UNL     1       4.275   6.197  16.993  0.00  0.00    +0.000 A 
ATOM      4  C   UNL     1       3.718   4.930  17.233  0.00  0.00    +0.000 A 
ATOM      5  C   UNL     1       2.530   4.755  17.944  0.00  0.00    +0.000 A 
ATOM      6  C   UNL     1       2.082   5.842  18.699  0.00  0.00    +0.000 A 
ENDROOT
BRANCH   4   7
ATOM      7  O   UNL     1       4.399   3.812  16.827  0.00  0.00    +0.000 OA
ATOM      8  H   UNL     1       3.731   3.267  16.370  0.00  0.00    +0.000 HD
ENDBRANCH   4   7
BRANCH   1   9
ATOM      9  C   UNL     1       2.068   8.268  19.361  0.00  0.00    +0.000 C 
BRANCH   9  10
ATOM     10  N   UNL     1       1.534   9.308  18.469  0.00  0.00    +0.000 NA
ATOM     11  H   UNL     1       2.049   9.430  17.589  0.00  0.00    +0.000 HD
BRANCH  10  12
ATOM     12  S   UNL     1       1.012  10.754  19.131  0.00  0.00    +0.000 S 
ATOM     13  O   UNL     1       1.691  11.847  18.461  0.00  0.00    +0.000 OA
ATOM     14  O   UNL     1       1.056  10.593  20.566  0.00  0.00    +0.000 OA
BRANCH  12  18
ATOM     15  C   UNL     1      -3.367  10.800  17.868  0.00  0.00    +0.000 A 
ATOM     16  C   UNL     1      -2.478   9.888  17.296  0.00  0.00    +0.000 A 
ATOM     17  C   UNL     1      -1.140   9.862  17.690  0.00  0.00    +0.000 A 
ATOM     18  C   UNL     1      -0.689  10.778  18.646  0.00  0.00    +0.000 A 
ATOM     19  C   UNL     1      -1.575  11.692  19.227  0.00  0.00    +0.000 A 
ATOM     20  C   UNL     1      -2.913  11.711  18.824  0.00  0.00    +0.000 A 
BRANCH  15  22
ATOM     21  C   UNL     1      -5.213  11.984  16.986  0.00  0.00    +0.000 C 
ATOM     22  O   UNL     1      -4.645  10.741  17.378  0.00  0.00    +0.000 OA
ENDBRANCH  15  22
ENDBRANCH  12  18
ENDBRANCH  10  12
ENDBRANCH   9  10
ENDBRANCH   1   9
BRANCH   3  23
ATOM     23  C   UNL     1       5.311   6.347  15.888  0.00  0.00    +0.000 C 
BRANCH  23  24
ATOM     24  N   UNL     1       6.714   6.505  16.296  0.00  0.00    +0.000 NA
ATOM     25  C   UNL     1       7.465   5.269  15.987  0.00  0.00    +0.000 C 
ATOM     26  C   UNL     1       7.423   4.416  17.244  0.00  0.00    +0.000 C 
ATOM     27  C   UNL     1       7.365   5.423  18.372  0.00  0.00    +0.000 C 
ATOM     28  C   UNL     1       6.901   6.728  17.735  0.00  0.00    +0.000 C 
ENDBRANCH  23  24
ENDBRANCH   3  23
BRANCH   5  29
ATOM     29  C   UNL     1       1.753   3.454  17.876  0.00  0.00    +0.000 C 
BRANCH  29  30
ATOM     30  N   UNL     1       1.835   2.539  19.031  0.00  0.00    +0.000 NA
ATOM     31  C   UNL     1       0.761   2.640  20.018  0.00  0.00    +0.000 C 
ATOM     32  C   UNL     1       1.351   3.420  21.179  0.00  0.00    +0.000 C 
ATOM     33  C   UNL     1       2.820   3.037  21.167  0.00  0.00    +0.000 C 
ATOM     34  C   UNL     1       3.100   2.514  19.760  0.00  0.00    +0.000 C 
ENDBRANCH  29  30
ENDBRANCH   5  29
TORSDOF 10
ENDMDL
MODEL 4
REMARK VINA RESULT:      -8.1      1.129      1.504
REMARK  Name = 
REMARK  11 active torsions:
REMARK  status: ('A' for Active; 'I' for Inactive)
REMARK    1  A    between atoms: C_1  and  O_2
REMARK    2  A    between atoms: O_2  and  C_3
REMARK    3  A    between atoms: C_6  and  S_7
REMARK    4  A    between atoms: S_7  and  N_10
REMARK    5  A    between atoms: N_10  and  C_11
REMARK    6  A    between atoms: C_11  and  C_12
REMARK    7  A    between atoms: C_14  and  C_15
REMARK    8  A    between atoms: C_15  and  N_16
REMARK    9  A    between atoms: C_21  and  O_22
REMARK   10  A    between atoms: C_23  and  C_24
REMARK   11  A    between atoms: C_24  and  N_25
REMARK                            x       y       z     vdW  Elec       q    Type
REMARK                         _______ _______ _______ _____ _____    ______ ____
ROOT
ATOM      1  C   UNL     1       3.103   7.645  17.684  0.00  0.00    +0.000 A 
ATOM      2  C   UNL     1       4.234   7.327  16.911  0.00  0.00    +0.000 A 
ATOM      3  C   UNL     1       4.641   5.991  16.765  0.00  0.00    +0.000 A 
ATOM      4  C   UNL     1       3.869   4.995  17.384  0.00  0.00    +0.000 A 
ATOM      5  C   UNL     1       2.628   5.261  17.966  0.00  0.00    +0.000 A 
ATOM      6  C   UNL     1       2.324   6.601  18.215  0.00  0.00    +0.000 A 
ENDROOT
BRANCH   4   7
ATOM      7  O   UNL     1       4.377   3.727  17.495  0.00  0.00    +0.000 OA
ATOM      8  H   UNL     1       4.404   3.554  18.455  0.00  0.00    +0.000 HD
ENDBRANCH   4   7
BRANCH   1   9
ATOM      9  C   UNL     1       2.674   9.076  17.941  0.00  0.00    +0.000 C 
BRANCH   9  10
ATOM     10  N   UNL     1       1.207   9.184  17.957  0.00  0.00    +0.000 NA
ATOM     11  H   UNL     1       0.769   9.255  17.031  0.00  0.00    +0.000 HD
BRANCH  10  12
ATOM     12  S   UNL     1       0.479  10.157  19.106  0.00  0.00    +0.000 S 
ATOM     13  O   UNL     1       1.201  11.414  19.179  0.00  0.00    +0.000 OA
ATOM     14  O   UNL     1       0.263   9.333  20.273  0.00  0.00    +0.000 OA
BRANCH  12  18
ATOM     15  C   UNL     1      -3.589  10.970  17.218  0.00  0.00    +0.000 A 
ATOM     16  C   UNL     1      -3.197  11.655  18.369  0.00  0.00    +0.000 A 
ATOM     17  C   UNL     1      -1.947  11.419  18.942  0.00  0.00    +0.000 A 
ATOM     18  C   UNL     1      -1.098  10.467  18.368  0.00  0.00    +0.000 A 
ATOM     19  C   UNL     1      -1.482   9.780  17.211  0.00  0.00    +0.000 A 
ATOM     20  C   UNL     1      -2.737  10.023  16.645  0.00  0.00    +0.000 A 
BRANCH  15  22
ATOM     21  C   UNL     1      -5.813  11.538  17.778  0.00  0.00    +0.000 C 
ATOM     22  O   UNL     1      -4.846  11.274  16.769  0.00  0.00    +0.000 OA
ENDBRANCH  15  22
ENDBRANCH  12  18
ENDBRANCH  10  12
ENDBRANCH   9  10
ENDBRANCH   1   9
BRANCH   3  23
ATOM     23  C   UNL     1       5.751   5.574  15.809  0.00  0.00    +0.000 C 
BRANCH  23  24
ATOM     24  N   UNL     1       7.136   5.809  16.241  0.00  0.00    +0.000 NA
ATOM     25  C   UNL     1       7.676   4.584  16.870  0.00  0.00    +0.000 C 
ATOM     26  C   UNL     1       7.419   4.718  18.361  0.00  0.00    +0.000 C 
ATOM     27  C   UNL     1       7.476   6.209  18.615  0.00  0.00    +0.000 C 
ATOM     28  C   UNL     1       7.282   6.865  17.252  0.00  0.00    +0.000 C 
ENDBRANCH  23  24
ENDBRANCH   3  23
BRANCH   5  29
ATOM     29  C   UNL     1       1.651   4.145  18.285  0.00  0.00    +0.000 C 
BRANCH  29  30
ATOM     30  N   UNL     1       1.058   4.113  19.637  0.00  0.00    +0.000 NA
ATOM     31  C   UNL     1       1.695   4.957  20.647  0.00  0.00    +0.000 C 
ATOM     32  C   UNL     1       2.532   4.014  21.492  0.00  0.00    +0.000 C 
ATOM     33  C   UNL     1       1.756   2.709  21.460  0.00  0.00    +0.000 C 
ATOM     34  C   UNL     1       0.852   2.796  20.232  0.00  0.00    +0.000 C 
ENDBRANCH  29  30
ENDBRANCH   5  29
TORSDOF 10
ENDMDL
MODEL 5
REMARK VINA RESULT:      -8.0      0.992      1.094
REMARK  Name = 
REMARK  11 active torsions:
REMARK  status: ('A' for Active; 'I' for Inactive)
REMARK    1  A    between atoms: C_1  and  O_2
REMARK    2  A    between atoms: O_2  and  C_3
REMARK    3  A    between atoms: C_6  and  S_7
REMARK    4  A    between atoms: S_7  and  N_10
REMARK    5  A    between atoms: N_10  and  C_11
REMARK    6  A    between atoms: C_11  and  C_12
REMARK    7  A    between atoms: C_14  and  C_15
REMARK    8  A    between atoms: C_15  and  N_16
REMARK    9  A    between atoms: C_21  and  O_22
REMARK   10  A    between atoms: C_23  and  C_24
REMARK   11  A    between atoms: C_24  and  N_25
REMARK                            x       y       z     vdW  Elec       q    Type
REMARK                         _______ _______ _______ _____ _____    ______ ____
ROOT
ATOM      1  C   UNL     1       2.372   7.780  18.698  0.00  0.00    +0.000 A 
ATOM      2  C   UNL     1       3.207   7.277  17.684  0.00  0.00    +0.000 A 
ATOM      3  C   UNL     1       3.914   6.079  17.876  0.00  0.00    +0.000 A 
ATOM      4  C   UNL     1       3.734   5.394  19.089  0.00  0.00    +0.000 A 
ATOM      5  C   UNL     1       2.751   5.751  20.014  0.00  0.00    +0.000 A 
ATOM      6  C   UNL     1       2.170   7.012  19.859  0.00  0.00    +0.000 A 
ENDROOT
BRANCH   4   7
ATOM      7  O   UNL     1       4.601   4.385  19.423  0.00  0.00    +0.000 OA
ATOM      8  H   UNL     1       4.447   3.694  18.752  0.00  0.00    +0.000 HD
ENDBRANCH   4   7
BRANCH   1   9
ATOM      9  C   UNL     1       1.655   9.109  18.571  0.00  0.00    +0.000 C 
BRANCH   9  10
ATOM     10  N   UNL     1       0.883   9.402  19.788  0.00  0.00    +0.000 NA
ATOM     11  H   UNL     1       0.306   8.625  20.131  0.00  0.00    +0.000 HD
BRANCH  10  12
ATOM     12  S   UNL     1       0.137  10.892  19.935  0.00  0.00    +0.000 S 
ATOM     13  O   UNL     1       1.081  11.927  19.555  0.00  0.00    +0.000 OA
ATOM     14  O   UNL     1      -0.529  10.900  21.217  0.00  0.00    +0.000 OA
BRANCH  12  18
ATOM     15  C   UNL     1      -3.068  10.658  16.702  0.00  0.00    +0.000 A 
ATOM     16  C   UNL     1      -2.233  11.774  16.788  0.00  0.00    +0.000 A 
ATOM     17  C   UNL     1      -1.242  11.843  17.767  0.00  0.00    +0.000 A 
ATOM     18  C   UNL     1      -1.109  10.795  18.683  0.00  0.00    +0.000 A 
ATOM     19  C   UNL     1      -1.939   9.671  18.601  0.00  0.00    +0.000 A 
ATOM     20  C   UNL     1      -2.929   9.612  17.617  0.00  0.00    +0.000 A 
BRANCH  15  22
ATOM     21  C   UNL     1      -3.631  10.181  14.457  0.00  0.00    +0.000 C 
ATOM     22  O   UNL     1      -4.014  10.723  15.715  0.00  0.00    +0.000 OA
ENDBRANCH  15  22
ENDBRANCH  12  18
ENDBRANCH  10  12
ENDBRANCH   9  10
ENDBRANCH   1   9
BRANCH   3  23
ATOM     23  C   UNL     1       4.696   5.403  16.759  0.00  0.00    +0.000 C 
BRANCH  23  24
ATOM     24  N   UNL     1       6.032   5.936  16.452  0.00  0.00    +0.000 NA
ATOM     25  C   UNL     1       6.997   4.822  16.333  0.00  0.00    +0.000 C 
ATOM     26  C   UNL     1       7.622   4.647  17.707  0.00  0.00    +0.000 C 
ATOM     27  C   UNL     1       7.605   6.038  18.301  0.00  0.00    +0.000 C 
ATOM     28  C   UNL     1       6.580   6.820  17.489  0.00  0.00    +0.000 C 
ENDBRANCH  23  24
ENDBRANCH   3  23
BRANCH   5  29
ATOM     29  C   UNL     1       2.321   4.801  21.115  0.00  0.00    +0.000 C 
BRANCH  29  30
ATOM     30  N   UNL     1       1.381   3.718  20.764  0.00  0.00    +0.000 NA
ATOM     31  C   UNL     1       1.908   2.355  20.822  0.00  0.00    +0.000 C 
ATOM     32  C   UNL     1       2.179   1.963  19.381  0.00  0.00    +0.000 C 
ATOM     33  C   UNL     1       1.120   2.715  18.594  0.00  0.00    +0.000 C 
ATOM     34  C   UNL     1       0.663   3.856  19.500  0.00  0.00    +0.000 C 
ENDBRANCH  29  30
ENDBRANCH   5  29
TORSDOF 10
ENDMDL
MODEL 6
REMARK VINA RESULT:      -8.0      0.981      4.202
REMARK  Name = 
REMARK  11 active torsions:
REMARK  status: ('A' for Active; 'I' for Inactive)
REMARK    1  A    between atoms: C_1  and  O_2
REMARK    2  A    between atoms: O_2  and  C_3
REMARK    3  A    between atoms: C_6  and  S_7
REMARK    4  A    between atoms: S_7  and  N_10
REMARK    5  A    between atoms: N_10  and  C_11
REMARK    6  A    between atoms: C_11  and  C_12
REMARK    7  A    between atoms: C_14  and  C_15
REMARK    8  A    between atoms: C_15  and  N_16
REMARK    9  A    between atoms: C_21  and  O_22
REMARK   10  A    between atoms: C_23  and  C_24
REMARK   11  A    between atoms: C_24  and  N_25
REMARK                            x       y       z     vdW  Elec       q    Type
REMARK                         _______ _______ _______ _____ _____    ______ ____
ROOT
ATOM      1  C   UNL     1       2.803   7.633  18.196  0.00  0.00    +0.000 A 
ATOM      2  C   UNL     1       2.255   6.919  19.277  0.00  0.00    +0.000 A 
ATOM      3  C   UNL     1       2.811   5.692  19.672  0.00  0.00    +0.000 A 
ATOM      4  C   UNL     1       3.939   5.225  18.977  0.00  0.00    +0.000 A 
ATOM      5  C   UNL     1       4.631   6.012  18.055  0.00  0.00    +0.000 A 
ATOM      6  C   UNL     1       3.978   7.156  17.590  0.00  0.00    +0.000 A 
ENDROOT
BRANCH   4   7
ATOM      7  O   UNL     1       4.338   3.924  19.145  0.00  0.00    +0.000 OA
ATOM      8  H   UNL     1       4.743   3.677  18.293  0.00  0.00    +0.000 HD
ENDBRANCH   4   7
BRANCH   1   9
ATOM      9  C   UNL     1       2.187   8.918  17.680  0.00  0.00    +0.000 C 
BRANCH   9  10
ATOM     10  N   UNL     1       0.869   9.146  18.294  0.00  0.00    +0.000 NA
ATOM     11  H   UNL     1       0.069   8.884  17.707  0.00  0.00    +0.000 HD
BRANCH  10  12
ATOM     12  S   UNL     1       0.615  10.549  19.169  0.00  0.00    +0.000 S 
ATOM     13  O   UNL     1       1.418  11.611  18.592  0.00  0.00    +0.000 OA
ATOM     14  O   UNL     1       0.710  10.192  20.565  0.00  0.00    +0.000 OA
BRANCH  12  18
ATOM     15  C   UNL     1      -3.766  11.437  18.275  0.00  0.00    +0.000 A 
ATOM     16  C   UNL     1      -3.084  12.166  19.251  0.00  0.00    +0.000 A 
ATOM     17  C   UNL     1      -1.739  11.906  19.517  0.00  0.00    +0.000 A 
ATOM     18  C   UNL     1      -1.085  10.888  18.817  0.00  0.00    +0.000 A 
ATOM     19  C   UNL     1      -1.761  10.157  17.833  0.00  0.00    +0.000 A 
ATOM     20  C   UNL     1      -3.108  10.424  17.575  0.00  0.00    +0.000 A 
BRANCH  15  22
ATOM     21  C   UNL     1      -5.696  12.388  19.253  0.00  0.00    +0.000 C 
ATOM     22  O   UNL     1      -5.085  11.772  18.126  0.00  0.00    +0.000 OA
ENDBRANCH  15  22
ENDBRANCH  12  18
ENDBRANCH  10  12
ENDBRANCH   9  10
ENDBRANCH   1   9
BRANCH   3  23
ATOM     23  C   UNL     1       2.369   4.960  20.932  0.00  0.00    +0.000 C 
BRANCH  23  24
ATOM     24  N   UNL     1       1.192   4.085  20.826  0.00  0.00    +0.000 NA
ATOM     25  C   UNL     1       1.496   2.768  21.424  0.00  0.00    +0.000 C 
ATOM     26  C   UNL     1       1.984   1.883  20.289  0.00  0.00    +0.000 C 
ATOM     27  C   UNL     1       1.250   2.403  19.072  0.00  0.00    +0.000 C 
ATOM     28  C   UNL     1       0.774   3.802  19.446  0.00  0.00    +0.000 C 
ENDBRANCH  23  24
ENDBRANCH   3  23
BRANCH   5  29
ATOM     29  C   UNL     1       6.033   5.650  17.603  0.00  0.00    +0.000 C 
BRANCH  29  30
ATOM     30  N   UNL     1       6.194   4.475  16.725  0.00  0.00    +0.000 NA
ATOM     31  C   UNL     1       7.408   4.433  15.911  0.00  0.00    +0.000 C 
ATOM     32  C   UNL     1       6.974   4.842  14.515  0.00  0.00    +0.000 C 
ATOM     33  C   UNL     1       5.547   4.334  14.413  0.00  0.00    +0.000 C 
ATOM     34  C   UNL     1       5.070   4.150  15.852  0.00  0.00    +0.000 C 
ENDBRANCH  29  30
ENDBRANCH   5  29
TORSDOF 10
ENDMDL
MODEL 7
REMARK VINA RESULT:      -8.0      2.316      3.505
REMARK  Name = 
REMARK  11 active torsions:
REMARK  status: ('A' for Active; 'I' for Inactive)
REMARK    1  A    between atoms: C_1  and  O_2
REMARK    2  A    between atoms: O_2  and  C_3
REMARK    3  A    between atoms: C_6  and  S_7
REMARK    4  A    between atoms: S_7  and  N_10
REMARK    5  A    between atoms: N_10  and  C_11
REMARK    6  A    between atoms: C_11  and  C_12
REMARK    7  A    between atoms: C_14  and  C_15
REMARK    8  A    between atoms: C_15  and  N_16
REMARK    9  A    between atoms: C_21  and  O_22
REMARK   10  A    between atoms: C_23  and  C_24
REMARK   11  A    between atoms: C_24  and  N_25
REMARK                            x       y       z     vdW  Elec       q    Type
REMARK                         _______ _______ _______ _____ _____    ______ ____
ROOT
ATOM      1  C   UNL     1       2.529   7.726  18.147  0.00  0.00    +0.000 A 
ATOM      2  C   UNL     1       3.703   7.535  17.395  0.00  0.00    +0.000 A 
ATOM      3  C   UNL     1       4.642   6.563  17.778  0.00  0.00    +0.000 A 
ATOM      4  C   UNL     1       4.354   5.777  18.906  0.00  0.00    +0.000 A 
ATOM      5  C   UNL     1       3.107   5.793  19.534  0.00  0.00    +0.000 A 
ATOM      6  C   UNL     1       2.258   6.857  19.219  0.00  0.00    +0.000 A 
ENDROOT
BRANCH   4   7
ATOM      7  O   UNL     1       5.350   5.021  19.467  0.00  0.00    +0.000 OA
ATOM      8  H   UNL     1       5.664   5.548  20.226  0.00  0.00    +0.000 HD
ENDBRANCH   4   7
BRANCH   1   9
ATOM      9  C   UNL     1       1.529   8.817  17.822  0.00  0.00    +0.000 C 
BRANCH   9  10
ATOM     10  N   UNL     1       1.300   9.676  18.993  0.00  0.00    +0.000 NA
ATOM     11  H   UNL     1       1.581   9.267  19.891  0.00  0.00    +0.000 HD
BRANCH  10  12
ATOM     12  S   UNL     1      -0.120  10.556  19.086  0.00  0.00    +0.000 S 
ATOM     13  O   UNL     1      -0.691  10.383  20.409  0.00  0.00    +0.000 OA
ATOM     14  O   UNL     1      -0.870  10.264  17.886  0.00  0.00    +0.000 OA
BRANCH  12  18
ATOM     15  C   UNL     1       1.437  14.827  18.745  0.00  0.00    +0.000 A 
ATOM     16  C   UNL     1       2.328  13.752  18.784  0.00  0.00    +0.000 A 
ATOM     17  C   UNL     1       1.854  12.444  18.874  0.00  0.00    +0.000 A 
ATOM     18  C   UNL     1       0.477  12.216  18.954  0.00  0.00    +0.000 A 
ATOM     19  C   UNL     1      -0.423  13.287  18.911  0.00  0.00    +0.000 A 
ATOM     20  C   UNL     1       0.062  14.595  18.821  0.00  0.00    +0.000 A 
BRANCH  15  22
ATOM     21  C   UNL     1       3.117  16.176  17.773  0.00  0.00    +0.000 C 
ATOM     22  O   UNL     1       2.027  16.060  18.681  0.00  0.00    +0.000 OA
ENDBRANCH  15  22
ENDBRANCH  12  18
ENDBRANCH  10  12
ENDBRANCH   9  10
ENDBRANCH   1   9
BRANCH   3  23
ATOM     23  C   UNL     1       5.841   6.198  16.915  0.00  0.00    +0.000 C 
BRANCH  23  24
ATOM     24  N   UNL     1       6.006   4.783  16.552  0.00  0.00    +0.000 NA
ATOM     25  C   UNL     1       7.304   4.591  15.871  0.00  0.00    +0.000 C 
ATOM     26  C   UNL     1       7.029   4.716  14.382  0.00  0.00    +0.000 C 
ATOM     27  C   UNL     1       5.611   4.212  14.223  0.00  0.00    +0.000 C 
ATOM     28  C   UNL     1       4.992   4.280  15.615  0.00  0.00    +0.000 C 
ENDBRANCH  23  24
ENDBRANCH   3  23
BRANCH   5  29
ATOM     29  C   UNL     1       2.690   4.692  20.490  0.00  0.00    +0.000 C 
BRANCH  29  30
ATOM     30  N   UNL     1       2.149   3.445  19.913  0.00  0.00    +0.000 NA
ATOM     31  C   UNL     1       3.073   2.315  19.824  0.00  0.00    +0.000 C 
ATOM     32  C   UNL     1       3.504   2.259  18.370  0.00  0.00    +0.000 C 
ATOM     33  C   UNL     1       2.292   2.769  17.610  0.00  0.00    +0.000 C 
ATOM     34  C   UNL     1       1.470   3.559  18.626  0.00  0.00    +0.000 C 
ENDBRANCH  29  30
ENDBRANCH   5  29
TORSDOF 10
ENDMDL
MODEL 8
REMARK VINA RESULT:      -8.0      1.147      1.806
REMARK  Name = 
REMARK  11 active torsions:
REMARK  status: ('A' for Active; 'I' for Inactive)
REMARK    1  A    between atoms: C_1  and  O_2
REMARK    2  A    between atoms: O_2  and  C_3
REMARK    3  A    between atoms: C_6  and  S_7
REMARK    4  A    between atoms: S_7  and  N_10
REMARK    5  A    between atoms: N_10  and  C_11
REMARK    6  A    between atoms: C_11  and  C_12
REMARK    7  A    between atoms: C_14  and  C_15
REMARK    8  A    between atoms: C_15  and  N_16
REMARK    9  A    between atoms: C_21  and  O_22
REMARK   10  A    between atoms: C_23  and  C_24
REMARK   11  A    between atoms: C_24  and  N_25
REMARK                            x       y       z     vdW  Elec       q    Type
REMARK                         _______ _______ _______ _____ _____    ______ ____
ROOT
ATOM      1  C   UNL     1       3.022   7.692  17.949  0.00  0.00    +0.000 A 
ATOM      2  C   UNL     1       4.282   7.386  17.402  0.00  0.00    +0.000 A 
ATOM      3  C   UNL     1       5.049   6.335  17.931  0.00  0.00    +0.000 A 
ATOM      4  C   UNL     1       4.506   5.591  18.991  0.00  0.00    +0.000 A 
ATOM      5  C   UNL     1       3.179   5.729  19.402  0.00  0.00    +0.000 A 
ATOM      6  C   UNL     1       2.497   6.863  18.956  0.00  0.00    +0.000 A 
ENDROOT
BRANCH   4   7
ATOM      7  O   UNL     1       5.320   4.751  19.706  0.00  0.00    +0.000 OA
ATOM      8  H   UNL     1       4.831   4.575  20.532  0.00  0.00    +0.000 HD
ENDBRANCH   4   7
BRANCH   1   9
ATOM      9  C   UNL     1       2.196   8.868  17.468  0.00  0.00    +0.000 C 
BRANCH   9  10
ATOM     10  N   UNL     1       0.903   8.915  18.168  0.00  0.00    +0.000 NA
ATOM     11  H   UNL     1       0.100   8.598  17.613  0.00  0.00    +0.000 HD
BRANCH  10  12
ATOM     12  S   UNL     1       0.555  10.232  19.139  0.00  0.00    +0.000 S 
ATOM     13  O   UNL     1       1.419  11.335  18.757  0.00  0.00    +0.000 OA
ATOM     14  O   UNL     1       0.495   9.744  20.497  0.00  0.00    +0.000 OA
BRANCH  12  18
ATOM     15  C   UNL     1      -3.696  11.225  17.827  0.00  0.00    +0.000 A 
ATOM     16  C   UNL     1      -2.945  10.279  17.127  0.00  0.00    +0.000 A 
ATOM     17  C   UNL     1      -1.649   9.963  17.534  0.00  0.00    +0.000 A 
ATOM     18  C   UNL     1      -1.095  10.623  18.635  0.00  0.00    +0.000 A 
ATOM     19  C   UNL     1      -1.844  11.568  19.345  0.00  0.00    +0.000 A 
ATOM     20  C   UNL     1      -3.141  11.879  18.929  0.00  0.00    +0.000 A 
BRANCH  15  22
ATOM     21  C   UNL     1      -6.033  11.177  18.181  0.00  0.00    +0.000 C 
ATOM     22  O   UNL     1      -4.943  11.463  17.313  0.00  0.00    +0.000 OA
ENDBRANCH  15  22
ENDBRANCH  12  18
ENDBRANCH  10  12
ENDBRANCH   9  10
ENDBRANCH   1   9
BRANCH   3  23
ATOM     23  C   UNL     1       6.336   5.852  17.277  0.00  0.00    +0.000 C 
BRANCH  23  24
ATOM     24  N   UNL     1       6.324   4.512  16.673  0.00  0.00    +0.000 NA
ATOM     25  C   UNL     1       7.459   4.378  15.735  0.00  0.00    +0.000 C 
ATOM     26  C   UNL     1       6.930   4.763  14.363  0.00  0.00    +0.000 C 
ATOM     27  C   UNL     1       5.472   4.358  14.402  0.00  0.00    +0.000 C 
ATOM     28  C   UNL     1       5.123   4.220  15.880  0.00  0.00    +0.000 C 
ENDBRANCH  23  24
ENDBRANCH   3  23
BRANCH   5  29
ATOM     29  C   UNL     1       2.508   4.680  20.269  0.00  0.00    +0.000 C 
BRANCH  29  30
ATOM     30  N   UNL     1       1.930   3.498  19.600  0.00  0.00    +0.000 NA
ATOM     31  C   UNL     1       2.625   2.228  19.810  0.00  0.00    +0.000 C 
ATOM     32  C   UNL     1       3.419   1.987  18.539  0.00  0.00    +0.000 C 
ATOM     33  C   UNL     1       2.574   2.628  17.453  0.00  0.00    +0.000 C 
ATOM     34  C   UNL     1       1.661   3.619  18.171  0.00  0.00    +0.000 C 
ENDBRANCH  29  30
ENDBRANCH   5  29
TORSDOF 10
ENDMDL
MODEL 9
REMARK VINA RESULT:      -8.0      1.016      4.261
REMARK  Name = 
REMARK  11 active torsions:
REMARK  status: ('A' for Active; 'I' for Inactive)
REMARK    1  A    between atoms: C_1  and  O_2
REMARK    2  A    between atoms: O_2  and  C_3
REMARK    3  A    between atoms: C_6  and  S_7
REMARK    4  A    between atoms: S_7  and  N_10
REMARK    5  A    between atoms: N_10  and  C_11
REMARK    6  A    between atoms: C_11  and  C_12
REMARK    7  A    between atoms: C_14  and  C_15
REMARK    8  A    between atoms: C_15  and  N_16
REMARK    9  A    between atoms: C_21  and  O_22
REMARK   10  A    between atoms: C_23  and  C_24
REMARK   11  A    between atoms: C_24  and  N_25
REMARK                            x       y       z     vdW  Elec       q    Type
REMARK                         _______ _______ _______ _____ _____    ______ ____
ROOT
ATOM      1  C   UNL     1       2.661   6.954  19.171  0.00  0.00    +0.000 A 
ATOM      2  C   UNL     1       2.842   5.736  19.852  0.00  0.00    +0.000 A 
ATOM      3  C   UNL     1       3.510   4.668  19.232  0.00  0.00    +0.000 A 
ATOM      4  C   UNL     1       4.012   4.869  17.935  0.00  0.00    +0.000 A 
ATOM      5  C   UNL     1       4.042   6.125  17.328  0.00  0.00    +0.000 A 
ATOM      6  C   UNL     1       3.254   7.123  17.907  0.00  0.00    +0.000 A 
ENDROOT
BRANCH   4   7
ATOM      7  O   UNL     1       4.419   3.785  17.200  0.00  0.00    +0.000 OA
ATOM      8  H   UNL     1       4.704   3.129  17.863  0.00  0.00    +0.000 HD
ENDBRANCH   4   7
BRANCH   1   9
ATOM      9  C   UNL     1       1.875   8.104  19.767  0.00  0.00    +0.000 C 
BRANCH   9  10
ATOM     10  N   UNL     1       1.534   9.092  18.731  0.00  0.00    +0.000 NA
ATOM     11  H   UNL     1       2.158   9.096  17.916  0.00  0.00    +0.000 HD
BRANCH  10  12
ATOM     12  S   UNL     1       1.053  10.624  19.200  0.00  0.00    +0.000 S 
ATOM     13  O   UNL     1       1.849  11.603  18.483  0.00  0.00    +0.000 OA
ATOM     14  O   UNL     1       0.973  10.612  20.642  0.00  0.00    +0.000 OA
BRANCH  12  18
ATOM     15  C   UNL     1      -3.210  10.806  17.595  0.00  0.00    +0.000 A 
ATOM     16  C   UNL     1      -2.802  11.671  18.612  0.00  0.00    +0.000 A 
ATOM     17  C   UNL     1      -1.495  11.627  19.096  0.00  0.00    +0.000 A 
ATOM     18  C   UNL     1      -0.600  10.689  18.572  0.00  0.00    +0.000 A 
ATOM     19  C   UNL     1      -1.000   9.822  17.549  0.00  0.00    +0.000 A 
ATOM     20  C   UNL     1      -2.312   9.873  17.071  0.00  0.00    +0.000 A 
BRANCH  15  22
ATOM     21  C   UNL     1      -5.466  10.918  18.290  0.00  0.00    +0.000 C 
ATOM     22  O   UNL     1      -4.522  10.933  17.226  0.00  0.00    +0.000 OA
ENDBRANCH  15  22
ENDBRANCH  12  18
ENDBRANCH  10  12
ENDBRANCH   9  10
ENDBRANCH   1   9
BRANCH   3  23
ATOM     23  C   UNL     1       3.881   3.393  19.975  0.00  0.00    +0.000 C 
BRANCH  23  24
ATOM     24  N   UNL     1       2.801   2.436  20.254  0.00  0.00    +0.000 NA
ATOM     25  C   UNL     1       2.278   1.889  18.984  0.00  0.00    +0.000 C 
ATOM     26  C   UNL     1       1.103   2.767  18.589  0.00  0.00    +0.000 C 
ATOM     27  C   UNL     1       0.532   3.237  19.909  0.00  0.00    +0.000 C 
ATOM     28  C   UNL     1       1.639   3.023  20.936  0.00  0.00    +0.000 C 
ENDBRANCH  23  24
ENDBRANCH   3  23
BRANCH   5  29
ATOM     29  C   UNL     1       4.910   6.395  16.114  0.00  0.00    +0.000 C 
BRANCH  29  30
ATOM     30  N   UNL     1       6.367   6.516  16.320  0.00  0.00    +0.000 NA
ATOM     31  C   UNL     1       7.166   5.327  16.027  0.00  0.00    +0.000 C 
ATOM     32  C   UNL     1       7.490   4.713  17.377  0.00  0.00    +0.000 C 
ATOM     33  C   UNL     1       7.573   5.908  18.310  0.00  0.00    +0.000 C 
ATOM     34  C   UNL     1       6.806   7.030  17.614  0.00  0.00    +0.000 C 
ENDBRANCH  29  30
ENDBRANCH   5  29
TORSDOF 10
ENDMDL
