MODEL 1
REMARK VINA RESULT:      -7.1      0.000      0.000
REMARK  Name = 
REMARK  8 active torsions:
REMARK  status: ('A' for Active; 'I' for Inactive)
REMARK    1  A    between atoms: C_1  and  O_2
REMARK    2  A    between atoms: O_2  and  C_3
REMARK    3  A    between atoms: C_6  and  N_7
REMARK    4  A    between atoms: N_7  and  C_8
REMARK    5  A    between atoms: N_7  and  C_9
REMARK    6  A    between atoms: N_12  and  C_13
REMARK    7  A    between atoms: C_18  and  C_19
REMARK    8  A    between atoms: N_20  and  C_21
REMARK                            x       y       z     vdW  Elec       q    Type
REMARK                         _______ _______ _______ _____ _____    ______ ____
ROOT
ATOM      1  C   UNL     1       0.443  10.554  20.692  0.00  0.00    +0.000 A 
ATOM      2  N   UNL     1       0.717  11.551  21.566  0.00  0.00    +0.000 NA
ATOM      3  C   UNL     1      -0.126  12.579  21.505  0.00  0.00    +0.000 A 
ATOM      4  N   UNL     1      -1.112  12.464  22.500  0.00  0.00    +0.000 N 
ATOM      5  N   UNL     1      -0.549  12.958  20.297  0.00  0.00    +0.000 N 
ATOM      6  C   UNL     1       0.500  13.294  19.243  0.00  0.00    +0.000 C 
ATOM      7  C   UNL     1      -1.363  11.991  19.808  0.00  0.00    +0.000 A 
ATOM      8  C   UNL     1      -2.642  12.460  19.416  0.00  0.00    +0.000 A 
ATOM      9  C   UNL     1      -3.416  11.715  18.544  0.00  0.00    +0.000 A 
ATOM     10  C   UNL     1      -2.772  10.614  18.008  0.00  0.00    +0.000 A 
ATOM     11  C   UNL     1      -1.516  10.098  18.547  0.00  0.00    +0.000 A 
ATOM     12  C   UNL     1      -0.772  10.717  19.668  0.00  0.00    +0.000 A 
ATOM     13  H   UNL     1      -0.923  11.649  23.075  0.00  0.00    +0.000 HD
ENDROOT
BRANCH   4  14
ATOM     14  C   UNL     1      -2.310  13.131  22.770  0.00  0.00    +0.000 A 
ATOM     15  C   UNL     1      -3.514  12.422  22.834  0.00  0.00    +0.000 A 
ATOM     16  C   UNL     1      -4.733  13.100  22.826  0.00  0.00    +0.000 A 
ATOM     17  C   UNL     1      -4.757  14.489  22.798  0.00  0.00    +0.000 A 
ATOM     18  C   UNL     1      -3.568  15.201  22.925  0.00  0.00    +0.000 A 
ATOM     19  C   UNL     1      -2.335  14.532  22.973  0.00  0.00    +0.000 A 
ATOM     20  C   UNL     1      -1.126  15.335  23.381  0.00  0.00    +0.000 C 
ENDBRANCH   4  14
BRANCH   1  21
ATOM     21  N   UNL     1       1.291   9.445  20.956  0.00  0.00    +0.000 N 
ATOM     22  C   UNL     1       1.322   8.906  22.309  0.00  0.00    +0.000 C 
BRANCH  21  26
ATOM     23  C   UNL     1       2.729   6.351  18.174  0.00  0.00    +0.000 A 
ATOM     24  C   UNL     1       2.423   6.080  19.503  0.00  0.00    +0.000 A 
ATOM     25  C   UNL     1       1.921   7.077  20.382  0.00  0.00    +0.000 A 
ATOM     26  C   UNL     1       1.691   8.408  19.969  0.00  0.00    +0.000 A 
ATOM     27  C   UNL     1       1.979   8.668  18.613  0.00  0.00    +0.000 A 
ATOM     28  C   UNL     1       2.498   7.649  17.722  0.00  0.00    +0.000 A 
BRANCH  23  30
ATOM     29  C   UNL     1       3.318   3.975  18.099  0.00  0.00    +0.000 C 
ATOM     30  O   UNL     1       3.292   5.279  17.529  0.00  0.00    +0.000 OA
ENDBRANCH  23  30
ENDBRANCH  21  26
ENDBRANCH   1  21
TORSDOF 4
ENDMDL
MODEL 2
REMARK VINA RESULT:      -7.0      0.993      1.015
REMARK  Name = 
REMARK  8 active torsions:
REMARK  status: ('A' for Active; 'I' for Inactive)
REMARK    1  A    between atoms: C_1  and  O_2
REMARK    2  A    between atoms: O_2  and  C_3
REMARK    3  A    between atoms: C_6  and  N_7
REMARK    4  A    between atoms: N_7  and  C_8
REMARK    5  A    between atoms: N_7  and  C_9
REMARK    6  A    between atoms: N_12  and  C_13
REMARK    7  A    between atoms: C_18  and  C_19
REMARK    8  A    between atoms: N_20  and  C_21
REMARK                            x       y       z     vdW  Elec       q    Type
REMARK                         _______ _______ _______ _____ _____    ______ ____
ROOT
ATOM      1  C   UNL     1       0.727   9.881  20.174  0.00  0.00    +0.000 A 
ATOM      2  N   UNL     1       1.113  10.804  21.086  0.00  0.00    +0.000 NA
ATOM      3  C   UNL     1       0.447  11.954  21.017  0.00  0.00    +0.000 A 
ATOM      4  N   UNL     1      -0.591  11.978  21.964  0.00  0.00    +0.000 N 
ATOM      5  N   UNL     1       0.148  12.419  19.801  0.00  0.00    +0.000 N 
ATOM      6  C   UNL     1       1.286  12.605  18.804  0.00  0.00    +0.000 C 
ATOM      7  C   UNL     1      -0.785  11.605  19.251  0.00  0.00    +0.000 A 
ATOM      8  C   UNL     1      -1.954  12.280  18.817  0.00  0.00    +0.000 A 
ATOM      9  C   UNL     1      -2.793  11.685  17.892  0.00  0.00    +0.000 A 
ATOM     10  C   UNL     1      -2.307  10.506  17.355  0.00  0.00    +0.000 A 
ATOM     11  C   UNL     1      -1.175   9.786  17.934  0.00  0.00    +0.000 A 
ATOM     12  C   UNL     1      -0.398  10.256  19.103  0.00  0.00    +0.000 A 
ATOM     13  H   UNL     1      -0.561  11.132  22.524  0.00  0.00    +0.000 HD
ENDROOT
BRANCH   4  14
ATOM     14  C   UNL     1      -1.680  12.822  22.199  0.00  0.00    +0.000 A 
ATOM     15  C   UNL     1      -2.968  12.294  22.327  0.00  0.00    +0.000 A 
ATOM     16  C   UNL     1      -4.081  13.132  22.285  0.00  0.00    +0.000 A 
ATOM     17  C   UNL     1      -3.914  14.506  22.158  0.00  0.00    +0.000 A 
ATOM     18  C   UNL     1      -2.637  15.053  22.220  0.00  0.00    +0.000 A 
ATOM     19  C   UNL     1      -1.507  14.224  22.302  0.00  0.00    +0.000 A 
ATOM     20  C   UNL     1      -0.190  14.877  22.638  0.00  0.00    +0.000 C 
ENDBRANCH   4  14
BRANCH   1  21
ATOM     21  N   UNL     1       1.374   8.646  20.445  0.00  0.00    +0.000 N 
ATOM     22  C   UNL     1       0.877   7.831  21.546  0.00  0.00    +0.000 C 
BRANCH  21  26
ATOM     23  C   UNL     1       3.686   6.126  17.672  0.00  0.00    +0.000 A 
ATOM     24  C   UNL     1       3.159   5.640  18.863  0.00  0.00    +0.000 A 
ATOM     25  C   UNL     1       2.380   6.452  19.731  0.00  0.00    +0.000 A 
ATOM     26  C   UNL     1       2.080   7.802  19.445  0.00  0.00    +0.000 A 
ATOM     27  C   UNL     1       2.596   8.279  18.223  0.00  0.00    +0.000 A 
ATOM     28  C   UNL     1       3.396   7.450  17.343  0.00  0.00    +0.000 A 
BRANCH  23  30
ATOM     29  C   UNL     1       4.298   3.810  17.168  0.00  0.00    +0.000 C 
ATOM     30  O   UNL     1       4.487   5.214  17.034  0.00  0.00    +0.000 OA
ENDBRANCH  23  30
ENDBRANCH  21  26
ENDBRANCH   1  21
TORSDOF 4
ENDMDL
MODEL 3
REMARK VINA RESULT:      -7.0      4.293      7.604
REMARK  Name = 
REMARK  8 active torsions:
REMARK  status: ('A' for Active; 'I' for Inactive)
REMARK    1  A    between atoms: C_1  and  O_2
REMARK    2  A    between atoms: O_2  and  C_3
REMARK    3  A    between atoms: C_6  and  N_7
REMARK    4  A    between atoms: N_7  and  C_8
REMARK    5  A    between atoms: N_7  and  C_9
REMARK    6  A    between atoms: N_12  and  C_13
REMARK    7  A    between atoms: C_18  and  C_19
REMARK    8  A    between atoms: N_20  and  C_21
REMARK                            x       y       z     vdW  Elec       q    Type
REMARK                         _______ _______ _______ _____ _____    ______ ____
ROOT
ATOM      1  C   UNL     1       4.274   5.243  17.968  0.00  0.00    +0.000 A 
ATOM      2  N   UNL     1       3.638   6.290  17.392  0.00  0.00    +0.000 NA
ATOM      3  C   UNL     1       2.459   6.581  17.936  0.00  0.00    +0.000 A 
ATOM      4  N   UNL     1       2.590   7.633  18.859  0.00  0.00    +0.000 N 
ATOM      5  N   UNL     1       1.686   5.559  18.311  0.00  0.00    +0.000 N 
ATOM      6  C   UNL     1       1.347   4.497  17.272  0.00  0.00    +0.000 C 
ATOM      7  C   UNL     1       2.264   4.957  19.378  0.00  0.00    +0.000 A 
ATOM      8  C   UNL     1       1.415   4.848  20.508  0.00  0.00    +0.000 A 
ATOM      9  C   UNL     1       1.696   3.924  21.499  0.00  0.00    +0.000 A 
ATOM     10  C   UNL     1       2.739   3.065  21.200  0.00  0.00    +0.000 A 
ATOM     11  C   UNL     1       3.665   3.308  20.096  0.00  0.00    +0.000 A 
ATOM     12  C   UNL     1       3.561   4.445  19.153  0.00  0.00    +0.000 A 
ATOM     13  H   UNL     1       3.548   7.968  18.860  0.00  0.00    +0.000 HD
ENDROOT
BRANCH   4  14
ATOM     14  C   UNL     1       1.749   8.198  19.822  0.00  0.00    +0.000 A 
ATOM     15  C   UNL     1       1.820   7.781  21.155  0.00  0.00    +0.000 A 
ATOM     16  C   UNL     1       0.816   8.129  22.057  0.00  0.00    +0.000 A 
ATOM     17  C   UNL     1      -0.242   8.931  21.646  0.00  0.00    +0.000 A 
ATOM     18  C   UNL     1      -0.220   9.503  20.379  0.00  0.00    +0.000 A 
ATOM     19  C   UNL     1       0.805   9.193  19.471  0.00  0.00    +0.000 A 
ATOM     20  C   UNL     1       0.917  10.046  18.233  0.00  0.00    +0.000 C 
ENDBRANCH   4  14
BRANCH   1  21
ATOM     21  N   UNL     1       5.584   5.129  17.430  0.00  0.00    +0.000 N 
ATOM     22  C   UNL     1       6.653   4.664  18.304  0.00  0.00    +0.000 C 
BRANCH  21  26
ATOM     23  C   UNL     1       6.579   4.029  13.285  0.00  0.00    +0.000 A 
ATOM     24  C   UNL     1       5.378   3.673  13.887  0.00  0.00    +0.000 A 
ATOM     25  C   UNL     1       5.050   4.068  15.211  0.00  0.00    +0.000 A 
ATOM     26  C   UNL     1       5.913   4.853  16.007  0.00  0.00    +0.000 A 
ATOM     27  C   UNL     1       7.118   5.232  15.380  0.00  0.00    +0.000 A 
ATOM     28  C   UNL     1       7.452   4.821  14.031  0.00  0.00    +0.000 A 
BRANCH  23  30
ATOM     29  C   UNL     1       5.893   2.429  11.564  0.00  0.00    +0.000 C 
ATOM     30  O   UNL     1       6.741   3.464  12.045  0.00  0.00    +0.000 OA
ENDBRANCH  23  30
ENDBRANCH  21  26
ENDBRANCH   1  21
TORSDOF 4
ENDMDL
MODEL 4
REMARK VINA RESULT:      -7.0      1.179      1.212
REMARK  Name = 
REMARK  8 active torsions:
REMARK  status: ('A' for Active; 'I' for Inactive)
REMARK    1  A    between atoms: C_1  and  O_2
REMARK    2  A    between atoms: O_2  and  C_3
REMARK    3  A    between atoms: C_6  and  N_7
REMARK    4  A    between atoms: N_7  and  C_8
REMARK    5  A    between atoms: N_7  and  C_9
REMARK    6  A    between atoms: N_12  and  C_13
REMARK    7  A    between atoms: C_18  and  C_19
REMARK    8  A    between atoms: N_20  and  C_21
REMARK                            x       y       z     vdW  Elec       q    Type
REMARK                         _______ _______ _______ _____ _____    ______ ____
ROOT
ATOM      1  C   UNL     1       0.728  10.287  20.299  0.00  0.00    +0.000 A 
ATOM      2  N   UNL     1       0.917  11.369  21.091  0.00  0.00    +0.000 NA
ATOM      3  C   UNL     1       0.192  12.432  20.747  0.00  0.00    +0.000 A 
ATOM      4  N   UNL     1      -0.971  12.509  21.532  0.00  0.00    +0.000 N 
ATOM      5  N   UNL     1       0.041  12.677  19.443  0.00  0.00    +0.000 N 
ATOM      6  C   UNL     1       1.296  12.808  18.587  0.00  0.00    +0.000 C 
ATOM      7  C   UNL     1      -0.747  11.708  18.916  0.00  0.00    +0.000 A 
ATOM      8  C   UNL     1      -1.882  12.202  18.226  0.00  0.00    +0.000 A 
ATOM      9  C   UNL     1      -2.538  11.401  17.309  0.00  0.00    +0.000 A 
ATOM     10  C   UNL     1      -1.902  10.201  17.041  0.00  0.00    +0.000 A 
ATOM     11  C   UNL     1      -0.820   9.681  17.875  0.00  0.00    +0.000 A 
ATOM     12  C   UNL     1      -0.252  10.392  19.043  0.00  0.00    +0.000 A 
ATOM     13  H   UNL     1      -0.965  11.764  22.222  0.00  0.00    +0.000 HD
ENDROOT
BRANCH   4  14
ATOM     14  C   UNL     1      -2.136  13.278  21.479  0.00  0.00    +0.000 A 
ATOM     15  C   UNL     1      -3.389  12.660  21.427  0.00  0.00    +0.000 A 
ATOM     16  C   UNL     1      -4.526  13.398  21.100  0.00  0.00    +0.000 A 
ATOM     17  C   UNL     1      -4.426  14.764  20.865  0.00  0.00    +0.000 A 
ATOM     18  C   UNL     1      -3.221  15.416  21.099  0.00  0.00    +0.000 A 
ATOM     19  C   UNL     1      -2.075  14.693  21.468  0.00  0.00    +0.000 A 
ATOM     20  C   UNL     1      -0.889  15.479  21.966  0.00  0.00    +0.000 C 
ENDBRANCH   4  14
BRANCH   1  21
ATOM     21  N   UNL     1       1.410   9.171  20.853  0.00  0.00    +0.000 N 
ATOM     22  C   UNL     1       1.288   8.925  22.283  0.00  0.00    +0.000 C 
BRANCH  21  26
ATOM     23  C   UNL     1       2.595   5.404  18.906  0.00  0.00    +0.000 A 
ATOM     24  C   UNL     1       2.013   5.444  20.168  0.00  0.00    +0.000 A 
ATOM     25  C   UNL     1       1.598   6.662  20.770  0.00  0.00    +0.000 A 
ATOM     26  C   UNL     1       1.738   7.913  20.130  0.00  0.00    +0.000 A 
ATOM     27  C   UNL     1       2.305   7.861  18.840  0.00  0.00    +0.000 A 
ATOM     28  C   UNL     1       2.735   6.617  18.233  0.00  0.00    +0.000 A 
BRANCH  23  30
ATOM     29  C   UNL     1       4.234   3.588  19.028  0.00  0.00    +0.000 C 
ATOM     30  O   UNL     1       3.014   4.146  18.554  0.00  0.00    +0.000 OA
ENDBRANCH  23  30
ENDBRANCH  21  26
ENDBRANCH   1  21
TORSDOF 4
ENDMDL
MODEL 5
REMARK VINA RESULT:      -7.0      1.189      1.357
REMARK  Name = 
REMARK  8 active torsions:
REMARK  status: ('A' for Active; 'I' for Inactive)
REMARK    1  A    between atoms: C_1  and  O_2
REMARK    2  A    between atoms: O_2  and  C_3
REMARK    3  A    between atoms: C_6  and  N_7
REMARK    4  A    between atoms: N_7  and  C_8
REMARK    5  A    between atoms: N_7  and  C_9
REMARK    6  A    between atoms: N_12  and  C_13
REMARK    7  A    between atoms: C_18  and  C_19
REMARK    8  A    between atoms: N_20  and  C_21
REMARK                            x       y       z     vdW  Elec       q    Type
REMARK                         _______ _______ _______ _____ _____    ______ ____
ROOT
ATOM      1  C   UNL     1      -0.267  10.762  20.065  0.00  0.00    +0.000 A 
ATOM      2  N   UNL     1      -0.208  11.905  20.787  0.00  0.00    +0.000 NA
ATOM      3  C   UNL     1      -1.152  12.793  20.485  0.00  0.00    +0.000 A 
ATOM      4  N   UNL     1      -2.222  12.699  21.392  0.00  0.00    +0.000 N 
ATOM      5  N   UNL     1      -1.480  12.928  19.198  0.00  0.00    +0.000 N 
ATOM      6  C   UNL     1      -0.368  13.238  18.203  0.00  0.00    +0.000 C 
ATOM      7  C   UNL     1      -2.119  11.801  18.800  0.00  0.00    +0.000 A 
ATOM      8  C   UNL     1      -3.392  12.035  18.223  0.00  0.00    +0.000 A 
ATOM      9  C   UNL     1      -3.975  11.073  17.417  0.00  0.00    +0.000 A 
ATOM     10  C   UNL     1      -3.153   9.997  17.126  0.00  0.00    +0.000 A 
ATOM     11  C   UNL     1      -1.912   9.737  17.854  0.00  0.00    +0.000 A 
ATOM     12  C   UNL     1      -1.373  10.609  18.923  0.00  0.00    +0.000 A 
ATOM     13  H   UNL     1      -2.005  12.011  22.105  0.00  0.00    +0.000 HD
ENDROOT
BRANCH   4  14
ATOM     14  C   UNL     1      -3.512  13.236  21.440  0.00  0.00    +0.000 A 
ATOM     15  C   UNL     1      -4.626  12.393  21.497  0.00  0.00    +0.000 A 
ATOM     16  C   UNL     1      -5.905  12.899  21.269  0.00  0.00    +0.000 A 
ATOM     17  C   UNL     1      -6.084  14.255  21.025  0.00  0.00    +0.000 A 
ATOM     18  C   UNL     1      -5.008  15.126  21.154  0.00  0.00    +0.000 A 
ATOM     19  C   UNL     1      -3.720  14.637  21.423  0.00  0.00    +0.000 A 
ATOM     20  C   UNL     1      -2.664  15.639  21.816  0.00  0.00    +0.000 C 
ENDBRANCH   4  14
BRANCH   1  21
ATOM     21  N   UNL     1       0.668   9.825  20.581  0.00  0.00    +0.000 N 
ATOM     22  C   UNL     1       0.552   9.429  21.978  0.00  0.00    +0.000 C 
BRANCH  21  26
ATOM     23  C   UNL     1       2.948   6.735  18.429  0.00  0.00    +0.000 A 
ATOM     24  C   UNL     1       2.470   6.549  19.721  0.00  0.00    +0.000 A 
ATOM     25  C   UNL     1       1.700   7.538  20.391  0.00  0.00    +0.000 A 
ATOM     26  C   UNL     1       1.361   8.771  19.794  0.00  0.00    +0.000 A 
ATOM     27  C   UNL     1       1.827   8.941  18.474  0.00  0.00    +0.000 A 
ATOM     28  C   UNL     1       2.618   7.933  17.796  0.00  0.00    +0.000 A 
BRANCH  23  30
ATOM     29  C   UNL     1       3.667   4.398  18.562  0.00  0.00    +0.000 C 
ATOM     30  O   UNL     1       3.749   5.705  18.005  0.00  0.00    +0.000 OA
ENDBRANCH  23  30
ENDBRANCH  21  26
ENDBRANCH   1  21
TORSDOF 4
ENDMDL
MODEL 6
REMARK VINA RESULT:      -7.0      1.466      1.959
REMARK  Name = 
REMARK  8 active torsions:
REMARK  status: ('A' for Active; 'I' for Inactive)
REMARK    1  A    between atoms: C_1  and  O_2
REMARK    2  A    between atoms: O_2  and  C_3
REMARK    3  A    between atoms: C_6  and  N_7
REMARK    4  A    between atoms: N_7  and  C_8
REMARK    5  A    between atoms: N_7  and  C_9
REMARK    6  A    between atoms: N_12  and  C_13
REMARK    7  A    between atoms: C_18  and  C_19
REMARK    8  A    between atoms: N_20  and  C_21
REMARK                            x       y       z     vdW  Elec       q    Type
REMARK                         _______ _______ _______ _____ _____    ______ ____
ROOT
ATOM      1  C   UNL     1      -0.499  10.784  20.168  0.00  0.00    +0.000 A 
ATOM      2  N   UNL     1      -0.579  11.939  20.870  0.00  0.00    +0.000 NA
ATOM      3  C   UNL     1      -1.508  12.784  20.429  0.00  0.00    +0.000 A 
ATOM      4  N   UNL     1      -2.684  12.661  21.189  0.00  0.00    +0.000 N 
ATOM      5  N   UNL     1      -1.667  12.888  19.107  0.00  0.00    +0.000 N 
ATOM      6  C   UNL     1      -0.445  13.228  18.262  0.00  0.00    +0.000 C 
ATOM      7  C   UNL     1      -2.204  11.731  18.651  0.00  0.00    +0.000 A 
ATOM      8  C   UNL     1      -3.398  11.906  17.906  0.00  0.00    +0.000 A 
ATOM      9  C   UNL     1      -3.832  10.911  17.049  0.00  0.00    +0.000 A 
ATOM     10  C   UNL     1      -2.939   9.865  16.890  0.00  0.00    +0.000 A 
ATOM     11  C   UNL     1      -1.797   9.664  17.780  0.00  0.00    +0.000 A 
ATOM     12  C   UNL     1      -1.437  10.571  18.893  0.00  0.00    +0.000 A 
ATOM     13  H   UNL     1      -2.537  11.992  21.938  0.00  0.00    +0.000 HD
ENDROOT
BRANCH   4  14
ATOM     14  C   UNL     1      -3.988  13.147  21.056  0.00  0.00    +0.000 A 
ATOM     15  C   UNL     1      -5.067  12.261  20.981  0.00  0.00    +0.000 A 
ATOM     16  C   UNL     1      -6.323  12.712  20.577  0.00  0.00    +0.000 A 
ATOM     17  C   UNL     1      -6.519  14.057  20.286  0.00  0.00    +0.000 A 
ATOM     18  C   UNL     1      -5.502  14.971  20.539  0.00  0.00    +0.000 A 
ATOM     19  C   UNL     1      -4.244  14.538  20.985  0.00  0.00    +0.000 A 
ATOM     20  C   UNL     1      -3.288  15.586  21.495  0.00  0.00    +0.000 C 
ENDBRANCH   4  14
BRANCH   1  21
ATOM     21  N   UNL     1       0.394   9.893  20.821  0.00  0.00    +0.000 N 
ATOM     22  C   UNL     1       0.116   9.523  22.203  0.00  0.00    +0.000 C 
BRANCH  21  26
ATOM     23  C   UNL     1       2.607   6.763  18.655  0.00  0.00    +0.000 A 
ATOM     24  C   UNL     1       2.350   8.015  18.107  0.00  0.00    +0.000 A 
ATOM     25  C   UNL     1       1.670   9.031  18.830  0.00  0.00    +0.000 A 
ATOM     26  C   UNL     1       1.215   8.848  20.154  0.00  0.00    +0.000 A 
ATOM     27  C   UNL     1       1.502   7.585  20.712  0.00  0.00    +0.000 A 
ATOM     28  C   UNL     1       2.189   6.548  19.968  0.00  0.00    +0.000 A 
BRANCH  23  30
ATOM     29  C   UNL     1       3.988   4.801  18.171  0.00  0.00    +0.000 C 
ATOM     30  O   UNL     1       3.182   5.899  17.759  0.00  0.00    +0.000 OA
ENDBRANCH  23  30
ENDBRANCH  21  26
ENDBRANCH   1  21
TORSDOF 4
ENDMDL
MODEL 7
REMARK VINA RESULT:      -6.8      2.613      4.167
REMARK  Name = 
REMARK  8 active torsions:
REMARK  status: ('A' for Active; 'I' for Inactive)
REMARK    1  A    between atoms: C_1  and  O_2
REMARK    2  A    between atoms: O_2  and  C_3
REMARK    3  A    between atoms: C_6  and  N_7
REMARK    4  A    between atoms: N_7  and  C_8
REMARK    5  A    between atoms: N_7  and  C_9
REMARK    6  A    between atoms: N_12  and  C_13
REMARK    7  A    between atoms: C_18  and  C_19
REMARK    8  A    between atoms: N_20  and  C_21
REMARK                            x       y       z     vdW  Elec       q    Type
REMARK                         _______ _______ _______ _____ _____    ______ ____
ROOT
ATOM      1  C   UNL     1       1.327   9.090  19.078  0.00  0.00    +0.000 A 
ATOM      2  N   UNL     1       1.343  10.116  18.195  0.00  0.00    +0.000 NA
ATOM      3  C   UNL     1       0.768  11.230  18.641  0.00  0.00    +0.000 A 
ATOM      4  N   UNL     1       1.738  12.117  19.140  0.00  0.00    +0.000 N 
ATOM      5  N   UNL     1      -0.343  11.100  19.370  0.00  0.00    +0.000 N 
ATOM      6  C   UNL     1      -1.505  10.314  18.772  0.00  0.00    +0.000 C 
ATOM      7  C   UNL     1      -0.009  10.547  20.561  0.00  0.00    +0.000 A 
ATOM      8  C   UNL     1      -0.434  11.301  21.684  0.00  0.00    +0.000 A 
ATOM      9  C   UNL     1      -0.539  10.696  22.924  0.00  0.00    +0.000 A 
ATOM     10  C   UNL     1      -0.351   9.325  22.908  0.00  0.00    +0.000 A 
ATOM     11  C   UNL     1       0.219   8.622  21.761  0.00  0.00    +0.000 A 
ATOM     12  C   UNL     1       0.598   9.275  20.487  0.00  0.00    +0.000 A 
ATOM     13  H   UNL     1       2.663  11.726  18.995  0.00  0.00    +0.000 HD
ENDROOT
BRANCH   4  14
ATOM     14  C   UNL     1       1.689  13.306  19.873  0.00  0.00    +0.000 A 
ATOM     15  C   UNL     1       2.659  13.577  20.844  0.00  0.00    +0.000 A 
ATOM     16  C   UNL     1       2.470  14.611  21.760  0.00  0.00    +0.000 A 
ATOM     17  C   UNL     1       1.333  15.407  21.686  0.00  0.00    +0.000 A 
ATOM     18  C   UNL     1       0.460  15.264  20.613  0.00  0.00    +0.000 A 
ATOM     19  C   UNL     1       0.658  14.253  19.660  0.00  0.00    +0.000 A 
ATOM     20  C   UNL     1      -0.154  14.325  18.392  0.00  0.00    +0.000 C 
ENDBRANCH   4  14
BRANCH   1  21
ATOM     21  N   UNL     1       2.109   8.017  18.572  0.00  0.00    +0.000 N 
ATOM     22  C   UNL     1       3.171   8.322  17.623  0.00  0.00    +0.000 C 
BRANCH  21  26
ATOM     23  C   UNL     1       2.922   4.108  20.427  0.00  0.00    +0.000 A 
ATOM     24  C   UNL     1       3.808   4.717  19.545  0.00  0.00    +0.000 A 
ATOM     25  C   UNL     1       3.554   5.998  18.984  0.00  0.00    +0.000 A 
ATOM     26  C   UNL     1       2.393   6.743  19.285  0.00  0.00    +0.000 A 
ATOM     27  C   UNL     1       1.513   6.129  20.199  0.00  0.00    +0.000 A 
ATOM     28  C   UNL     1       1.771   4.820  20.764  0.00  0.00    +0.000 A 
BRANCH  23  30
ATOM     29  C   UNL     1       4.388   2.169  20.134  0.00  0.00    +0.000 C 
ATOM     30  O   UNL     1       3.306   2.836  20.772  0.00  0.00    +0.000 OA
ENDBRANCH  23  30
ENDBRANCH  21  26
ENDBRANCH   1  21
TORSDOF 4
ENDMDL
MODEL 8
REMARK VINA RESULT:      -6.7      1.285      1.592
REMARK  Name = 
REMARK  8 active torsions:
REMARK  status: ('A' for Active; 'I' for Inactive)
REMARK    1  A    between atoms: C_1  and  O_2
REMARK    2  A    between atoms: O_2  and  C_3
REMARK    3  A    between atoms: C_6  and  N_7
REMARK    4  A    between atoms: N_7  and  C_8
REMARK    5  A    between atoms: N_7  and  C_9
REMARK    6  A    between atoms: N_12  and  C_13
REMARK    7  A    between atoms: C_18  and  C_19
REMARK    8  A    between atoms: N_20  and  C_21
REMARK                            x       y       z     vdW  Elec       q    Type
REMARK                         _______ _______ _______ _____ _____    ______ ____
ROOT
ATOM      1  C   UNL     1       0.729   9.814  20.189  0.00  0.00    +0.000 A 
ATOM      2  N   UNL     1       1.094  10.758  21.087  0.00  0.00    +0.000 NA
ATOM      3  C   UNL     1       0.501  11.937  20.914  0.00  0.00    +0.000 A 
ATOM      4  N   UNL     1      -0.605  12.061  21.773  0.00  0.00    +0.000 N 
ATOM      5  N   UNL     1       0.324  12.357  19.659  0.00  0.00    +0.000 N 
ATOM      6  C   UNL     1       1.545  12.435  18.750  0.00  0.00    +0.000 C 
ATOM      7  C   UNL     1      -0.608  11.567  19.072  0.00  0.00    +0.000 A 
ATOM      8  C   UNL     1      -1.699  12.280  18.516  0.00  0.00    +0.000 A 
ATOM      9  C   UNL     1      -2.496  11.686  17.553  0.00  0.00    +0.000 A 
ATOM     10  C   UNL     1      -2.035  10.459  17.109  0.00  0.00    +0.000 A 
ATOM     11  C   UNL     1      -0.995   9.709  17.809  0.00  0.00    +0.000 A 
ATOM     12  C   UNL     1      -0.285  10.194  19.016  0.00  0.00    +0.000 A 
ATOM     13  H   UNL     1      -0.666  11.242  22.370  0.00  0.00    +0.000 HD
ENDROOT
BRANCH   4  14
ATOM     14  C   UNL     1      -1.660  12.971  21.882  0.00  0.00    +0.000 A 
ATOM     15  C   UNL     1      -2.985  12.524  21.846  0.00  0.00    +0.000 A 
ATOM     16  C   UNL     1      -4.030  13.430  21.677  0.00  0.00    +0.000 A 
ATOM     17  C   UNL     1      -3.764  14.791  21.585  0.00  0.00    +0.000 A 
ATOM     18  C   UNL     1      -2.473  15.257  21.808  0.00  0.00    +0.000 A 
ATOM     19  C   UNL     1      -1.415  14.359  22.019  0.00  0.00    +0.000 A 
ATOM     20  C   UNL     1      -0.111  14.927  22.519  0.00  0.00    +0.000 C 
ENDBRANCH   4  14
BRANCH   1  21
ATOM     21  N   UNL     1       1.284   8.561  20.566  0.00  0.00    +0.000 N 
ATOM     22  C   UNL     1       0.569   7.755  21.547  0.00  0.00    +0.000 C 
BRANCH  21  26
ATOM     23  C   UNL     1       3.613   6.018  17.829  0.00  0.00    +0.000 A 
ATOM     24  C   UNL     1       3.319   7.348  17.549  0.00  0.00    +0.000 A 
ATOM     25  C   UNL     1       2.601   8.171  18.457  0.00  0.00    +0.000 A 
ATOM     26  C   UNL     1       2.143   7.703  19.708  0.00  0.00    +0.000 A 
ATOM     27  C   UNL     1       2.468   6.361  19.996  0.00  0.00    +0.000 A 
ATOM     28  C   UNL     1       3.194   5.522  19.064  0.00  0.00    +0.000 A 
BRANCH  23  30
ATOM     29  C   UNL     1       5.246   5.989  16.005  0.00  0.00    +0.000 C 
ATOM     30  O   UNL     1       4.223   5.376  16.782  0.00  0.00    +0.000 OA
ENDBRANCH  23  30
ENDBRANCH  21  26
ENDBRANCH   1  21
TORSDOF 4
ENDMDL
MODEL 9
REMARK VINA RESULT:      -6.7      7.497     10.772
REMARK  Name = 
REMARK  8 active torsions:
REMARK  status: ('A' for Active; 'I' for Inactive)
REMARK    1  A    between atoms: C_1  and  O_2
REMARK    2  A    between atoms: O_2  and  C_3
REMARK    3  A    between atoms: C_6  and  N_7
REMARK    4  A    between atoms: N_7  and  C_8
REMARK    5  A    between atoms: N_7  and  C_9
REMARK    6  A    between atoms: N_12  and  C_13
REMARK    7  A    between atoms: C_18  and  C_19
REMARK    8  A    between atoms: N_20  and  C_21
REMARK                            x       y       z     vdW  Elec       q    Type
REMARK                         _______ _______ _______ _____ _____    ______ ____
ROOT
ATOM      1  C   UNL     1       6.173  15.374  19.722  0.00  0.00    +0.000 A 
ATOM      2  N   UNL     1       6.873  15.822  18.654  0.00  0.00    +0.000 NA
ATOM      3  C   UNL     1       8.168  15.516  18.681  0.00  0.00    +0.000 A 
ATOM      4  N   UNL     1       8.418  14.368  17.910  0.00  0.00    +0.000 N 
ATOM      5  N   UNL     1       8.791  15.581  19.861  0.00  0.00    +0.000 N 
ATOM      6  C   UNL     1       8.717  16.889  20.640  0.00  0.00    +0.000 C 
ATOM      7  C   UNL     1       8.323  14.580  20.645  0.00  0.00    +0.000 A 
ATOM      8  C   UNL     1       9.337  13.737  21.167  0.00  0.00    +0.000 A 
ATOM      9  C   UNL     1       9.081  12.952  22.277  0.00  0.00    +0.000 A 
ATOM     10  C   UNL     1       7.856  13.191  22.876  0.00  0.00    +0.000 A 
ATOM     11  C   UNL     1       6.799  13.960  22.222  0.00  0.00    +0.000 A 
ATOM     12  C   UNL     1       6.935  14.608  20.898  0.00  0.00    +0.000 A 
ATOM     13  H   UNL     1       7.560  14.066  17.461  0.00  0.00    +0.000 HD
ENDROOT
BRANCH   4  14
ATOM     14  C   UNL     1       9.520  13.524  17.742  0.00  0.00    +0.000 A 
ATOM     15  C   UNL     1       9.371  12.138  17.853  0.00  0.00    +0.000 A 
ATOM     16  C   UNL     1      10.491  11.315  17.963  0.00  0.00    +0.000 A 
ATOM     17  C   UNL     1      11.766  11.865  17.919  0.00  0.00    +0.000 A 
ATOM     18  C   UNL     1      11.924  13.214  17.621  0.00  0.00    +0.000 A 
ATOM     19  C   UNL     1      10.806  14.050  17.469  0.00  0.00    +0.000 A 
ATOM     20  C   UNL     1      11.037  15.420  16.884  0.00  0.00    +0.000 C 
ENDBRANCH   4  14
BRANCH   1  21
ATOM     21  N   UNL     1       4.787  15.603  19.510  0.00  0.00    +0.000 N 
ATOM     22  C   UNL     1       4.390  16.752  18.708  0.00  0.00    +0.000 C 
BRANCH  21  26
ATOM     23  C   UNL     1       1.492  12.691  19.289  0.00  0.00    +0.000 A 
ATOM     24  C   UNL     1       2.194  13.114  18.166  0.00  0.00    +0.000 A 
ATOM     25  C   UNL     1       3.282  14.023  18.254  0.00  0.00    +0.000 A 
ATOM     26  C   UNL     1       3.732  14.555  19.482  0.00  0.00    +0.000 A 
ATOM     27  C   UNL     1       3.032  14.101  20.619  0.00  0.00    +0.000 A 
ATOM     28  C   UNL     1       1.917  13.179  20.525  0.00  0.00    +0.000 A 
BRANCH  23  30
ATOM     29  C   UNL     1      -0.840  12.432  18.589  0.00  0.00    +0.000 C 
ATOM     30  O   UNL     1       0.419  11.895  18.977  0.00  0.00    +0.000 OA
ENDBRANCH  23  30
ENDBRANCH  21  26
ENDBRANCH   1  21
TORSDOF 4
ENDMDL
