MODEL 1
REMARK VINA RESULT:      -8.5      0.000      0.000
REMARK  Name = 
REMARK  3 active torsions:
REMARK  status: ('A' for Active; 'I' for Inactive)
REMARK    1  A    between atoms: C_5  and  C_6
REMARK    2  A    between atoms: N_11  and  C_12
REMARK    3  A    between atoms: N_19  and  C_20
REMARK                            x       y       z     vdW  Elec       q    Type
REMARK                         _______ _______ _______ _____ _____    ______ ____
ROOT
ATOM      1  O   UNL     1       4.654   3.921  14.235  0.00  0.00    +0.000 OA
ATOM      2  C   UNL     1       5.593   4.504  14.756  0.00  0.00    +0.000 A 
ATOM      3  N   UNL     1       6.752   4.897  14.096  0.00  0.00    +0.000 N 
ATOM      4  N   UNL     1       7.558   5.624  14.920  0.00  0.00    +0.000 NA
ATOM      5  C   UNL     1       6.924   5.646  16.065  0.00  0.00    +0.000 A 
ATOM      6  N   UNL     1       5.729   4.983  16.044  0.00  0.00    +0.000 N 
ATOM      7  H   UNL     1       6.942   4.776  13.110  0.00  0.00    +0.000 HD
ENDROOT
BRANCH   6   8
ATOM      8  C   UNL     1       4.721   4.899  17.013  0.00  0.00    +0.000 A 
ATOM      9  C   UNL     1       4.007   6.051  17.352  0.00  0.00    +0.000 A 
ATOM     10  C   UNL     1       2.896   5.964  18.188  0.00  0.00    +0.000 A 
ATOM     11  C   UNL     1       2.517   4.735  18.742  0.00  0.00    +0.000 A 
ATOM     12  C   UNL     1       1.381   4.630  19.563  0.00  0.00    +0.000 A 
ATOM     13  C   UNL     1       1.030   3.403  20.124  0.00  0.00    +0.000 A 
ATOM     14  C   UNL     1       1.804   2.272  19.888  0.00  0.00    +0.000 A 
ATOM     15  C   UNL     1       2.928   2.358  19.067  0.00  0.00    +0.000 A 
ATOM     16  C   UNL     1       3.286   3.579  18.473  0.00  0.00    +0.000 A 
ATOM     17  C   UNL     1       4.383   3.675  17.604  0.00  0.00    +0.000 A 
ENDBRANCH   6   8
BRANCH   5  18
ATOM     18  C   UNL     1       7.501   6.319  17.247  0.00  0.00    +0.000 A 
ATOM     19  C   UNL     1       7.790   5.705  18.460  0.00  0.00    +0.000 A 
ATOM     20  C   UNL     1       8.290   6.511  19.470  0.00  0.00    +0.000 A 
ATOM     21  N   UNL     1       8.545   7.840  19.342  0.00  0.00    +0.000 NA
ATOM     22  C   UNL     1       8.323   8.415  18.146  0.00  0.00    +0.000 A 
ATOM     23  N   UNL     1       8.474   9.782  17.931  0.00  0.00    +0.000 N 
ATOM     24  C   UNL     1       7.799   7.676  17.090  0.00  0.00    +0.000 A 
ATOM     25  H   UNL     1       8.853   9.985  17.013  0.00  0.00    +0.000 HD
BRANCH  23  26
ATOM     26  C   UNL     1       8.928  10.685  18.983  0.00  0.00    +0.000 C 
ATOM     27  C   UNL     1      10.456  10.827  19.013  0.00  0.00    +0.000 C 
ATOM     28  C   UNL     1      11.046  11.550  17.800  0.00  0.00    +0.000 C 
ATOM     29  C   UNL     1      10.337  12.856  17.452  0.00  0.00    +0.000 C 
ATOM     30  C   UNL     1       8.816  12.759  17.481  0.00  0.00    +0.000 C 
ATOM     31  C   UNL     1       8.284  12.059  18.732  0.00  0.00    +0.000 C 
ENDBRANCH  23  26
ENDBRANCH   5  18
TORSDOF 3
ENDMDL
MODEL 2
REMARK VINA RESULT:      -8.4      4.868      7.435
REMARK  Name = 
REMARK  3 active torsions:
REMARK  status: ('A' for Active; 'I' for Inactive)
REMARK    1  A    between atoms: C_5  and  C_6
REMARK    2  A    between atoms: N_11  and  C_12
REMARK    3  A    between atoms: N_19  and  C_20
REMARK                            x       y       z     vdW  Elec       q    Type
REMARK                         _______ _______ _______ _____ _____    ______ ____
ROOT
ATOM      1  O   UNL     1       3.546   2.778  20.407  0.00  0.00    +0.000 OA
ATOM      2  C   UNL     1       2.934   3.833  20.346  0.00  0.00    +0.000 A 
ATOM      3  N   UNL     1       1.896   4.202  21.195  0.00  0.00    +0.000 N 
ATOM      4  N   UNL     1       1.496   5.481  20.946  0.00  0.00    +0.000 NA
ATOM      5  C   UNL     1       2.245   5.872  19.947  0.00  0.00    +0.000 A 
ATOM      6  N   UNL     1       3.137   4.926  19.526  0.00  0.00    +0.000 N 
ATOM      7  H   UNL     1       1.549   3.660  21.974  0.00  0.00    +0.000 HD
ENDROOT
BRANCH   6   8
ATOM      8  C   UNL     1       4.178   5.012  18.591  0.00  0.00    +0.000 A 
ATOM      9  C   UNL     1       5.455   5.366  19.030  0.00  0.00    +0.000 A 
ATOM     10  C   UNL     1       6.538   5.301  18.156  0.00  0.00    +0.000 A 
ATOM     11  C   UNL     1       6.350   4.933  16.817  0.00  0.00    +0.000 A 
ATOM     12  C   UNL     1       7.438   4.835  15.933  0.00  0.00    +0.000 A 
ATOM     13  C   UNL     1       7.231   4.489  14.599  0.00  0.00    +0.000 A 
ATOM     14  C   UNL     1       5.946   4.250  14.123  0.00  0.00    +0.000 A 
ATOM     15  C   UNL     1       4.857   4.333  14.991  0.00  0.00    +0.000 A 
ATOM     16  C   UNL     1       5.046   4.657  16.344  0.00  0.00    +0.000 A 
ATOM     17  C   UNL     1       3.970   4.696  17.244  0.00  0.00    +0.000 A 
ENDBRANCH   6   8
BRANCH   5  18
ATOM     18  C   UNL     1       2.087   7.215  19.352  0.00  0.00    +0.000 A 
ATOM     19  C   UNL     1       2.502   7.583  18.077  0.00  0.00    +0.000 A 
ATOM     20  C   UNL     1       2.306   8.904  17.709  0.00  0.00    +0.000 A 
ATOM     21  N   UNL     1       1.712   9.844  18.491  0.00  0.00    +0.000 NA
ATOM     22  C   UNL     1       1.256   9.466  19.699  0.00  0.00    +0.000 A 
ATOM     23  N   UNL     1       0.706  10.365  20.609  0.00  0.00    +0.000 N 
ATOM     24  C   UNL     1       1.437   8.163  20.149  0.00  0.00    +0.000 A 
ATOM     25  H   UNL     1      -0.066   9.960  21.126  0.00  0.00    +0.000 HD
BRANCH  23  26
ATOM     26  C   UNL     1       0.545  11.781  20.295  0.00  0.00    +0.000 C 
ATOM     27  C   UNL     1      -0.628  12.039  19.340  0.00  0.00    +0.000 C 
ATOM     28  C   UNL     1      -2.007  11.765  19.946  0.00  0.00    +0.000 C 
ATOM     29  C   UNL     1      -2.215  12.393  21.321  0.00  0.00    +0.000 C 
ATOM     30  C   UNL     1      -1.035  12.209  22.268  0.00  0.00    +0.000 C 
ATOM     31  C   UNL     1       0.312  12.530  21.618  0.00  0.00    +0.000 C 
ENDBRANCH  23  26
ENDBRANCH   5  18
TORSDOF 3
ENDMDL
MODEL 3
REMARK VINA RESULT:      -8.4      6.410     10.167
REMARK  Name = 
REMARK  3 active torsions:
REMARK  status: ('A' for Active; 'I' for Inactive)
REMARK    1  A    between atoms: C_5  and  C_6
REMARK    2  A    between atoms: N_11  and  C_12
REMARK    3  A    between atoms: N_19  and  C_20
REMARK                            x       y       z     vdW  Elec       q    Type
REMARK                         _______ _______ _______ _____ _____    ______ ____
ROOT
ATOM      1  O   UNL     1      -1.124  12.015  23.285  0.00  0.00    +0.000 OA
ATOM      2  C   UNL     1      -0.649  11.044  22.716  0.00  0.00    +0.000 A 
ATOM      3  N   UNL     1      -0.815   9.724  23.121  0.00  0.00    +0.000 N 
ATOM      4  N   UNL     1      -0.262   8.866  22.218  0.00  0.00    +0.000 NA
ATOM      5  C   UNL     1       0.261   9.642  21.303  0.00  0.00    +0.000 A 
ATOM      6  N   UNL     1       0.071  10.975  21.540  0.00  0.00    +0.000 N 
ATOM      7  H   UNL     1      -1.367   9.411  23.907  0.00  0.00    +0.000 HD
ENDROOT
BRANCH   6   8
ATOM      8  C   UNL     1       0.358  12.089  20.740  0.00  0.00    +0.000 A 
ATOM      9  C   UNL     1      -0.654  12.630  19.943  0.00  0.00    +0.000 A 
ATOM     10  C   UNL     1      -0.444  13.829  19.266  0.00  0.00    +0.000 A 
ATOM     11  C   UNL     1       0.797  14.475  19.331  0.00  0.00    +0.000 A 
ATOM     12  C   UNL     1       1.012  15.700  18.676  0.00  0.00    +0.000 A 
ATOM     13  C   UNL     1       2.260  16.318  18.733  0.00  0.00    +0.000 A 
ATOM     14  C   UNL     1       3.310  15.726  19.426  0.00  0.00    +0.000 A 
ATOM     15  C   UNL     1       3.110  14.516  20.090  0.00  0.00    +0.000 A 
ATOM     16  C   UNL     1       1.854  13.888  20.065  0.00  0.00    +0.000 A 
ATOM     17  C   UNL     1       1.618  12.697  20.768  0.00  0.00    +0.000 A 
ENDBRANCH   6   8
BRANCH   5  18
ATOM     18  C   UNL     1       0.996   9.080  20.151  0.00  0.00    +0.000 A 
ATOM     19  C   UNL     1       1.136   9.692  18.911  0.00  0.00    +0.000 A 
ATOM     20  C   UNL     1       1.827   8.990  17.937  0.00  0.00    +0.000 A 
ATOM     21  N   UNL     1       2.400   7.772  18.124  0.00  0.00    +0.000 NA
ATOM     22  C   UNL     1       2.316   7.213  19.346  0.00  0.00    +0.000 A 
ATOM     23  N   UNL     1       2.796   5.936  19.622  0.00  0.00    +0.000 N 
ATOM     24  C   UNL     1       1.618   7.846  20.368  0.00  0.00    +0.000 A 
ATOM     25  H   UNL     1       3.206   5.874  20.547  0.00  0.00    +0.000 HD
BRANCH  23  26
ATOM     26  C   UNL     1       3.468   5.127  18.610  0.00  0.00    +0.000 C 
ATOM     27  C   UNL     1       4.364   4.045  19.227  0.00  0.00    +0.000 C 
ATOM     28  C   UNL     1       3.603   2.937  19.959  0.00  0.00    +0.000 C 
ATOM     29  C   UNL     1       2.437   2.357  19.164  0.00  0.00    +0.000 C 
ATOM     30  C   UNL     1       1.569   3.410  18.485  0.00  0.00    +0.000 C 
ATOM     31  C   UNL     1       2.383   4.469  17.741  0.00  0.00    +0.000 C 
ENDBRANCH  23  26
ENDBRANCH   5  18
TORSDOF 3
ENDMDL
MODEL 4
REMARK VINA RESULT:      -8.2      0.603      1.523
REMARK  Name = 
REMARK  3 active torsions:
REMARK  status: ('A' for Active; 'I' for Inactive)
REMARK    1  A    between atoms: C_5  and  C_6
REMARK    2  A    between atoms: N_11  and  C_12
REMARK    3  A    between atoms: N_19  and  C_20
REMARK                            x       y       z     vdW  Elec       q    Type
REMARK                         _______ _______ _______ _____ _____    ______ ____
ROOT
ATOM      1  O   UNL     1       4.709   3.792  13.933  0.00  0.00    +0.000 OA
ATOM      2  C   UNL     1       5.624   4.378  14.491  0.00  0.00    +0.000 A 
ATOM      3  N   UNL     1       6.783   4.825  13.864  0.00  0.00    +0.000 N 
ATOM      4  N   UNL     1       7.558   5.540  14.727  0.00  0.00    +0.000 NA
ATOM      5  C   UNL     1       6.907   5.503  15.862  0.00  0.00    +0.000 A 
ATOM      6  N   UNL     1       5.730   4.812  15.797  0.00  0.00    +0.000 N 
ATOM      7  H   UNL     1       6.990   4.745  12.878  0.00  0.00    +0.000 HD
ENDROOT
BRANCH   6   8
ATOM      8  C   UNL     1       4.710   4.666  16.747  0.00  0.00    +0.000 A 
ATOM      9  C   UNL     1       4.275   3.382  17.084  0.00  0.00    +0.000 A 
ATOM     10  C   UNL     1       3.383   3.200  18.138  0.00  0.00    +0.000 A 
ATOM     11  C   UNL     1       2.869   4.302  18.833  0.00  0.00    +0.000 A 
ATOM     12  C   UNL     1       1.991   4.130  19.917  0.00  0.00    +0.000 A 
ATOM     13  C   UNL     1       1.471   5.237  20.584  0.00  0.00    +0.000 A 
ATOM     14  C   UNL     1       1.805   6.526  20.179  0.00  0.00    +0.000 A 
ATOM     15  C   UNL     1       2.684   6.713  19.113  0.00  0.00    +0.000 A 
ATOM     16  C   UNL     1       3.236   5.610  18.441  0.00  0.00    +0.000 A 
ATOM     17  C   UNL     1       4.161   5.777  17.399  0.00  0.00    +0.000 A 
ENDBRANCH   6   8
BRANCH   5  18
ATOM     18  C   UNL     1       7.449   6.145  17.077  0.00  0.00    +0.000 A 
ATOM     19  C   UNL     1       7.678   5.506  18.290  0.00  0.00    +0.000 A 
ATOM     20  C   UNL     1       8.152   6.286  19.332  0.00  0.00    +0.000 A 
ATOM     21  N   UNL     1       8.437   7.612  19.237  0.00  0.00    +0.000 NA
ATOM     22  C   UNL     1       8.274   8.210  18.043  0.00  0.00    +0.000 A 
ATOM     23  N   UNL     1       8.459   9.578  17.857  0.00  0.00    +0.000 N 
ATOM     24  C   UNL     1       7.779   7.499  16.955  0.00  0.00    +0.000 A 
ATOM     25  H   UNL     1       8.878   9.787  16.958  0.00  0.00    +0.000 HD
BRANCH  23  26
ATOM     26  C   UNL     1       8.888  10.454  18.941  0.00  0.00    +0.000 C 
ATOM     27  C   UNL     1      10.403  10.700  18.930  0.00  0.00    +0.000 C 
ATOM     28  C   UNL     1      10.901  11.524  17.740  0.00  0.00    +0.000 C 
ATOM     29  C   UNL     1      10.094  12.793  17.485  0.00  0.00    +0.000 C 
ATOM     30  C   UNL     1       8.585  12.590  17.557  0.00  0.00    +0.000 C 
ATOM     31  C   UNL     1       8.145  11.791  18.784  0.00  0.00    +0.000 C 
ENDBRANCH  23  26
ENDBRANCH   5  18
TORSDOF 3
ENDMDL
MODEL 5
REMARK VINA RESULT:      -7.9      6.078      9.295
REMARK  Name = 
REMARK  3 active torsions:
REMARK  status: ('A' for Active; 'I' for Inactive)
REMARK    1  A    between atoms: C_5  and  C_6
REMARK    2  A    between atoms: N_11  and  C_12
REMARK    3  A    between atoms: N_19  and  C_20
REMARK                            x       y       z     vdW  Elec       q    Type
REMARK                         _______ _______ _______ _____ _____    ______ ____
ROOT
ATOM      1  O   UNL     1      -1.393  11.139  22.676  0.00  0.00    +0.000 OA
ATOM      2  C   UNL     1      -0.484  10.439  22.259  0.00  0.00    +0.000 A 
ATOM      3  N   UNL     1       0.377   9.693  23.056  0.00  0.00    +0.000 N 
ATOM      4  N   UNL     1       1.209   8.930  22.293  0.00  0.00    +0.000 NA
ATOM      5  C   UNL     1       0.889   9.228  21.059  0.00  0.00    +0.000 A 
ATOM      6  N   UNL     1      -0.125  10.139  20.960  0.00  0.00    +0.000 N 
ATOM      7  H   UNL     1       0.335   9.618  24.064  0.00  0.00    +0.000 HD
ENDROOT
BRANCH   6   8
ATOM      8  C   UNL     1      -0.824  10.600  19.836  0.00  0.00    +0.000 A 
ATOM      9  C   UNL     1      -0.584  11.895  19.372  0.00  0.00    +0.000 A 
ATOM     10  C   UNL     1      -1.140  12.321  18.168  0.00  0.00    +0.000 A 
ATOM     11  C   UNL     1      -1.989  11.477  17.439  0.00  0.00    +0.000 A 
ATOM     12  C   UNL     1      -2.532  11.884  16.208  0.00  0.00    +0.000 A 
ATOM     13  C   UNL     1      -3.392  11.041  15.506  0.00  0.00    +0.000 A 
ATOM     14  C   UNL     1      -3.732   9.794  16.019  0.00  0.00    +0.000 A 
ATOM     15  C   UNL     1      -3.193   9.372  17.234  0.00  0.00    +0.000 A 
ATOM     16  C   UNL     1      -2.306  10.196  17.946  0.00  0.00    +0.000 A 
ATOM     17  C   UNL     1      -1.713   9.769  19.144  0.00  0.00    +0.000 A 
ENDBRANCH   6   8
BRANCH   5  18
ATOM     18  C   UNL     1       1.603   8.623  19.916  0.00  0.00    +0.000 A 
ATOM     19  C   UNL     1       1.851   9.251  18.700  0.00  0.00    +0.000 A 
ATOM     20  C   UNL     1       2.500   8.506  17.728  0.00  0.00    +0.000 A 
ATOM     21  N   UNL     1       2.934   7.230  17.897  0.00  0.00    +0.000 NA
ATOM     22  C   UNL     1       2.748   6.650  19.096  0.00  0.00    +0.000 A 
ATOM     23  N   UNL     1       3.081   5.321  19.348  0.00  0.00    +0.000 N 
ATOM     24  C   UNL     1       2.083   7.325  20.114  0.00  0.00    +0.000 A 
ATOM     25  H   UNL     1       3.448   5.191  20.284  0.00  0.00    +0.000 HD
BRANCH  23  26
ATOM     26  C   UNL     1       3.701   4.474  18.335  0.00  0.00    +0.000 C 
ATOM     27  C   UNL     1       4.605   3.395  18.947  0.00  0.00    +0.000 C 
ATOM     28  C   UNL     1       3.856   2.320  19.739  0.00  0.00    +0.000 C 
ATOM     29  C   UNL     1       2.652   1.737  19.007  0.00  0.00    +0.000 C 
ATOM     30  C   UNL     1       1.774   2.784  18.332  0.00  0.00    +0.000 C 
ATOM     31  C   UNL     1       2.573   3.809  17.528  0.00  0.00    +0.000 C 
ENDBRANCH  23  26
ENDBRANCH   5  18
TORSDOF 3
ENDMDL
MODEL 6
REMARK VINA RESULT:      -7.8      8.149     11.385
REMARK  Name = 
REMARK  3 active torsions:
REMARK  status: ('A' for Active; 'I' for Inactive)
REMARK    1  A    between atoms: C_5  and  C_6
REMARK    2  A    between atoms: N_11  and  C_12
REMARK    3  A    between atoms: N_19  and  C_20
REMARK                            x       y       z     vdW  Elec       q    Type
REMARK                         _______ _______ _______ _____ _____    ______ ____
ROOT
ATOM      1  O   UNL     1       2.616  13.338  19.759  0.00  0.00    +0.000 OA
ATOM      2  C   UNL     1       1.486  13.249  19.304  0.00  0.00    +0.000 A 
ATOM      3  N   UNL     1       0.772  14.297  18.733  0.00  0.00    +0.000 N 
ATOM      4  N   UNL     1      -0.409  13.856  18.216  0.00  0.00    +0.000 NA
ATOM      5  C   UNL     1      -0.434  12.578  18.495  0.00  0.00    +0.000 A 
ATOM      6  N   UNL     1       0.678  12.139  19.158  0.00  0.00    +0.000 N 
ATOM      7  H   UNL     1       1.111  15.240  18.600  0.00  0.00    +0.000 HD
ENDROOT
BRANCH   6   8
ATOM      8  C   UNL     1       1.075  10.840  19.504  0.00  0.00    +0.000 A 
ATOM      9  C   UNL     1       0.799  10.367  20.789  0.00  0.00    +0.000 A 
ATOM     10  C   UNL     1       1.034   9.031  21.107  0.00  0.00    +0.000 A 
ATOM     11  C   UNL     1       1.600   8.164  20.163  0.00  0.00    +0.000 A 
ATOM     12  C   UNL     1       1.814   6.807  20.462  0.00  0.00    +0.000 A 
ATOM     13  C   UNL     1       2.398   5.964  19.519  0.00  0.00    +0.000 A 
ATOM     14  C   UNL     1       2.787   6.454  18.277  0.00  0.00    +0.000 A 
ATOM     15  C   UNL     1       2.570   7.795  17.961  0.00  0.00    +0.000 A 
ATOM     16  C   UNL     1       1.962   8.657  18.888  0.00  0.00    +0.000 A 
ATOM     17  C   UNL     1       1.690   9.997  18.571  0.00  0.00    +0.000 A 
ENDBRANCH   6   8
BRANCH   5  18
ATOM     18  C   UNL     1      -1.590  11.736  18.124  0.00  0.00    +0.000 A 
ATOM     19  C   UNL     1      -1.522  10.552  17.398  0.00  0.00    +0.000 A 
ATOM     20  C   UNL     1      -2.722   9.922  17.109  0.00  0.00    +0.000 A 
ATOM     21  N   UNL     1      -3.942  10.362  17.515  0.00  0.00    +0.000 NA
ATOM     22  C   UNL     1      -3.995  11.473  18.272  0.00  0.00    +0.000 A 
ATOM     23  N   UNL     1      -5.197  12.053  18.671  0.00  0.00    +0.000 N 
ATOM     24  C   UNL     1      -2.836  12.175  18.583  0.00  0.00    +0.000 A 
ATOM     25  H   UNL     1      -5.143  12.434  19.608  0.00  0.00    +0.000 HD
BRANCH  23  26
ATOM     26  C   UNL     1      -6.489  11.466  18.330  0.00  0.00    +0.000 C 
ATOM     27  C   UNL     1      -6.741  10.141  19.063  0.00  0.00    +0.000 C 
ATOM     28  C   UNL     1      -6.928  10.282  20.576  0.00  0.00    +0.000 C 
ATOM     29  C   UNL     1      -7.911  11.377  20.979  0.00  0.00    +0.000 C 
ATOM     30  C   UNL     1      -7.725  12.684  20.217  0.00  0.00    +0.000 C 
ATOM     31  C   UNL     1      -7.578  12.483  18.708  0.00  0.00    +0.000 C 
ENDBRANCH  23  26
ENDBRANCH   5  18
TORSDOF 3
ENDMDL
MODEL 7
REMARK VINA RESULT:      -7.8      8.256     11.181
REMARK  Name = 
REMARK  3 active torsions:
REMARK  status: ('A' for Active; 'I' for Inactive)
REMARK    1  A    between atoms: C_5  and  C_6
REMARK    2  A    between atoms: N_11  and  C_12
REMARK    3  A    between atoms: N_19  and  C_20
REMARK                            x       y       z     vdW  Elec       q    Type
REMARK                         _______ _______ _______ _____ _____    ______ ____
ROOT
ATOM      1  O   UNL     1       2.915  12.804  19.417  0.00  0.00    +0.000 OA
ATOM      2  C   UNL     1       1.744  12.788  19.068  0.00  0.00    +0.000 A 
ATOM      3  N   UNL     1       1.067  13.862  18.501  0.00  0.00    +0.000 N 
ATOM      4  N   UNL     1      -0.188  13.497  18.115  0.00  0.00    +0.000 NA
ATOM      5  C   UNL     1      -0.289  12.241  18.470  0.00  0.00    +0.000 A 
ATOM      6  N   UNL     1       0.840  11.744  19.058  0.00  0.00    +0.000 N 
ATOM      7  H   UNL     1       1.466  14.765  18.284  0.00  0.00    +0.000 HD
ENDROOT
BRANCH   6   8
ATOM      8  C   UNL     1       1.162  10.436  19.443  0.00  0.00    +0.000 A 
ATOM      9  C   UNL     1       0.817  10.003  20.726  0.00  0.00    +0.000 A 
ATOM     10  C   UNL     1       0.977   8.665  21.078  0.00  0.00    +0.000 A 
ATOM     11  C   UNL     1       1.535   7.753  20.173  0.00  0.00    +0.000 A 
ATOM     12  C   UNL     1       1.673   6.394  20.506  0.00  0.00    +0.000 A 
ATOM     13  C   UNL     1       2.251   5.504  19.602  0.00  0.00    +0.000 A 
ATOM     14  C   UNL     1       2.707   5.950  18.366  0.00  0.00    +0.000 A 
ATOM     15  C   UNL     1       2.566   7.293  18.017  0.00  0.00    +0.000 A 
ATOM     16  C   UNL     1       1.967   8.202  18.903  0.00  0.00    +0.000 A 
ATOM     17  C   UNL     1       1.770   9.546  18.551  0.00  0.00    +0.000 A 
ENDBRANCH   6   8
BRANCH   5  18
ATOM     18  C   UNL     1      -1.538  11.483  18.252  0.00  0.00    +0.000 A 
ATOM     19  C   UNL     1      -1.641  10.291  17.544  0.00  0.00    +0.000 A 
ATOM     20  C   UNL     1      -2.908   9.747  17.408  0.00  0.00    +0.000 A 
ATOM     21  N   UNL     1      -4.038  10.279  17.945  0.00  0.00    +0.000 NA
ATOM     22  C   UNL     1      -3.922  11.398  18.683  0.00  0.00    +0.000 A 
ATOM     23  N   UNL     1      -5.024  12.068  19.208  0.00  0.00    +0.000 N 
ATOM     24  C   UNL     1      -2.687  12.017  18.844  0.00  0.00    +0.000 A 
ATOM     25  H   UNL     1      -4.834  12.453  20.126  0.00  0.00    +0.000 HD
BRANCH  23  26
ATOM     26  C   UNL     1      -6.386  11.574  19.031  0.00  0.00    +0.000 C 
ATOM     27  C   UNL     1      -7.375  12.225  20.007  0.00  0.00    +0.000 C 
ATOM     28  C   UNL     1      -7.621  13.715  19.757  0.00  0.00    +0.000 C 
ATOM     29  C   UNL     1      -7.916  14.057  18.300  0.00  0.00    +0.000 C 
ATOM     30  C   UNL     1      -6.989  13.370  17.304  0.00  0.00    +0.000 C 
ATOM     31  C   UNL     1      -6.809  11.878  17.585  0.00  0.00    +0.000 C 
ENDBRANCH  23  26
ENDBRANCH   5  18
TORSDOF 3
ENDMDL
MODEL 8
REMARK VINA RESULT:      -7.8      4.688      7.302
REMARK  Name = 
REMARK  3 active torsions:
REMARK  status: ('A' for Active; 'I' for Inactive)
REMARK    1  A    between atoms: C_5  and  C_6
REMARK    2  A    between atoms: N_11  and  C_12
REMARK    3  A    between atoms: N_19  and  C_20
REMARK                            x       y       z     vdW  Elec       q    Type
REMARK                         _______ _______ _______ _____ _____    ______ ____
ROOT
ATOM      1  O   UNL     1       3.346   2.366  20.587  0.00  0.00    +0.000 OA
ATOM      2  C   UNL     1       2.893   3.499  20.550  0.00  0.00    +0.000 A 
ATOM      3  N   UNL     1       2.208   4.118  21.591  0.00  0.00    +0.000 N 
ATOM      4  N   UNL     1       1.931   5.417  21.287  0.00  0.00    +0.000 NA
ATOM      5  C   UNL     1       2.404   5.580  20.076  0.00  0.00    +0.000 A 
ATOM      6  N   UNL     1       2.996   4.460  19.563  0.00  0.00    +0.000 N 
ATOM      7  H   UNL     1       2.031   3.719  22.503  0.00  0.00    +0.000 HD
ENDROOT
BRANCH   6   8
ATOM      8  C   UNL     1       3.721   4.279  18.378  0.00  0.00    +0.000 A 
ATOM      9  C   UNL     1       3.100   3.657  17.292  0.00  0.00    +0.000 A 
ATOM     10  C   UNL     1       3.739   3.611  16.055  0.00  0.00    +0.000 A 
ATOM     11  C   UNL     1       5.029   4.135  15.900  0.00  0.00    +0.000 A 
ATOM     12  C   UNL     1       5.672   4.121  14.650  0.00  0.00    +0.000 A 
ATOM     13  C   UNL     1       6.964   4.626  14.519  0.00  0.00    +0.000 A 
ATOM     14  C   UNL     1       7.638   5.139  15.622  0.00  0.00    +0.000 A 
ATOM     15  C   UNL     1       7.009   5.170  16.867  0.00  0.00    +0.000 A 
ATOM     16  C   UNL     1       5.699   4.687  17.017  0.00  0.00    +0.000 A 
ATOM     17  C   UNL     1       5.030   4.757  18.249  0.00  0.00    +0.000 A 
ENDBRANCH   6   8
BRANCH   5  18
ATOM     18  C   UNL     1       2.265   6.868  19.367  0.00  0.00    +0.000 A 
ATOM     19  C   UNL     1       2.707   7.126  18.074  0.00  0.00    +0.000 A 
ATOM     20  C   UNL     1       2.526   8.412  17.592  0.00  0.00    +0.000 A 
ATOM     21  N   UNL     1       1.921   9.416  18.280  0.00  0.00    +0.000 NA
ATOM     22  C   UNL     1       1.439   9.143  19.506  0.00  0.00    +0.000 A 
ATOM     23  N   UNL     1       0.876  10.118  20.326  0.00  0.00    +0.000 N 
ATOM     24  C   UNL     1       1.604   7.882  20.068  0.00  0.00    +0.000 A 
ATOM     25  H   UNL     1       0.093   9.761  20.860  0.00  0.00    +0.000 HD
BRANCH  23  26
ATOM     26  C   UNL     1       0.730  11.503  19.891  0.00  0.00    +0.000 C 
ATOM     27  C   UNL     1      -0.520  11.715  19.026  0.00  0.00    +0.000 C 
ATOM     28  C   UNL     1      -1.844  11.554  19.778  0.00  0.00    +0.000 C 
ATOM     29  C   UNL     1      -1.902  12.317  21.098  0.00  0.00    +0.000 C 
ATOM     30  C   UNL     1      -0.644  12.177  21.947  0.00  0.00    +0.000 C 
ATOM     31  C   UNL     1       0.644  12.382  21.149  0.00  0.00    +0.000 C 
ENDBRANCH  23  26
ENDBRANCH   5  18
TORSDOF 3
ENDMDL
MODEL 9
REMARK VINA RESULT:      -7.7      3.975      7.067
REMARK  Name = 
REMARK  3 active torsions:
REMARK  status: ('A' for Active; 'I' for Inactive)
REMARK    1  A    between atoms: C_5  and  C_6
REMARK    2  A    between atoms: N_11  and  C_12
REMARK    3  A    between atoms: N_19  and  C_20
REMARK                            x       y       z     vdW  Elec       q    Type
REMARK                         _______ _______ _______ _____ _____    ______ ____
ROOT
ATOM      1  O   UNL     1       2.317   3.950  21.187  0.00  0.00    +0.000 OA
ATOM      2  C   UNL     1       3.225   3.776  20.389  0.00  0.00    +0.000 A 
ATOM      3  N   UNL     1       3.932   2.588  20.234  0.00  0.00    +0.000 N 
ATOM      4  N   UNL     1       4.802   2.672  19.189  0.00  0.00    +0.000 NA
ATOM      5  C   UNL     1       4.657   3.893  18.738  0.00  0.00    +0.000 A 
ATOM      6  N   UNL     1       3.723   4.622  19.418  0.00  0.00    +0.000 N 
ATOM      7  H   UNL     1       3.760   1.727  20.736  0.00  0.00    +0.000 HD
ENDROOT
BRANCH   6   8
ATOM      8  C   UNL     1       3.199   5.895  19.157  0.00  0.00    +0.000 A 
ATOM      9  C   UNL     1       3.315   6.425  17.870  0.00  0.00    +0.000 A 
ATOM     10  C   UNL     1       2.664   7.612  17.541  0.00  0.00    +0.000 A 
ATOM     11  C   UNL     1       1.934   8.314  18.509  0.00  0.00    +0.000 A 
ATOM     12  C   UNL     1       1.247   9.496  18.182  0.00  0.00    +0.000 A 
ATOM     13  C   UNL     1       0.544  10.194  19.161  0.00  0.00    +0.000 A 
ATOM     14  C   UNL     1       0.521   9.738  20.475  0.00  0.00    +0.000 A 
ATOM     15  C   UNL     1       1.188   8.560  20.812  0.00  0.00    +0.000 A 
ATOM     16  C   UNL     1       1.884   7.829  19.836  0.00  0.00    +0.000 A 
ATOM     17  C   UNL     1       2.518   6.616  20.145  0.00  0.00    +0.000 A 
ENDBRANCH   6   8
BRANCH   5  18
ATOM     18  C   UNL     1       5.468   4.392  17.608  0.00  0.00    +0.000 A 
ATOM     19  C   UNL     1       6.371   5.448  17.672  0.00  0.00    +0.000 A 
ATOM     20  C   UNL     1       7.010   5.801  16.495  0.00  0.00    +0.000 A 
ATOM     21  N   UNL     1       6.838   5.169  15.304  0.00  0.00    +0.000 NA
ATOM     22  C   UNL     1       6.011   4.109  15.263  0.00  0.00    +0.000 A 
ATOM     23  N   UNL     1       5.703   3.442  14.080  0.00  0.00    +0.000 N 
ATOM     24  C   UNL     1       5.315   3.708  16.398  0.00  0.00    +0.000 A 
ATOM     25  H   UNL     1       5.612   2.443  14.218  0.00  0.00    +0.000 HD
BRANCH  23  26
ATOM     26  C   UNL     1       6.295   3.823  12.801  0.00  0.00    +0.000 C 
ATOM     27  C   UNL     1       6.963   2.639  12.090  0.00  0.00    +0.000 C 
ATOM     28  C   UNL     1       5.987   1.567  11.597  0.00  0.00    +0.000 C 
ATOM     29  C   UNL     1       4.793   2.123  10.827  0.00  0.00    +0.000 C 
ATOM     30  C   UNL     1       4.153   3.343  11.479  0.00  0.00    +0.000 C 
ATOM     31  C   UNL     1       5.173   4.393  11.918  0.00  0.00    +0.000 C 
ENDBRANCH  23  26
ENDBRANCH   5  18
TORSDOF 3
ENDMDL
