MODEL 1
REMARK VINA RESULT:      -6.0      0.000      0.000
REMARK  Name = 
REMARK  7 active torsions:
REMARK  status: ('A' for Active; 'I' for Inactive)
REMARK    1  A    between atoms: C_1  and  C_2
REMARK    2  A    between atoms: C_7  and  P_8
REMARK    3  A    between atoms: P_8  and  C_9
REMARK    4  A    between atoms: P_8  and  C_16
REMARK    5  A    between atoms: P_8  and  C_22
REMARK    6  A    between atoms: C_9  and  C_10
REMARK    7  A    between atoms: C_27  and  C_28
REMARK                            x       y       z     vdW  Elec       q    Type
REMARK                         _______ _______ _______ _____ _____    ______ ____
ROOT
ATOM      1  P   UNL     1      -1.021  12.766  20.253  0.00  0.00    +0.000 P 
ENDROOT
BRANCH   1   8
ATOM      2  C   UNL     1      -2.142  10.677  17.758  0.00  0.00    +0.000 C 
ATOM      3  C   UNL     1      -3.058  11.574  18.540  0.00  0.00    +0.000 A 
ATOM      4  C   UNL     1      -4.410  11.538  18.132  0.00  0.00    +0.000 A 
ATOM      5  C   UNL     1      -5.402  12.233  18.814  0.00  0.00    +0.000 A 
ATOM      6  C   UNL     1      -5.067  12.948  19.947  0.00  0.00    +0.000 A 
ATOM      7  C   UNL     1      -3.735  13.000  20.358  0.00  0.00    +0.000 A 
ATOM      8  C   UNL     1      -2.685  12.396  19.629  0.00  0.00    +0.000 A 
ENDBRANCH   1   8
BRANCH   1   9
ATOM      9  C   UNL     1      -0.463  11.363  21.247  0.00  0.00    +0.000 A 
ATOM     10  C   UNL     1       0.581  10.558  20.757  0.00  0.00    +0.000 A 
ATOM     11  C   UNL     1       1.085   9.486  21.499  0.00  0.00    +0.000 A 
ATOM     12  C   UNL     1       0.557   9.193  22.751  0.00  0.00    +0.000 A 
ATOM     13  C   UNL     1      -0.485   9.960  23.248  0.00  0.00    +0.000 A 
ATOM     14  C   UNL     1      -1.004  11.046  22.519  0.00  0.00    +0.000 A 
ATOM     15  C   UNL     1      -2.158  11.777  23.140  0.00  0.00    +0.000 C 
ENDBRANCH   1   9
BRANCH   1  16
ATOM     16  C   UNL     1      -1.030  14.334  21.215  0.00  0.00    +0.000 A 
ATOM     17  C   UNL     1      -1.771  15.457  20.820  0.00  0.00    +0.000 A 
ATOM     18  C   UNL     1      -1.540  16.720  21.376  0.00  0.00    +0.000 A 
ATOM     19  C   UNL     1      -0.563  16.890  22.349  0.00  0.00    +0.000 A 
ATOM     20  C   UNL     1       0.126  15.780  22.819  0.00  0.00    +0.000 A 
ATOM     21  C   UNL     1      -0.130  14.511  22.283  0.00  0.00    +0.000 A 
ENDBRANCH   1  16
BRANCH   1  22
ATOM     22  C   UNL     1       0.229  13.030  18.942  0.00  0.00    +0.000 C 
BRANCH  22  23
ATOM     23  C   UNL     1       1.362  14.019  19.154  0.00  0.00    +0.000 A 
ATOM     24  C   UNL     1       1.289  15.356  18.733  0.00  0.00    +0.000 A 
ATOM     25  C   UNL     1       2.318  16.257  19.001  0.00  0.00    +0.000 A 
ATOM     26  C   UNL     1       3.451  15.830  19.679  0.00  0.00    +0.000 A 
ATOM     27  C   UNL     1       3.559  14.499  20.076  0.00  0.00    +0.000 A 
ATOM     28  C   UNL     1       2.524  13.596  19.811  0.00  0.00    +0.000 A 
ENDBRANCH  22  23
ENDBRANCH   1  22
TORSDOF 5
ENDMDL
MODEL 2
REMARK VINA RESULT:      -5.9      1.656      5.557
REMARK  Name = 
REMARK  7 active torsions:
REMARK  status: ('A' for Active; 'I' for Inactive)
REMARK    1  A    between atoms: C_1  and  C_2
REMARK    2  A    between atoms: C_7  and  P_8
REMARK    3  A    between atoms: P_8  and  C_9
REMARK    4  A    between atoms: P_8  and  C_16
REMARK    5  A    between atoms: P_8  and  C_22
REMARK    6  A    between atoms: C_9  and  C_10
REMARK    7  A    between atoms: C_27  and  C_28
REMARK                            x       y       z     vdW  Elec       q    Type
REMARK                         _______ _______ _______ _____ _____    ______ ____
ROOT
ATOM      1  P   UNL     1      -0.350  11.798  20.072  0.00  0.00    +0.000 P 
ENDROOT
BRANCH   1   8
ATOM      2  C   UNL     1      -1.336   9.796  17.451  0.00  0.00    +0.000 C 
ATOM      3  C   UNL     1      -2.266  10.754  18.137  0.00  0.00    +0.000 A 
ATOM      4  C   UNL     1      -3.566  10.813  17.585  0.00  0.00    +0.000 A 
ATOM      5  C   UNL     1      -4.575  11.576  18.162  0.00  0.00    +0.000 A 
ATOM      6  C   UNL     1      -4.316  12.265  19.330  0.00  0.00    +0.000 A 
ATOM      7  C   UNL     1      -3.036  12.222  19.883  0.00  0.00    +0.000 A 
ATOM      8  C   UNL     1      -1.957  11.546  19.267  0.00  0.00    +0.000 A 
ENDBRANCH   1   8
BRANCH   1   9
ATOM      9  C   UNL     1       0.238  13.457  19.658  0.00  0.00    +0.000 A 
ATOM     10  C   UNL     1      -0.598  14.305  18.910  0.00  0.00    +0.000 A 
ATOM     11  C   UNL     1      -0.217  15.612  18.597  0.00  0.00    +0.000 A 
ATOM     12  C   UNL     1       1.011  16.105  19.026  0.00  0.00    +0.000 A 
ATOM     13  C   UNL     1       1.860  15.283  19.749  0.00  0.00    +0.000 A 
ATOM     14  C   UNL     1       1.493  13.965  20.078  0.00  0.00    +0.000 A 
ATOM     15  C   UNL     1       2.512  13.156  20.828  0.00  0.00    +0.000 C 
ENDBRANCH   1   9
BRANCH   1  16
ATOM     16  C   UNL     1       0.839  10.494  19.553  0.00  0.00    +0.000 A 
ATOM     17  C   UNL     1       1.549  10.556  18.345  0.00  0.00    +0.000 A 
ATOM     18  C   UNL     1       2.208   9.437  17.824  0.00  0.00    +0.000 A 
ATOM     19  C   UNL     1       2.179   8.227  18.504  0.00  0.00    +0.000 A 
ATOM     20  C   UNL     1       1.556   8.159  19.743  0.00  0.00    +0.000 A 
ATOM     21  C   UNL     1       0.924   9.289  20.277  0.00  0.00    +0.000 A 
ENDBRANCH   1  16
BRANCH   1  22
ATOM     22  C   UNL     1      -0.401  11.684  21.898  0.00  0.00    +0.000 C 
BRANCH  22  23
ATOM     23  C   UNL     1      -1.399  12.511  22.688  0.00  0.00    +0.000 A 
ATOM     24  C   UNL     1      -1.239  13.888  22.906  0.00  0.00    +0.000 A 
ATOM     25  C   UNL     1      -2.205  14.634  23.579  0.00  0.00    +0.000 A 
ATOM     26  C   UNL     1      -3.345  14.008  24.064  0.00  0.00    +0.000 A 
ATOM     27  C   UNL     1      -3.510  12.636  23.887  0.00  0.00    +0.000 A 
ATOM     28  C   UNL     1      -2.541  11.889  23.210  0.00  0.00    +0.000 A 
ENDBRANCH  22  23
ENDBRANCH   1  22
TORSDOF 5
ENDMDL
MODEL 3
REMARK VINA RESULT:      -5.9      1.505      5.930
REMARK  Name = 
REMARK  7 active torsions:
REMARK  status: ('A' for Active; 'I' for Inactive)
REMARK    1  A    between atoms: C_1  and  C_2
REMARK    2  A    between atoms: C_7  and  P_8
REMARK    3  A    between atoms: P_8  and  C_9
REMARK    4  A    between atoms: P_8  and  C_16
REMARK    5  A    between atoms: P_8  and  C_22
REMARK    6  A    between atoms: C_9  and  C_10
REMARK    7  A    between atoms: C_27  and  C_28
REMARK                            x       y       z     vdW  Elec       q    Type
REMARK                         _______ _______ _______ _____ _____    ______ ____
ROOT
ATOM      1  P   UNL     1      -1.456  12.979  21.464  0.00  0.00    +0.000 P 
ENDROOT
BRANCH   1   8
ATOM      2  C   UNL     1      -1.440  16.035  19.880  0.00  0.00    +0.000 C 
ATOM      3  C   UNL     1      -0.273  15.091  19.839  0.00  0.00    +0.000 A 
ATOM      4  C   UNL     1       0.814  15.530  19.049  0.00  0.00    +0.000 A 
ATOM      5  C   UNL     1       2.008  14.821  18.984  0.00  0.00    +0.000 A 
ATOM      6  C   UNL     1       2.155  13.676  19.742  0.00  0.00    +0.000 A 
ATOM      7  C   UNL     1       1.090  13.227  20.521  0.00  0.00    +0.000 A 
ATOM      8  C   UNL     1      -0.175  13.860  20.528  0.00  0.00    +0.000 A 
ENDBRANCH   1   8
BRANCH   1   9
ATOM      9  C   UNL     1      -1.756  13.880  23.003  0.00  0.00    +0.000 A 
ATOM     10  C   UNL     1      -0.838  14.869  23.399  0.00  0.00    +0.000 A 
ATOM     11  C   UNL     1      -1.039  15.628  24.555  0.00  0.00    +0.000 A 
ATOM     12  C   UNL     1      -2.165  15.419  25.343  0.00  0.00    +0.000 A 
ATOM     13  C   UNL     1      -3.075  14.438  24.984  0.00  0.00    +0.000 A 
ATOM     14  C   UNL     1      -2.893  13.664  23.822  0.00  0.00    +0.000 A 
ATOM     15  C   UNL     1      -3.922  12.604  23.558  0.00  0.00    +0.000 C 
ENDBRANCH   1   9
BRANCH   1  16
ATOM     16  C   UNL     1      -0.945  11.239  21.771  0.00  0.00    +0.000 A 
ATOM     17  C   UNL     1      -0.819  10.705  23.062  0.00  0.00    +0.000 A 
ATOM     18  C   UNL     1      -0.150   9.499  23.293  0.00  0.00    +0.000 A 
ATOM     19  C   UNL     1       0.405   8.790  22.235  0.00  0.00    +0.000 A 
ATOM     20  C   UNL     1       0.222   9.252  20.939  0.00  0.00    +0.000 A 
ATOM     21  C   UNL     1      -0.477  10.444  20.707  0.00  0.00    +0.000 A 
ENDBRANCH   1  16
BRANCH   1  22
ATOM     22  C   UNL     1      -3.062  12.848  20.594  0.00  0.00    +0.000 C 
BRANCH  22  23
ATOM     23  C   UNL     1      -3.137  12.207  19.221  0.00  0.00    +0.000 A 
ATOM     24  C   UNL     1      -2.008  12.024  18.407  0.00  0.00    +0.000 A 
ATOM     25  C   UNL     1      -2.097  11.372  17.178  0.00  0.00    +0.000 A 
ATOM     26  C   UNL     1      -3.326  10.908  16.731  0.00  0.00    +0.000 A 
ATOM     27  C   UNL     1      -4.465  11.108  17.507  0.00  0.00    +0.000 A 
ATOM     28  C   UNL     1      -4.374  11.758  18.742  0.00  0.00    +0.000 A 
ENDBRANCH  22  23
ENDBRANCH   1  22
TORSDOF 5
ENDMDL
MODEL 4
REMARK VINA RESULT:      -5.9      1.471      5.487
REMARK  Name = 
REMARK  7 active torsions:
REMARK  status: ('A' for Active; 'I' for Inactive)
REMARK    1  A    between atoms: C_1  and  C_2
REMARK    2  A    between atoms: C_7  and  P_8
REMARK    3  A    between atoms: P_8  and  C_9
REMARK    4  A    between atoms: P_8  and  C_16
REMARK    5  A    between atoms: P_8  and  C_22
REMARK    6  A    between atoms: C_9  and  C_10
REMARK    7  A    between atoms: C_27  and  C_28
REMARK                            x       y       z     vdW  Elec       q    Type
REMARK                         _______ _______ _______ _____ _____    ______ ____
ROOT
ATOM      1  P   UNL     1      -0.407  12.759  20.443  0.00  0.00    +0.000 P 
ENDROOT
BRANCH   1   8
ATOM      2  C   UNL     1       1.533  10.619  18.571  0.00  0.00    +0.000 C 
ATOM      3  C   UNL     1       0.919  10.223  19.883  0.00  0.00    +0.000 A 
ATOM      4  C   UNL     1       1.151   8.882  20.262  0.00  0.00    +0.000 A 
ATOM      5  C   UNL     1       0.735   8.384  21.492  0.00  0.00    +0.000 A 
ATOM      6  C   UNL     1       0.113   9.232  22.388  0.00  0.00    +0.000 A 
ATOM      7  C   UNL     1      -0.129  10.556  22.025  0.00  0.00    +0.000 A 
ATOM      8  C   UNL     1       0.181  11.069  20.743  0.00  0.00    +0.000 A 
ENDBRANCH   1   8
BRANCH   1   9
ATOM      9  C   UNL     1       1.028  13.858  20.387  0.00  0.00    +0.000 A 
ATOM     10  C   UNL     1       2.282  13.356  20.781  0.00  0.00    +0.000 A 
ATOM     11  C   UNL     1       3.434  14.143  20.719  0.00  0.00    +0.000 A 
ATOM     12  C   UNL     1       3.362  15.454  20.259  0.00  0.00    +0.000 A 
ATOM     13  C   UNL     1       2.136  15.977  19.882  0.00  0.00    +0.000 A 
ATOM     14  C   UNL     1       0.964  15.200  19.934  0.00  0.00    +0.000 A 
ATOM     15  C   UNL     1      -0.312  15.887  19.541  0.00  0.00    +0.000 C 
ENDBRANCH   1   9
BRANCH   1  16
ATOM     16  C   UNL     1      -1.611  13.260  21.740  0.00  0.00    +0.000 A 
ATOM     17  C   UNL     1      -1.257  14.077  22.824  0.00  0.00    +0.000 A 
ATOM     18  C   UNL     1      -2.082  14.201  23.947  0.00  0.00    +0.000 A 
ATOM     19  C   UNL     1      -3.288  13.517  24.011  0.00  0.00    +0.000 A 
ATOM     20  C   UNL     1      -3.703  12.769  22.917  0.00  0.00    +0.000 A 
ATOM     21  C   UNL     1      -2.889  12.672  21.780  0.00  0.00    +0.000 A 
ENDBRANCH   1  16
BRANCH   1  22
ATOM     22  C   UNL     1      -1.308  12.969  18.863  0.00  0.00    +0.000 C 
BRANCH  22  23
ATOM     23  C   UNL     1      -2.122  11.823  18.290  0.00  0.00    +0.000 A 
ATOM     24  C   UNL     1      -1.555  10.810  17.501  0.00  0.00    +0.000 A 
ATOM     25  C   UNL     1      -2.315   9.735  17.044  0.00  0.00    +0.000 A 
ATOM     26  C   UNL     1      -3.666   9.665  17.353  0.00  0.00    +0.000 A 
ATOM     27  C   UNL     1      -4.257  10.676  18.107  0.00  0.00    +0.000 A 
ATOM     28  C   UNL     1      -3.493  11.753  18.568  0.00  0.00    +0.000 A 
ENDBRANCH  22  23
ENDBRANCH   1  22
TORSDOF 5
ENDMDL
MODEL 5
REMARK VINA RESULT:      -5.8      0.777      1.991
REMARK  Name = 
REMARK  7 active torsions:
REMARK  status: ('A' for Active; 'I' for Inactive)
REMARK    1  A    between atoms: C_1  and  C_2
REMARK    2  A    between atoms: C_7  and  P_8
REMARK    3  A    between atoms: P_8  and  C_9
REMARK    4  A    between atoms: P_8  and  C_16
REMARK    5  A    between atoms: P_8  and  C_22
REMARK    6  A    between atoms: C_9  and  C_10
REMARK    7  A    between atoms: C_27  and  C_28
REMARK                            x       y       z     vdW  Elec       q    Type
REMARK                         _______ _______ _______ _____ _____    ______ ____
ROOT
ATOM      1  P   UNL     1      -0.734  12.497  19.893  0.00  0.00    +0.000 P 
ENDROOT
BRANCH   1   8
ATOM      2  C   UNL     1      -4.101  12.750  20.562  0.00  0.00    +0.000 C 
ATOM      3  C   UNL     1      -3.567  12.166  19.287  0.00  0.00    +0.000 A 
ATOM      4  C   UNL     1      -4.555  11.672  18.404  0.00  0.00    +0.000 A 
ATOM      5  C   UNL     1      -4.235  11.189  17.141  0.00  0.00    +0.000 A 
ATOM      6  C   UNL     1      -2.922  11.227  16.716  0.00  0.00    +0.000 A 
ATOM      7  C   UNL     1      -1.935  11.705  17.578  0.00  0.00    +0.000 A 
ATOM      8  C   UNL     1      -2.206  12.103  18.908  0.00  0.00    +0.000 A 
ENDBRANCH   1   8
BRANCH   1   9
ATOM      9  C   UNL     1      -0.428  11.126  21.031  0.00  0.00    +0.000 A 
ATOM     10  C   UNL     1      -0.887  11.229  22.356  0.00  0.00    +0.000 A 
ATOM     11  C   UNL     1      -0.719  10.185  23.269  0.00  0.00    +0.000 A 
ATOM     12  C   UNL     1      -0.088   9.008  22.878  0.00  0.00    +0.000 A 
ATOM     13  C   UNL     1       0.389   8.889  21.583  0.00  0.00    +0.000 A 
ATOM     14  C   UNL     1       0.226   9.928  20.647  0.00  0.00    +0.000 A 
ATOM     15  C   UNL     1       0.821   9.701  19.288  0.00  0.00    +0.000 C 
ENDBRANCH   1   9
BRANCH   1  16
ATOM     16  C   UNL     1      -0.963  14.093  20.780  0.00  0.00    +0.000 A 
ATOM     17  C   UNL     1      -1.454  15.244  20.147  0.00  0.00    +0.000 A 
ATOM     18  C   UNL     1      -1.341  16.508  20.736  0.00  0.00    +0.000 A 
ATOM     19  C   UNL     1      -0.738  16.651  21.979  0.00  0.00    +0.000 A 
ATOM     20  C   UNL     1      -0.320  15.519  22.665  0.00  0.00    +0.000 A 
ATOM     21  C   UNL     1      -0.464  14.251  22.087  0.00  0.00    +0.000 A 
ENDBRANCH   1  16
BRANCH   1  22
ATOM     22  C   UNL     1       0.790  12.728  18.904  0.00  0.00    +0.000 C 
BRANCH  22  23
ATOM     23  C   UNL     1       1.820  13.762  19.318  0.00  0.00    +0.000 A 
ATOM     24  C   UNL     1       1.962  14.996  18.664  0.00  0.00    +0.000 A 
ATOM     25  C   UNL     1       2.873  15.952  19.108  0.00  0.00    +0.000 A 
ATOM     26  C   UNL     1       3.675  15.682  20.208  0.00  0.00    +0.000 A 
ATOM     27  C   UNL     1       3.575  14.452  20.853  0.00  0.00    +0.000 A 
ATOM     28  C   UNL     1       2.658  13.494  20.409  0.00  0.00    +0.000 A 
ENDBRANCH  22  23
ENDBRANCH   1  22
TORSDOF 5
ENDMDL
MODEL 6
REMARK VINA RESULT:      -5.8      1.642      5.657
REMARK  Name = 
REMARK  7 active torsions:
REMARK  status: ('A' for Active; 'I' for Inactive)
REMARK    1  A    between atoms: C_1  and  C_2
REMARK    2  A    between atoms: C_7  and  P_8
REMARK    3  A    between atoms: P_8  and  C_9
REMARK    4  A    between atoms: P_8  and  C_16
REMARK    5  A    between atoms: P_8  and  C_22
REMARK    6  A    between atoms: C_9  and  C_10
REMARK    7  A    between atoms: C_27  and  C_28
REMARK                            x       y       z     vdW  Elec       q    Type
REMARK                         _______ _______ _______ _____ _____    ______ ____
ROOT
ATOM      1  P   UNL     1      -0.750  11.534  20.056  0.00  0.00    +0.000 P 
ENDROOT
BRANCH   1   8
ATOM      2  C   UNL     1      -3.539  13.513  20.455  0.00  0.00    +0.000 C 
ATOM      3  C   UNL     1      -3.512  12.319  19.546  0.00  0.00    +0.000 A 
ATOM      4  C   UNL     1      -4.742  12.034  18.910  0.00  0.00    +0.000 A 
ATOM      5  C   UNL     1      -4.862  11.022  17.964  0.00  0.00    +0.000 A 
ATOM      6  C   UNL     1      -3.742  10.299  17.603  0.00  0.00    +0.000 A 
ATOM      7  C   UNL     1      -2.523  10.564  18.227  0.00  0.00    +0.000 A 
ATOM      8  C   UNL     1      -2.386  11.510  19.270  0.00  0.00    +0.000 A 
ENDBRANCH   1   8
BRANCH   1   9
ATOM      9  C   UNL     1       0.030  13.124  19.692  0.00  0.00    +0.000 A 
ATOM     10  C   UNL     1      -0.682  14.071  18.934  0.00  0.00    +0.000 A 
ATOM     11  C   UNL     1      -0.149  15.332  18.657  0.00  0.00    +0.000 A 
ATOM     12  C   UNL     1       1.111  15.680  19.133  0.00  0.00    +0.000 A 
ATOM     13  C   UNL     1       1.840  14.758  19.866  0.00  0.00    +0.000 A 
ATOM     14  C   UNL     1       1.320  13.483  20.160  0.00  0.00    +0.000 A 
ATOM     15  C   UNL     1       2.217  12.555  20.926  0.00  0.00    +0.000 C 
ENDBRANCH   1   9
BRANCH   1  16
ATOM     16  C   UNL     1       0.265  10.116  19.473  0.00  0.00    +0.000 A 
ATOM     17  C   UNL     1       0.690   9.090  20.329  0.00  0.00    +0.000 A 
ATOM     18  C   UNL     1       1.696   8.192  19.953  0.00  0.00    +0.000 A 
ATOM     19  C   UNL     1       2.298   8.296  18.706  0.00  0.00    +0.000 A 
ATOM     20  C   UNL     1       1.838   9.249  17.807  0.00  0.00    +0.000 A 
ATOM     21  C   UNL     1       0.809  10.125  18.174  0.00  0.00    +0.000 A 
ENDBRANCH   1  16
BRANCH   1  22
ATOM     22  C   UNL     1      -0.793  11.360  21.879  0.00  0.00    +0.000 C 
BRANCH  22  23
ATOM     23  C   UNL     1      -1.563  12.359  22.724  0.00  0.00    +0.000 A 
ATOM     24  C   UNL     1      -2.820  12.073  23.277  0.00  0.00    +0.000 A 
ATOM     25  C   UNL     1      -3.473  12.986  24.104  0.00  0.00    +0.000 A 
ATOM     26  C   UNL     1      -2.885  14.213  24.376  0.00  0.00    +0.000 A 
ATOM     27  C   UNL     1      -1.653  14.531  23.811  0.00  0.00    +0.000 A 
ATOM     28  C   UNL     1      -0.997  13.613  22.984  0.00  0.00    +0.000 A 
ENDBRANCH  22  23
ENDBRANCH   1  22
TORSDOF 5
ENDMDL
MODEL 7
REMARK VINA RESULT:      -5.8      1.677      5.486
REMARK  Name = 
REMARK  7 active torsions:
REMARK  status: ('A' for Active; 'I' for Inactive)
REMARK    1  A    between atoms: C_1  and  C_2
REMARK    2  A    between atoms: C_7  and  P_8
REMARK    3  A    between atoms: P_8  and  C_9
REMARK    4  A    between atoms: P_8  and  C_16
REMARK    5  A    between atoms: P_8  and  C_22
REMARK    6  A    between atoms: C_9  and  C_10
REMARK    7  A    between atoms: C_27  and  C_28
REMARK                            x       y       z     vdW  Elec       q    Type
REMARK                         _______ _______ _______ _____ _____    ______ ____
ROOT
ATOM      1  P   UNL     1      -0.608  11.622  20.032  0.00  0.00    +0.000 P 
ENDROOT
BRANCH   1   8
ATOM      2  C   UNL     1       2.446  12.870  21.013  0.00  0.00    +0.000 C 
ATOM      3  C   UNL     1       1.440  13.687  20.256  0.00  0.00    +0.000 A 
ATOM      4  C   UNL     1       1.819  15.029  20.029  0.00  0.00    +0.000 A 
ATOM      5  C   UNL     1       1.045  15.891  19.261  0.00  0.00    +0.000 A 
ATOM      6  C   UNL     1      -0.108  15.415  18.668  0.00  0.00    +0.000 A 
ATOM      7  C   UNL     1      -0.500  14.095  18.889  0.00  0.00    +0.000 A 
ATOM      8  C   UNL     1       0.203  13.222  19.751  0.00  0.00    +0.000 A 
ENDBRANCH   1   8
BRANCH   1   9
ATOM      9  C   UNL     1       0.508  10.314  19.471  0.00  0.00    +0.000 A 
ATOM     10  C   UNL     1       1.196  10.485  18.257  0.00  0.00    +0.000 A 
ATOM     11  C   UNL     1       2.104   9.529  17.794  0.00  0.00    +0.000 A 
ATOM     12  C   UNL     1       2.347   8.378  18.535  0.00  0.00    +0.000 A 
ATOM     13  C   UNL     1       1.668   8.178  19.726  0.00  0.00    +0.000 A 
ATOM     14  C   UNL     1       0.752   9.130  20.212  0.00  0.00    +0.000 A 
ATOM     15  C   UNL     1       0.046   8.786  21.491  0.00  0.00    +0.000 C 
ENDBRANCH   1   9
BRANCH   1  16
ATOM     16  C   UNL     1      -2.230  11.564  19.167  0.00  0.00    +0.000 A 
ATOM     17  C   UNL     1      -3.337  12.316  19.588  0.00  0.00    +0.000 A 
ATOM     18  C   UNL     1      -4.628  12.043  19.122  0.00  0.00    +0.000 A 
ATOM     19  C   UNL     1      -4.843  11.013  18.216  0.00  0.00    +0.000 A 
ATOM     20  C   UNL     1      -3.755  10.308  17.718  0.00  0.00    +0.000 A 
ATOM     21  C   UNL     1      -2.460  10.605  18.162  0.00  0.00    +0.000 A 
ENDBRANCH   1  16
BRANCH   1  22
ATOM     22  C   UNL     1      -1.002  11.280  21.787  0.00  0.00    +0.000 C 
BRANCH  22  23
ATOM     23  C   UNL     1      -1.597  12.368  22.662  0.00  0.00    +0.000 A 
ATOM     24  C   UNL     1      -0.902  13.543  22.988  0.00  0.00    +0.000 A 
ATOM     25  C   UNL     1      -1.499  14.554  23.740  0.00  0.00    +0.000 A 
ATOM     26  C   UNL     1      -2.800  14.397  24.197  0.00  0.00    +0.000 A 
ATOM     27  C   UNL     1      -3.497  13.225  23.913  0.00  0.00    +0.000 A 
ATOM     28  C   UNL     1      -2.898  12.212  23.156  0.00  0.00    +0.000 A 
ENDBRANCH  22  23
ENDBRANCH   1  22
TORSDOF 5
ENDMDL
MODEL 8
REMARK VINA RESULT:      -5.8      1.891      5.363
REMARK  Name = 
REMARK  7 active torsions:
REMARK  status: ('A' for Active; 'I' for Inactive)
REMARK    1  A    between atoms: C_1  and  C_2
REMARK    2  A    between atoms: C_7  and  P_8
REMARK    3  A    between atoms: P_8  and  C_9
REMARK    4  A    between atoms: P_8  and  C_16
REMARK    5  A    between atoms: P_8  and  C_22
REMARK    6  A    between atoms: C_9  and  C_10
REMARK    7  A    between atoms: C_27  and  C_28
REMARK                            x       y       z     vdW  Elec       q    Type
REMARK                         _______ _______ _______ _____ _____    ______ ____
ROOT
ATOM      1  P   UNL     1      -1.551  13.208  21.473  0.00  0.00    +0.000 P 
ENDROOT
BRANCH   1   8
ATOM      2  C   UNL     1      -3.909  12.434  23.858  0.00  0.00    +0.000 C 
ATOM      3  C   UNL     1      -2.941  13.571  24.011  0.00  0.00    +0.000 A 
ATOM      4  C   UNL     1      -3.112  14.338  25.186  0.00  0.00    +0.000 A 
ATOM      5  C   UNL     1      -2.238  15.365  25.526  0.00  0.00    +0.000 A 
ATOM      6  C   UNL     1      -1.149  15.620  24.716  0.00  0.00    +0.000 A 
ATOM      7  C   UNL     1      -0.971  14.876  23.549  0.00  0.00    +0.000 A 
ATOM      8  C   UNL     1      -1.897  13.899  23.115  0.00  0.00    +0.000 A 
ENDBRANCH   1   8
BRANCH   1   9
ATOM      9  C   UNL     1      -0.945  11.518  21.684  0.00  0.00    +0.000 A 
ATOM     10  C   UNL     1      -0.809  11.004  22.987  0.00  0.00    +0.000 A 
ATOM     11  C   UNL     1      -0.386   9.692  23.212  0.00  0.00    +0.000 A 
ATOM     12  C   UNL     1      -0.091   8.858  22.139  0.00  0.00    +0.000 A 
ATOM     13  C   UNL     1      -0.200   9.346  20.847  0.00  0.00    +0.000 A 
ATOM     14  C   UNL     1      -0.628  10.664  20.598  0.00  0.00    +0.000 A 
ATOM     15  C   UNL     1      -0.667  11.093  19.160  0.00  0.00    +0.000 C 
ENDBRANCH   1   9
BRANCH   1  16
ATOM     16  C   UNL     1      -0.348  14.267  20.571  0.00  0.00    +0.000 A 
ATOM     17  C   UNL     1      -0.747  15.255  19.659  0.00  0.00    +0.000 A 
ATOM     18  C   UNL     1       0.160  15.837  18.766  0.00  0.00    +0.000 A 
ATOM     19  C   UNL     1       1.493  15.449  18.769  0.00  0.00    +0.000 A 
ATOM     20  C   UNL     1       1.933  14.535  19.717  0.00  0.00    +0.000 A 
ATOM     21  C   UNL     1       1.029  13.977  20.631  0.00  0.00    +0.000 A 
ENDBRANCH   1  16
BRANCH   1  22
ATOM     22  C   UNL     1      -3.014  13.123  20.374  0.00  0.00    +0.000 C 
BRANCH  22  23
ATOM     23  C   UNL     1      -4.268  13.910  20.709  0.00  0.00    +0.000 A 
ATOM     24  C   UNL     1      -5.532  13.310  20.824  0.00  0.00    +0.000 A 
ATOM     25  C   UNL     1      -6.654  14.048  21.197  0.00  0.00    +0.000 A 
ATOM     26  C   UNL     1      -6.534  15.408  21.444  0.00  0.00    +0.000 A 
ATOM     27  C   UNL     1      -5.296  16.031  21.304  0.00  0.00    +0.000 A 
ATOM     28  C   UNL     1      -4.170  15.289  20.932  0.00  0.00    +0.000 A 
ENDBRANCH  22  23
ENDBRANCH   1  22
TORSDOF 5
ENDMDL
MODEL 9
REMARK VINA RESULT:      -5.8      1.434      5.150
REMARK  Name = 
REMARK  7 active torsions:
REMARK  status: ('A' for Active; 'I' for Inactive)
REMARK    1  A    between atoms: C_1  and  C_2
REMARK    2  A    between atoms: C_7  and  P_8
REMARK    3  A    between atoms: P_8  and  C_9
REMARK    4  A    between atoms: P_8  and  C_16
REMARK    5  A    between atoms: P_8  and  C_22
REMARK    6  A    between atoms: C_9  and  C_10
REMARK    7  A    between atoms: C_27  and  C_28
REMARK                            x       y       z     vdW  Elec       q    Type
REMARK                         _______ _______ _______ _____ _____    ______ ____
ROOT
ATOM      1  P   UNL     1      -1.172  11.712  19.931  0.00  0.00    +0.000 P 
ENDROOT
BRANCH   1   8
ATOM      2  C   UNL     1       1.546  10.330  18.334  0.00  0.00    +0.000 C 
ATOM      3  C   UNL     1       0.950   9.742  19.580  0.00  0.00    +0.000 A 
ATOM      4  C   UNL     1       1.555   8.541  20.014  0.00  0.00    +0.000 A 
ATOM      5  C   UNL     1       1.186   7.921  21.203  0.00  0.00    +0.000 A 
ATOM      6  C   UNL     1       0.230   8.513  22.005  0.00  0.00    +0.000 A 
ATOM      7  C   UNL     1      -0.382   9.694  21.586  0.00  0.00    +0.000 A 
ATOM      8  C   UNL     1      -0.111  10.295  20.334  0.00  0.00    +0.000 A 
ENDBRANCH   1   8
BRANCH   1   9
ATOM      9  C   UNL     1      -2.212  11.259  18.523  0.00  0.00    +0.000 A 
ATOM     10  C   UNL     1      -1.652  10.493  17.485  0.00  0.00    +0.000 A 
ATOM     11  C   UNL     1      -2.416  10.077  16.393  0.00  0.00    +0.000 A 
ATOM     12  C   UNL     1      -3.763  10.415  16.311  0.00  0.00    +0.000 A 
ATOM     13  C   UNL     1      -4.334  11.184  17.312  0.00  0.00    +0.000 A 
ATOM     14  C   UNL     1      -3.582  11.610  18.423  0.00  0.00    +0.000 A 
ATOM     15  C   UNL     1      -4.297  12.473  19.422  0.00  0.00    +0.000 C 
ENDBRANCH   1   9
BRANCH   1  16
ATOM     16  C   UNL     1      -0.151  13.202  19.586  0.00  0.00    +0.000 A 
ATOM     17  C   UNL     1       1.041  13.476  20.273  0.00  0.00    +0.000 A 
ATOM     18  C   UNL     1       1.642  14.739  20.222  0.00  0.00    +0.000 A 
ATOM     19  C   UNL     1       1.067  15.759  19.476  0.00  0.00    +0.000 A 
ATOM     20  C   UNL     1      -0.065  15.492  18.719  0.00  0.00    +0.000 A 
ATOM     21  C   UNL     1      -0.647  14.217  18.746  0.00  0.00    +0.000 A 
ENDBRANCH   1  16
BRANCH   1  22
ATOM     22  C   UNL     1      -2.293  12.218  21.288  0.00  0.00    +0.000 C 
BRANCH  22  23
ATOM     23  C   UNL     1      -2.038  13.507  22.049  0.00  0.00    +0.000 A 
ATOM     24  C   UNL     1      -1.163  13.582  23.143  0.00  0.00    +0.000 A 
ATOM     25  C   UNL     1      -0.899  14.793  23.780  0.00  0.00    +0.000 A 
ATOM     26  C   UNL     1      -1.525  15.952  23.343  0.00  0.00    +0.000 A 
ATOM     27  C   UNL     1      -2.423  15.895  22.280  0.00  0.00    +0.000 A 
ATOM     28  C   UNL     1      -2.684  14.680  21.639  0.00  0.00    +0.000 A 
ENDBRANCH  22  23
ENDBRANCH   1  22
TORSDOF 5
ENDMDL
