MODEL 1
REMARK VINA RESULT:      -9.0      0.000      0.000
REMARK  Name = 
REMARK  6 active torsions:
REMARK  status: ('A' for Active; 'I' for Inactive)
REMARK    1  A    between atoms: C_1  and  N_2
REMARK    2  A    between atoms: N_6  and  C_7
REMARK    3  A    between atoms: C_7  and  C_8
REMARK    4  A    between atoms: C_11  and  N_12
REMARK    5  A    between atoms: C_13  and  C_15
REMARK    6  A    between atoms: C_25  and  C_26
REMARK                            x       y       z     vdW  Elec       q    Type
REMARK                         _______ _______ _______ _____ _____    ______ ____
ROOT
ATOM      1  C   UNL     1      -1.194  12.965  19.519  0.00  0.00    +0.000 C 
ENDROOT
BRANCH   1   7
ATOM      2  C   UNL     1      -2.623  13.732  23.892  0.00  0.00    +0.000 C 
ATOM      3  N   UNL     1      -3.749  12.861  23.648  0.00  0.00    +0.000 N 
ATOM      4  C   UNL     1      -4.084  12.704  22.310  0.00  0.00    +0.000 A 
ATOM      5  N   UNL     1      -3.143  12.733  21.366  0.00  0.00    +0.000 NA
ATOM      6  C   UNL     1      -3.524  12.549  20.088  0.00  0.00    +0.000 A 
ATOM      7  N   UNL     1      -2.545  12.657  19.087  0.00  0.00    +0.000 N 
ATOM      8  C   UNL     1      -4.866  12.283  19.718  0.00  0.00    +0.000 A 
ATOM      9  C   UNL     1      -5.388  11.968  18.410  0.00  0.00    +0.000 A 
ATOM     10  C   UNL     1      -4.519  11.709  17.204  0.00  0.00    +0.000 C 
ATOM     11  C   UNL     1      -6.774  11.886  18.213  0.00  0.00    +0.000 A 
ATOM     12  C   UNL     1      -7.640  12.018  19.286  0.00  0.00    +0.000 A 
ATOM     13  C   UNL     1      -7.120  12.219  20.564  0.00  0.00    +0.000 A 
ATOM     14  C   UNL     1      -5.761  12.354  20.797  0.00  0.00    +0.000 A 
ATOM     15  N   UNL     1      -5.383  12.557  22.061  0.00  0.00    +0.000 NA
ATOM     16  H   UNL     1      -4.609  13.111  24.124  0.00  0.00    +0.000 HD
ATOM     17  H   UNL     1      -2.865  13.335  18.401  0.00  0.00    +0.000 HD
ENDBRANCH   1   7
BRANCH   1  18
ATOM     18  C   UNL     1      -0.291  11.866  19.004  0.00  0.00    +0.000 A 
ATOM     19  C   UNL     1       1.089  12.073  18.912  0.00  0.00    +0.000 A 
ATOM     20  C   UNL     1       1.928  11.066  18.427  0.00  0.00    +0.000 A 
ATOM     21  C   UNL     1       1.408   9.837  18.018  0.00  0.00    +0.000 A 
ATOM     22  C   UNL     1       0.022   9.650  18.051  0.00  0.00    +0.000 A 
ATOM     23  C   UNL     1      -0.821  10.654  18.545  0.00  0.00    +0.000 A 
BRANCH  21  24
ATOM     24  N   UNL     1       2.212   8.768  17.558  0.00  0.00    +0.000 N 
ATOM     25  C   UNL     1       2.622   7.677  18.309  0.00  0.00    +0.000 C 
ATOM     26  O   UNL     1       2.320   7.453  19.477  0.00  0.00    +0.000 OA
ATOM     27  H   UNL     1       2.475   8.810  16.585  0.00  0.00    +0.000 HD
BRANCH  25  28
ATOM     28  C   UNL     1       3.515   6.691  17.633  0.00  0.00    +0.000 A 
ATOM     29  C   UNL     1       3.222   5.329  17.815  0.00  0.00    +0.000 A 
ATOM     30  C   UNL     1       4.003   4.344  17.206  0.00  0.00    +0.000 A 
ATOM     31  C   UNL     1       5.078   4.718  16.406  0.00  0.00    +0.000 A 
ATOM     32 CL   UNL     1       6.045   3.510  15.656  0.00  0.00    +0.000 Cl
ATOM     33  C   UNL     1       5.372   6.068  16.204  0.00  0.00    +0.000 A 
ATOM     34  C   UNL     1       4.589   7.057  16.812  0.00  0.00    +0.000 A 
ENDBRANCH  25  28
ENDBRANCH  21  24
ENDBRANCH   1  18
TORSDOF 4
ENDMDL
MODEL 2
REMARK VINA RESULT:      -8.7      4.765     10.968
REMARK  Name = 
REMARK  6 active torsions:
REMARK  status: ('A' for Active; 'I' for Inactive)
REMARK    1  A    between atoms: C_1  and  N_2
REMARK    2  A    between atoms: N_6  and  C_7
REMARK    3  A    between atoms: C_7  and  C_8
REMARK    4  A    between atoms: C_11  and  N_12
REMARK    5  A    between atoms: C_13  and  C_15
REMARK    6  A    between atoms: C_25  and  C_26
REMARK                            x       y       z     vdW  Elec       q    Type
REMARK                         _______ _______ _______ _____ _____    ______ ____
ROOT
ATOM      1  C   UNL     1       2.511   7.767  18.257  0.00  0.00    +0.000 C 
ENDROOT
BRANCH   1   7
ATOM      2  C   UNL     1       6.995   6.951  17.266  0.00  0.00    +0.000 C 
ATOM      3  N   UNL     1       6.727   5.535  17.348  0.00  0.00    +0.000 N 
ATOM      4  C   UNL     1       5.605   5.196  18.091  0.00  0.00    +0.000 A 
ATOM      5  N   UNL     1       4.543   6.002  18.124  0.00  0.00    +0.000 NA
ATOM      6  C   UNL     1       3.474   5.609  18.842  0.00  0.00    +0.000 A 
ATOM      7  N   UNL     1       2.387   6.492  18.939  0.00  0.00    +0.000 N 
ATOM      8  C   UNL     1       3.419   4.364  19.517  0.00  0.00    +0.000 A 
ATOM      9  C   UNL     1       2.306   3.781  20.229  0.00  0.00    +0.000 A 
ATOM     10  C   UNL     1       0.917   4.368  20.232  0.00  0.00    +0.000 C 
ATOM     11  C   UNL     1       2.491   2.604  20.967  0.00  0.00    +0.000 A 
ATOM     12  C   UNL     1       3.711   1.949  20.942  0.00  0.00    +0.000 A 
ATOM     13  C   UNL     1       4.749   2.465  20.168  0.00  0.00    +0.000 A 
ATOM     14  C   UNL     1       4.625   3.651  19.462  0.00  0.00    +0.000 A 
ATOM     15  N   UNL     1       5.692   4.053  18.766  0.00  0.00    +0.000 NA
ATOM     16  H   UNL     1       7.484   4.965  17.708  0.00  0.00    +0.000 HD
ATOM     17  H   UNL     1       2.179   6.632  19.924  0.00  0.00    +0.000 HD
ENDBRANCH   1   7
BRANCH   1  18
ATOM     18  C   UNL     1       1.722   8.785  19.051  0.00  0.00    +0.000 A 
ATOM     19  C   UNL     1       1.349   8.512  20.371  0.00  0.00    +0.000 A 
ATOM     20  C   UNL     1       0.610   9.442  21.108  0.00  0.00    +0.000 A 
ATOM     21  C   UNL     1       0.224  10.658  20.542  0.00  0.00    +0.000 A 
ATOM     22  C   UNL     1       0.542  10.907  19.203  0.00  0.00    +0.000 A 
ATOM     23  C   UNL     1       1.290   9.980  18.464  0.00  0.00    +0.000 A 
BRANCH  21  24
ATOM     24  N   UNL     1      -0.488  11.654  21.252  0.00  0.00    +0.000 N 
ATOM     25  C   UNL     1      -0.818  11.614  22.598  0.00  0.00    +0.000 C 
ATOM     26  O   UNL     1      -0.513  10.727  23.388  0.00  0.00    +0.000 OA
ATOM     27  H   UNL     1      -0.742  12.470  20.716  0.00  0.00    +0.000 HD
BRANCH  25  28
ATOM     28  C   UNL     1      -1.622  12.754  23.128  0.00  0.00    +0.000 A 
ATOM     29  C   UNL     1      -2.961  12.493  23.463  0.00  0.00    +0.000 A 
ATOM     30  C   UNL     1      -3.777  13.504  23.977  0.00  0.00    +0.000 A 
ATOM     31  C   UNL     1      -3.255  14.780  24.163  0.00  0.00    +0.000 A 
ATOM     32 CL   UNL     1      -4.255  16.029  24.793  0.00  0.00    +0.000 Cl
ATOM     33  C   UNL     1      -1.922  15.050  23.847  0.00  0.00    +0.000 A 
ATOM     34  C   UNL     1      -1.102  14.037  23.333  0.00  0.00    +0.000 A 
ENDBRANCH  25  28
ENDBRANCH  21  24
ENDBRANCH   1  18
TORSDOF 4
ENDMDL
MODEL 3
REMARK VINA RESULT:      -8.5      1.028      1.072
REMARK  Name = 
REMARK  6 active torsions:
REMARK  status: ('A' for Active; 'I' for Inactive)
REMARK    1  A    between atoms: C_1  and  N_2
REMARK    2  A    between atoms: N_6  and  C_7
REMARK    3  A    between atoms: C_7  and  C_8
REMARK    4  A    between atoms: C_11  and  N_12
REMARK    5  A    between atoms: C_13  and  C_15
REMARK    6  A    between atoms: C_25  and  C_26
REMARK                            x       y       z     vdW  Elec       q    Type
REMARK                         _______ _______ _______ _____ _____    ______ ____
ROOT
ATOM      1  C   UNL     1      -1.702  12.084  20.530  0.00  0.00    +0.000 C 
ENDROOT
BRANCH   1   7
ATOM      2  C   UNL     1      -4.028  13.932  24.125  0.00  0.00    +0.000 C 
ATOM      3  N   UNL     1      -5.252  13.408  23.568  0.00  0.00    +0.000 N 
ATOM      4  C   UNL     1      -5.206  13.145  22.206  0.00  0.00    +0.000 A 
ATOM      5  N   UNL     1      -4.073  12.741  21.630  0.00  0.00    +0.000 NA
ATOM      6  C   UNL     1      -4.095  12.476  20.310  0.00  0.00    +0.000 A 
ATOM      7  N   UNL     1      -2.885  12.126  19.690  0.00  0.00    +0.000 N 
ATOM      8  C   UNL     1      -5.274  12.565  19.529  0.00  0.00    +0.000 A 
ATOM      9  C   UNL     1      -5.456  12.213  18.141  0.00  0.00    +0.000 A 
ATOM     10  C   UNL     1      -4.406  11.518  17.311  0.00  0.00    +0.000 C 
ATOM     11  C   UNL     1      -6.665  12.517  17.498  0.00  0.00    +0.000 A 
ATOM     12  C   UNL     1      -7.715  13.070  18.211  0.00  0.00    +0.000 A 
ATOM     13  C   UNL     1      -7.564  13.310  19.576  0.00  0.00    +0.000 A 
ATOM     14  C   UNL     1      -6.372  13.070  20.241  0.00  0.00    +0.000 A 
ATOM     15  N   UNL     1      -6.342  13.352  21.546  0.00  0.00    +0.000 NA
ATOM     16  H   UNL     1      -6.080  13.975  23.715  0.00  0.00    +0.000 HD
ATOM     17  H   UNL     1      -2.741  12.749  18.900  0.00  0.00    +0.000 HD
ENDBRANCH   1   7
BRANCH   1  18
ATOM     18  C   UNL     1      -0.736  11.103  19.904  0.00  0.00    +0.000 A 
ATOM     19  C   UNL     1       0.273  10.518  20.677  0.00  0.00    +0.000 A 
ATOM     20  C   UNL     1       1.177   9.619  20.103  0.00  0.00    +0.000 A 
ATOM     21  C   UNL     1       1.097   9.291  18.749  0.00  0.00    +0.000 A 
ATOM     22  C   UNL     1       0.129   9.921  17.961  0.00  0.00    +0.000 A 
ATOM     23  C   UNL     1      -0.784  10.816  18.534  0.00  0.00    +0.000 A 
BRANCH  21  24
ATOM     24  N   UNL     1       1.957   8.358  18.124  0.00  0.00    +0.000 N 
ATOM     25  C   UNL     1       2.482   7.216  18.710  0.00  0.00    +0.000 C 
ATOM     26  O   UNL     1       2.252   6.821  19.849  0.00  0.00    +0.000 OA
ATOM     27  H   UNL     1       2.170   8.545  17.156  0.00  0.00    +0.000 HD
BRANCH  25  28
ATOM     28  C   UNL     1       3.414   6.399  17.879  0.00  0.00    +0.000 A 
ATOM     29  C   UNL     1       3.238   5.006  17.899  0.00  0.00    +0.000 A 
ATOM     30  C   UNL     1       4.063   4.173  17.139  0.00  0.00    +0.000 A 
ATOM     31  C   UNL     1       5.063   4.732  16.350  0.00  0.00    +0.000 A 
ATOM     32 CL   UNL     1       6.083   3.711  15.414  0.00  0.00    +0.000 Cl
ATOM     33  C   UNL     1       5.240   6.116  16.309  0.00  0.00    +0.000 A 
ATOM     34  C   UNL     1       4.413   6.953  17.070  0.00  0.00    +0.000 A 
ENDBRANCH  25  28
ENDBRANCH  21  24
ENDBRANCH   1  18
TORSDOF 4
ENDMDL
MODEL 4
REMARK VINA RESULT:      -8.4      4.503     10.970
REMARK  Name = 
REMARK  6 active torsions:
REMARK  status: ('A' for Active; 'I' for Inactive)
REMARK    1  A    between atoms: C_1  and  N_2
REMARK    2  A    between atoms: N_6  and  C_7
REMARK    3  A    between atoms: C_7  and  C_8
REMARK    4  A    between atoms: C_11  and  N_12
REMARK    5  A    between atoms: C_13  and  C_15
REMARK    6  A    between atoms: C_25  and  C_26
REMARK                            x       y       z     vdW  Elec       q    Type
REMARK                         _______ _______ _______ _____ _____    ______ ____
ROOT
ATOM      1  C   UNL     1       2.620   7.880  18.388  0.00  0.00    +0.000 C 
ENDROOT
BRANCH   1   7
ATOM      2  C   UNL     1       7.049   6.931  17.274  0.00  0.00    +0.000 C 
ATOM      3  N   UNL     1       6.734   5.524  17.334  0.00  0.00    +0.000 N 
ATOM      4  C   UNL     1       5.619   5.209  18.098  0.00  0.00    +0.000 A 
ATOM      5  N   UNL     1       4.586   6.050  18.172  0.00  0.00    +0.000 NA
ATOM      6  C   UNL     1       3.521   5.679  18.907  0.00  0.00    +0.000 A 
ATOM      7  N   UNL     1       2.468   6.596  19.048  0.00  0.00    +0.000 N 
ATOM      8  C   UNL     1       3.439   4.423  19.559  0.00  0.00    +0.000 A 
ATOM      9  C   UNL     1       2.324   3.864  20.286  0.00  0.00    +0.000 A 
ATOM     10  C   UNL     1       0.956   4.498  20.334  0.00  0.00    +0.000 C 
ATOM     11  C   UNL     1       2.485   2.666  20.997  0.00  0.00    +0.000 A 
ATOM     12  C   UNL     1       3.681   1.971  20.930  0.00  0.00    +0.000 A 
ATOM     13  C   UNL     1       4.718   2.467  20.141  0.00  0.00    +0.000 A 
ATOM     14  C   UNL     1       4.619   3.670  19.462  0.00  0.00    +0.000 A 
ATOM     15  N   UNL     1       5.682   4.050  18.748  0.00  0.00    +0.000 NA
ATOM     16  H   UNL     1       7.480   4.921  17.665  0.00  0.00    +0.000 HD
ATOM     17  H   UNL     1       2.288   6.723  20.040  0.00  0.00    +0.000 HD
ENDBRANCH   1   7
BRANCH   1  18
ATOM     18  C   UNL     1       1.579   8.813  18.966  0.00  0.00    +0.000 A 
ATOM     19  C   UNL     1       1.098   9.886  18.208  0.00  0.00    +0.000 A 
ATOM     20  C   UNL     1       0.145  10.760  18.740  0.00  0.00    +0.000 A 
ATOM     21  C   UNL     1      -0.341  10.586  20.036  0.00  0.00    +0.000 A 
ATOM     22  C   UNL     1       0.184   9.551  20.817  0.00  0.00    +0.000 A 
ATOM     23  C   UNL     1       1.133   8.668  20.285  0.00  0.00    +0.000 A 
BRANCH  21  24
ATOM     24  N   UNL     1      -1.335  11.412  20.610  0.00  0.00    +0.000 N 
ATOM     25  C   UNL     1      -1.156  12.279  21.678  0.00  0.00    +0.000 C 
ATOM     26  O   UNL     1      -0.099  12.488  22.265  0.00  0.00    +0.000 OA
ATOM     27  H   UNL     1      -2.241  11.372  20.168  0.00  0.00    +0.000 HD
BRANCH  25  28
ATOM     28  C   UNL     1      -2.361  13.017  22.156  0.00  0.00    +0.000 A 
ATOM     29  C   UNL     1      -2.965  12.561  23.340  0.00  0.00    +0.000 A 
ATOM     30  C   UNL     1      -4.089  13.205  23.860  0.00  0.00    +0.000 A 
ATOM     31  C   UNL     1      -4.612  14.313  23.201  0.00  0.00    +0.000 A 
ATOM     32 CL   UNL     1      -5.998  15.109  23.836  0.00  0.00    +0.000 Cl
ATOM     33  C   UNL     1      -4.014  14.787  22.033  0.00  0.00    +0.000 A 
ATOM     34  C   UNL     1      -2.885  14.143  21.510  0.00  0.00    +0.000 A 
ENDBRANCH  25  28
ENDBRANCH  21  24
ENDBRANCH   1  18
TORSDOF 4
ENDMDL
MODEL 5
REMARK VINA RESULT:      -8.4      4.928     10.996
REMARK  Name = 
REMARK  6 active torsions:
REMARK  status: ('A' for Active; 'I' for Inactive)
REMARK    1  A    between atoms: C_1  and  N_2
REMARK    2  A    between atoms: N_6  and  C_7
REMARK    3  A    between atoms: C_7  and  C_8
REMARK    4  A    between atoms: C_11  and  N_12
REMARK    5  A    between atoms: C_13  and  C_15
REMARK    6  A    between atoms: C_25  and  C_26
REMARK                            x       y       z     vdW  Elec       q    Type
REMARK                         _______ _______ _______ _____ _____    ______ ____
ROOT
ATOM      1  C   UNL     1       2.503   6.440  19.711  0.00  0.00    +0.000 C 
ENDROOT
BRANCH   1   7
ATOM      2  C   UNL     1       1.071   2.106  18.751  0.00  0.00    +0.000 C 
ATOM      3  N   UNL     1       2.408   1.791  18.310  0.00  0.00    +0.000 N 
ATOM      4  C   UNL     1       3.172   2.888  17.937  0.00  0.00    +0.000 A 
ATOM      5  N   UNL     1       3.011   4.066  18.542  0.00  0.00    +0.000 NA
ATOM      6  C   UNL     1       3.798   5.087  18.156  0.00  0.00    +0.000 A 
ATOM      7  N   UNL     1       3.576   6.345  18.738  0.00  0.00    +0.000 N 
ATOM      8  C   UNL     1       4.812   4.946  17.174  0.00  0.00    +0.000 A 
ATOM      9  C   UNL     1       5.784   5.924  16.746  0.00  0.00    +0.000 A 
ATOM     10  C   UNL     1       5.978   7.259  17.420  0.00  0.00    +0.000 C 
ATOM     11  C   UNL     1       6.611   5.649  15.648  0.00  0.00    +0.000 A 
ATOM     12  C   UNL     1       6.562   4.411  15.030  0.00  0.00    +0.000 A 
ATOM     13  C   UNL     1       5.693   3.437  15.518  0.00  0.00    +0.000 A 
ATOM     14  C   UNL     1       4.823   3.681  16.569  0.00  0.00    +0.000 A 
ATOM     15  N   UNL     1       4.027   2.675  16.939  0.00  0.00    +0.000 NA
ATOM     16  H   UNL     1       2.473   1.131  17.542  0.00  0.00    +0.000 HD
ATOM     17  H   UNL     1       3.442   7.022  17.991  0.00  0.00    +0.000 HD
ENDBRANCH   1   7
BRANCH   1  18
ATOM     18  C   UNL     1       1.949   7.846  19.640  0.00  0.00    +0.000 A 
ATOM     19  C   UNL     1       1.278   8.394  20.738  0.00  0.00    +0.000 A 
ATOM     20  C   UNL     1       0.754   9.689  20.676  0.00  0.00    +0.000 A 
ATOM     21  C   UNL     1       0.881  10.458  19.518  0.00  0.00    +0.000 A 
ATOM     22  C   UNL     1       1.498   9.889  18.399  0.00  0.00    +0.000 A 
ATOM     23  C   UNL     1       2.032   8.595  18.460  0.00  0.00    +0.000 A 
BRANCH  21  24
ATOM     24  N   UNL     1       0.408  11.786  19.413  0.00  0.00    +0.000 N 
ATOM     25  C   UNL     1       0.863  12.873  20.144  0.00  0.00    +0.000 C 
ATOM     26  O   UNL     1       1.770  12.855  20.970  0.00  0.00    +0.000 OA
ATOM     27  H   UNL     1      -0.304  11.938  18.714  0.00  0.00    +0.000 HD
BRANCH  25  28
ATOM     28  C   UNL     1       0.180  14.178  19.907  0.00  0.00    +0.000 A 
ATOM     29  C   UNL     1       0.735  15.025  18.932  0.00  0.00    +0.000 A 
ATOM     30  C   UNL     1       0.147  16.258  18.643  0.00  0.00    +0.000 A 
ATOM     31  C   UNL     1      -1.002  16.649  19.323  0.00  0.00    +0.000 A 
ATOM     32 CL   UNL     1      -1.727  18.168  18.972  0.00  0.00    +0.000 Cl
ATOM     33  C   UNL     1      -1.572  15.811  20.283  0.00  0.00    +0.000 A 
ATOM     34  C   UNL     1      -0.986  14.573  20.574  0.00  0.00    +0.000 A 
ENDBRANCH  25  28
ENDBRANCH  21  24
ENDBRANCH   1  18
TORSDOF 4
ENDMDL
MODEL 6
REMARK VINA RESULT:      -8.3      4.814     10.992
REMARK  Name = 
REMARK  6 active torsions:
REMARK  status: ('A' for Active; 'I' for Inactive)
REMARK    1  A    between atoms: C_1  and  N_2
REMARK    2  A    between atoms: N_6  and  C_7
REMARK    3  A    between atoms: C_7  and  C_8
REMARK    4  A    between atoms: C_11  and  N_12
REMARK    5  A    between atoms: C_13  and  C_15
REMARK    6  A    between atoms: C_25  and  C_26
REMARK                            x       y       z     vdW  Elec       q    Type
REMARK                         _______ _______ _______ _____ _____    ______ ____
ROOT
ATOM      1  C   UNL     1       2.446   7.786  18.262  0.00  0.00    +0.000 C 
ENDROOT
BRANCH   1   7
ATOM      2  C   UNL     1       6.905   6.942  17.190  0.00  0.00    +0.000 C 
ATOM      3  N   UNL     1       6.633   5.528  17.290  0.00  0.00    +0.000 N 
ATOM      4  C   UNL     1       5.525   5.200  18.058  0.00  0.00    +0.000 A 
ATOM      5  N   UNL     1       4.467   6.011  18.105  0.00  0.00    +0.000 NA
ATOM      6  C   UNL     1       3.411   5.629  18.847  0.00  0.00    +0.000 A 
ATOM      7  N   UNL     1       2.329   6.518  18.958  0.00  0.00    +0.000 N 
ATOM      8  C   UNL     1       3.363   4.390  19.534  0.00  0.00    +0.000 A 
ATOM      9  C   UNL     1       2.263   3.819  20.273  0.00  0.00    +0.000 A 
ATOM     10  C   UNL     1       0.876   4.412  20.298  0.00  0.00    +0.000 C 
ATOM     11  C   UNL     1       2.458   2.647  21.018  0.00  0.00    +0.000 A 
ATOM     12  C   UNL     1       3.674   1.987  20.975  0.00  0.00    +0.000 A 
ATOM     13  C   UNL     1       4.698   2.491  20.175  0.00  0.00    +0.000 A 
ATOM     14  C   UNL     1       4.566   3.672  19.462  0.00  0.00    +0.000 A 
ATOM     15  N   UNL     1       5.620   4.063  18.742  0.00  0.00    +0.000 NA
ATOM     16  H   UNL     1       7.395   4.957  17.640  0.00  0.00    +0.000 HD
ATOM     17  H   UNL     1       2.141   6.668  19.946  0.00  0.00    +0.000 HD
ENDBRANCH   1   7
BRANCH   1  18
ATOM     18  C   UNL     1       1.642   8.805  19.040  0.00  0.00    +0.000 A 
ATOM     19  C   UNL     1       1.222   9.989  18.425  0.00  0.00    +0.000 A 
ATOM     20  C   UNL     1       0.489  10.941  19.140  0.00  0.00    +0.000 A 
ATOM     21  C   UNL     1       0.168  10.735  20.483  0.00  0.00    +0.000 A 
ATOM     22  C   UNL     1       0.640   9.581  21.117  0.00  0.00    +0.000 A 
ATOM     23  C   UNL     1       1.367   8.621  20.401  0.00  0.00    +0.000 A 
BRANCH  21  24
ATOM     24  N   UNL     1      -0.605  11.642  21.244  0.00  0.00    +0.000 N 
ATOM     25  C   UNL     1      -0.146  12.814  21.825  0.00  0.00    +0.000 C 
ATOM     26  O   UNL     1       0.992  13.263  21.738  0.00  0.00    +0.000 OA
ATOM     27  H   UNL     1      -1.583  11.409  21.334  0.00  0.00    +0.000 HD
BRANCH  25  28
ATOM     28  C   UNL     1      -1.128  13.595  22.633  0.00  0.00    +0.000 A 
ATOM     29  C   UNL     1      -0.798  14.928  22.931  0.00  0.00    +0.000 A 
ATOM     30  C   UNL     1      -1.670  15.729  23.673  0.00  0.00    +0.000 A 
ATOM     31  C   UNL     1      -2.878  15.201  24.116  0.00  0.00    +0.000 A 
ATOM     32 CL   UNL     1      -3.954  16.182  25.032  0.00  0.00    +0.000 Cl
ATOM     33  C   UNL     1      -3.225  13.883  23.815  0.00  0.00    +0.000 A 
ATOM     34  C   UNL     1      -2.354  13.078  23.070  0.00  0.00    +0.000 A 
ENDBRANCH  25  28
ENDBRANCH  21  24
ENDBRANCH   1  18
TORSDOF 4
ENDMDL
MODEL 7
REMARK VINA RESULT:      -8.3      4.966     10.958
REMARK  Name = 
REMARK  6 active torsions:
REMARK  status: ('A' for Active; 'I' for Inactive)
REMARK    1  A    between atoms: C_1  and  N_2
REMARK    2  A    between atoms: N_6  and  C_7
REMARK    3  A    between atoms: C_7  and  C_8
REMARK    4  A    between atoms: C_11  and  N_12
REMARK    5  A    between atoms: C_13  and  C_15
REMARK    6  A    between atoms: C_25  and  C_26
REMARK                            x       y       z     vdW  Elec       q    Type
REMARK                         _______ _______ _______ _____ _____    ______ ____
ROOT
ATOM      1  C   UNL     1       2.391   6.567  19.664  0.00  0.00    +0.000 C 
ENDROOT
BRANCH   1   7
ATOM      2  C   UNL     1       0.924   2.231  18.774  0.00  0.00    +0.000 C 
ATOM      3  N   UNL     1       2.268   1.887  18.375  0.00  0.00    +0.000 N 
ATOM      4  C   UNL     1       3.057   2.964  17.995  0.00  0.00    +0.000 A 
ATOM      5  N   UNL     1       2.896   4.159  18.567  0.00  0.00    +0.000 NA
ATOM      6  C   UNL     1       3.707   5.159  18.176  0.00  0.00    +0.000 A 
ATOM      7  N   UNL     1       3.487   6.435  18.722  0.00  0.00    +0.000 N 
ATOM      8  C   UNL     1       4.743   4.981  17.226  0.00  0.00    +0.000 A 
ATOM      9  C   UNL     1       5.739   5.935  16.799  0.00  0.00    +0.000 A 
ATOM     10  C   UNL     1       5.935   7.284  17.444  0.00  0.00    +0.000 C 
ATOM     11  C   UNL     1       6.591   5.622  15.730  0.00  0.00    +0.000 A 
ATOM     12  C   UNL     1       6.541   4.369  15.142  0.00  0.00    +0.000 A 
ATOM     13  C   UNL     1       5.646   3.419  15.630  0.00  0.00    +0.000 A 
ATOM     14  C   UNL     1       4.753   3.701  16.652  0.00  0.00    +0.000 A 
ATOM     15  N   UNL     1       3.933   2.716  17.026  0.00  0.00    +0.000 NA
ATOM     16  H   UNL     1       2.344   1.207  17.626  0.00  0.00    +0.000 HD
ATOM     17  H   UNL     1       3.382   7.094  17.955  0.00  0.00    +0.000 HD
ENDBRANCH   1   7
BRANCH   1  18
ATOM     18  C   UNL     1       1.859   7.979  19.544  0.00  0.00    +0.000 A 
ATOM     19  C   UNL     1       2.047   8.704  18.362  0.00  0.00    +0.000 A 
ATOM     20  C   UNL     1       1.568  10.012  18.248  0.00  0.00    +0.000 A 
ATOM     21  C   UNL     1       0.900  10.625  19.309  0.00  0.00    +0.000 A 
ATOM     22  C   UNL     1       0.765   9.924  20.512  0.00  0.00    +0.000 A 
ATOM     23  C   UNL     1       1.236   8.609  20.628  0.00  0.00    +0.000 A 
BRANCH  21  24
ATOM     24  N   UNL     1       0.358  11.929  19.236  0.00  0.00    +0.000 N 
ATOM     25  C   UNL     1       0.899  13.068  19.813  0.00  0.00    +0.000 C 
ATOM     26  O   UNL     1       1.949  13.126  20.445  0.00  0.00    +0.000 OA
ATOM     27  H   UNL     1      -0.482  12.020  18.685  0.00  0.00    +0.000 HD
BRANCH  25  28
ATOM     28  C   UNL     1       0.128  14.336  19.653  0.00  0.00    +0.000 A 
ATOM     29  C   UNL     1      -0.915  14.572  20.565  0.00  0.00    +0.000 A 
ATOM     30  C   UNL     1      -1.676  15.740  20.490  0.00  0.00    +0.000 A 
ATOM     31  C   UNL     1      -1.394  16.681  19.505  0.00  0.00    +0.000 A 
ATOM     32 CL   UNL     1      -2.330  18.121  19.407  0.00  0.00    +0.000 Cl
ATOM     33  C   UNL     1      -0.352  16.467  18.602  0.00  0.00    +0.000 A 
ATOM     34  C   UNL     1       0.414  15.297  18.676  0.00  0.00    +0.000 A 
ENDBRANCH  25  28
ENDBRANCH  21  24
ENDBRANCH   1  18
TORSDOF 4
ENDMDL
MODEL 8
REMARK VINA RESULT:      -8.2      4.548     10.950
REMARK  Name = 
REMARK  6 active torsions:
REMARK  status: ('A' for Active; 'I' for Inactive)
REMARK    1  A    between atoms: C_1  and  N_2
REMARK    2  A    between atoms: N_6  and  C_7
REMARK    3  A    between atoms: C_7  and  C_8
REMARK    4  A    between atoms: C_11  and  N_12
REMARK    5  A    between atoms: C_13  and  C_15
REMARK    6  A    between atoms: C_25  and  C_26
REMARK                            x       y       z     vdW  Elec       q    Type
REMARK                         _______ _______ _______ _____ _____    ______ ____
ROOT
ATOM      1  C   UNL     1       2.744   7.782  18.622  0.00  0.00    +0.000 C 
ENDROOT
BRANCH   1   7
ATOM      2  C   UNL     1       6.064   6.268  15.717  0.00  0.00    +0.000 C 
ATOM      3  N   UNL     1       5.358   5.013  15.608  0.00  0.00    +0.000 N 
ATOM      4  C   UNL     1       4.500   4.734  16.663  0.00  0.00    +0.000 A 
ATOM      5  N   UNL     1       3.863   5.719  17.299  0.00  0.00    +0.000 NA
ATOM      6  C   UNL     1       3.023   5.386  18.297  0.00  0.00    +0.000 A 
ATOM      7  N   UNL     1       2.412   6.425  19.016  0.00  0.00    +0.000 N 
ATOM      8  C   UNL     1       2.759   4.041  18.662  0.00  0.00    +0.000 A 
ATOM      9  C   UNL     1       1.813   3.548  19.634  0.00  0.00    +0.000 A 
ATOM     10  C   UNL     1       0.802   4.421  20.334  0.00  0.00    +0.000 C 
ATOM     11  C   UNL     1       1.805   2.186  19.968  0.00  0.00    +0.000 A 
ATOM     12  C   UNL     1       2.637   1.299  19.306  0.00  0.00    +0.000 A 
ATOM     13  C   UNL     1       3.473   1.771  18.295  0.00  0.00    +0.000 A 
ATOM     14  C   UNL     1       3.549   3.114  17.966  0.00  0.00    +0.000 A 
ATOM     15  N   UNL     1       4.397   3.449  16.989  0.00  0.00    +0.000 NA
ATOM     16  H   UNL     1       5.941   4.190  15.496  0.00  0.00    +0.000 HD
ATOM     17  H   UNL     1       2.602   6.282  20.004  0.00  0.00    +0.000 HD
ENDBRANCH   1   7
BRANCH   1  18
ATOM     18  C   UNL     1       1.706   8.698  19.232  0.00  0.00    +0.000 A 
ATOM     19  C   UNL     1       1.170   8.414  20.492  0.00  0.00    +0.000 A 
ATOM     20  C   UNL     1       0.201   9.250  21.057  0.00  0.00    +0.000 A 
ATOM     21  C   UNL     1      -0.257  10.377  20.374  0.00  0.00    +0.000 A 
ATOM     22  C   UNL     1       0.232  10.628  19.088  0.00  0.00    +0.000 A 
ATOM     23  C   UNL     1       1.209   9.798  18.522  0.00  0.00    +0.000 A 
BRANCH  21  24
ATOM     24  N   UNL     1      -1.203  11.280  20.913  0.00  0.00    +0.000 N 
ATOM     25  C   UNL     1      -1.239  11.736  22.221  0.00  0.00    +0.000 C 
ATOM     26  O   UNL     1      -0.435  11.455  23.104  0.00  0.00    +0.000 OA
ATOM     27  H   UNL     1      -1.887  11.632  20.259  0.00  0.00    +0.000 HD
BRANCH  25  28
ATOM     28  C   UNL     1      -2.364  12.647  22.587  0.00  0.00    +0.000 A 
ATOM     29  C   UNL     1      -3.207  12.238  23.634  0.00  0.00    +0.000 A 
ATOM     30  C   UNL     1      -4.274  13.040  24.043  0.00  0.00    +0.000 A 
ATOM     31  C   UNL     1      -4.500  14.258  23.411  0.00  0.00    +0.000 A 
ATOM     32 CL   UNL     1      -5.815  15.248  23.910  0.00  0.00    +0.000 Cl
ATOM     33  C   UNL     1      -3.662  14.684  22.379  0.00  0.00    +0.000 A 
ATOM     34  C   UNL     1      -2.590  13.882  21.968  0.00  0.00    +0.000 A 
ENDBRANCH  25  28
ENDBRANCH  21  24
ENDBRANCH   1  18
TORSDOF 4
ENDMDL
MODEL 9
REMARK VINA RESULT:      -8.2      1.485      3.194
REMARK  Name = 
REMARK  6 active torsions:
REMARK  status: ('A' for Active; 'I' for Inactive)
REMARK    1  A    between atoms: C_1  and  N_2
REMARK    2  A    between atoms: N_6  and  C_7
REMARK    3  A    between atoms: C_7  and  C_8
REMARK    4  A    between atoms: C_11  and  N_12
REMARK    5  A    between atoms: C_13  and  C_15
REMARK    6  A    between atoms: C_25  and  C_26
REMARK                            x       y       z     vdW  Elec       q    Type
REMARK                         _______ _______ _______ _____ _____    ______ ____
ROOT
ATOM      1  C   UNL     1      -2.242  12.189  18.755  0.00  0.00    +0.000 C 
ENDROOT
BRANCH   1   7
ATOM      2  C   UNL     1      -6.738  12.902  17.740  0.00  0.00    +0.000 C 
ATOM      3  N   UNL     1      -6.891  13.569  19.011  0.00  0.00    +0.000 N 
ATOM      4  C   UNL     1      -5.938  13.234  19.963  0.00  0.00    +0.000 A 
ATOM      5  N   UNL     1      -4.690  12.934  19.599  0.00  0.00    +0.000 NA
ATOM      6  C   UNL     1      -3.803  12.643  20.568  0.00  0.00    +0.000 A 
ATOM      7  N   UNL     1      -2.511  12.252  20.180  0.00  0.00    +0.000 N 
ATOM      8  C   UNL     1      -4.128  12.689  21.947  0.00  0.00    +0.000 A 
ATOM      9  C   UNL     1      -3.253  12.502  23.079  0.00  0.00    +0.000 A 
ATOM     10  C   UNL     1      -1.755  12.376  22.965  0.00  0.00    +0.000 C 
ATOM     11  C   UNL     1      -3.792  12.432  24.372  0.00  0.00    +0.000 A 
ATOM     12  C   UNL     1      -5.147  12.631  24.575  0.00  0.00    +0.000 A 
ATOM     13  C   UNL     1      -5.968  12.914  23.484  0.00  0.00    +0.000 A 
ATOM     14  C   UNL     1      -5.487  12.944  22.185  0.00  0.00    +0.000 A 
ATOM     15  N   UNL     1      -6.371  13.213  21.221  0.00  0.00    +0.000 NA
ATOM     16  H   UNL     1      -7.792  13.451  19.464  0.00  0.00    +0.000 HD
ATOM     17  H   UNL     1      -2.302  11.361  20.624  0.00  0.00    +0.000 HD
ENDBRANCH   1   7
BRANCH   1  18
ATOM     18  C   UNL     1      -1.076  11.245  18.555  0.00  0.00    +0.000 A 
ATOM     19  C   UNL     1       0.168  11.534  19.126  0.00  0.00    +0.000 A 
ATOM     20  C   UNL     1       1.253  10.673  18.936  0.00  0.00    +0.000 A 
ATOM     21  C   UNL     1       1.121   9.514  18.170  0.00  0.00    +0.000 A 
ATOM     22  C   UNL     1      -0.105   9.256  17.548  0.00  0.00    +0.000 A 
ATOM     23  C   UNL     1      -1.197  10.112  17.742  0.00  0.00    +0.000 A 
BRANCH  21  24
ATOM     24  N   UNL     1       2.172   8.586  17.978  0.00  0.00    +0.000 N 
ATOM     25  C   UNL     1       2.475   7.518  18.808  0.00  0.00    +0.000 C 
ATOM     26  O   UNL     1       1.857   7.192  19.817  0.00  0.00    +0.000 OA
ATOM     27  H   UNL     1       2.718   8.716  17.139  0.00  0.00    +0.000 HD
BRANCH  25  28
ATOM     28  C   UNL     1       3.665   6.696  18.441  0.00  0.00    +0.000 A 
ATOM     29  C   UNL     1       4.312   7.007  17.233  0.00  0.00    +0.000 A 
ATOM     30  C   UNL     1       5.440   6.292  16.824  0.00  0.00    +0.000 A 
ATOM     31  C   UNL     1       5.930   5.266  17.626  0.00  0.00    +0.000 A 
ATOM     32 CL   UNL     1       7.318   4.381  17.126  0.00  0.00    +0.000 Cl
ATOM     33  C   UNL     1       5.307   4.956  18.836  0.00  0.00    +0.000 A 
ATOM     34  C   UNL     1       4.176   5.672  19.248  0.00  0.00    +0.000 A 
ENDBRANCH  25  28
ENDBRANCH  21  24
ENDBRANCH   1  18
TORSDOF 4
ENDMDL
