MODEL 1
REMARK VINA RESULT:      -7.5      0.000      0.000
REMARK  Name = 
REMARK  6 active torsions:
REMARK  status: ('A' for Active; 'I' for Inactive)
REMARK    1  A    between atoms: C_1  and  C_2
REMARK    2  A    between atoms: C_5  and  C_6
REMARK    3  A    between atoms: C_13  and  C_14
REMARK    4  A    between atoms: C_14  and  O_16
REMARK    5  A    between atoms: N_18  and  C_19
REMARK    6  A    between atoms: C_23  and  N_24
REMARK                            x       y       z     vdW  Elec       q    Type
REMARK                         _______ _______ _______ _____ _____    ______ ____
ROOT
ATOM      1  C   UNL     1       2.219   7.812  19.256  0.00  0.00    +0.000 A 
ATOM      2  C   UNL     1       2.810   8.576  18.237  0.00  0.00    +0.000 A 
ATOM      3  F   UNL     1       2.615   9.901  18.167  0.00  0.00    +0.000 F 
ATOM      4  C   UNL     1       3.636   8.021  17.273  0.00  0.00    +0.000 A 
ATOM      5  C   UNL     1       3.912   6.653  17.292  0.00  0.00    +0.000 A 
ATOM      6  C   UNL     1       4.843   6.148  16.254  0.00  0.00    +0.000 A 
ATOM      7  O   UNL     1       5.315   6.891  15.396  0.00  0.00    +0.000 OA
ATOM      8  C   UNL     1       5.228   4.733  16.289  0.00  0.00    +0.000 A 
ATOM      9  C   UNL     1       4.636   3.981  17.223  0.00  0.00    +0.000 A 
ATOM     10  N   UNL     1       3.679   4.387  18.147  0.00  0.00    +0.000 N 
ATOM     11  C   UNL     1       3.354   5.782  18.261  0.00  0.00    +0.000 A 
ATOM     12  C   UNL     1       2.518   6.411  19.230  0.00  0.00    +0.000 A 
ENDROOT
BRANCH   1  17
ATOM     13  C   UNL     1      -1.236  10.489  23.149  0.00  0.00    +0.000 C 
ATOM     14  C   UNL     1      -0.364   9.807  22.142  0.00  0.00    +0.000 A 
ATOM     15  C   UNL     1      -0.641   9.858  20.778  0.00  0.00    +0.000 A 
ATOM     16  C   UNL     1       0.183   9.193  19.859  0.00  0.00    +0.000 A 
ATOM     17  C   UNL     1       1.340   8.495  20.260  0.00  0.00    +0.000 A 
ATOM     18  C   UNL     1       1.617   8.500  21.639  0.00  0.00    +0.000 A 
ATOM     19  C   UNL     1       0.759   9.099  22.567  0.00  0.00    +0.000 A 
ENDBRANCH   1  17
BRANCH  10  20
ATOM     20  C   UNL     1       3.220   3.310  19.059  0.00  0.00    +0.000 C 
ATOM     21  C   UNL     1       3.464   1.839  18.847  0.00  0.00    +0.000 C 
ATOM     22  C   UNL     1       4.227   2.549  19.905  0.00  0.00    +0.000 C 
ENDBRANCH  10  20
BRANCH  12  23
ATOM     23  N   UNL     1       1.941   5.609  20.280  0.00  0.00    +0.000 N 
ATOM     24  O   UNL     1       2.642   5.398  21.285  0.00  0.00    +0.000 OA
ATOM     25  O   UNL     1       0.808   5.149  20.076  0.00  0.00    +0.000 OA
ENDBRANCH  12  23
BRANCH   8  26
ATOM     26  C   UNL     1       6.201   4.123  15.364  0.00  0.00    +0.000 C 
ATOM     27  O   UNL     1       5.890   3.315  14.501  0.00  0.00    +0.000 OA
BRANCH  26  28
ATOM     28  O   UNL     1       7.477   4.532  15.537  0.00  0.00    +0.000 OA
ATOM     29  H   UNL     1       8.005   3.967  16.154  0.00  0.00    +0.000 HD
ENDBRANCH  26  28
ENDBRANCH   8  26
TORSDOF 5
ENDMDL
MODEL 2
REMARK VINA RESULT:      -7.2      3.709      8.490
REMARK  Name = 
REMARK  6 active torsions:
REMARK  status: ('A' for Active; 'I' for Inactive)
REMARK    1  A    between atoms: C_1  and  C_2
REMARK    2  A    between atoms: C_5  and  C_6
REMARK    3  A    between atoms: C_13  and  C_14
REMARK    4  A    between atoms: C_14  and  O_16
REMARK    5  A    between atoms: N_18  and  C_19
REMARK    6  A    between atoms: C_23  and  N_24
REMARK                            x       y       z     vdW  Elec       q    Type
REMARK                         _______ _______ _______ _____ _____    ______ ____
ROOT
ATOM      1  C   UNL     1       1.907   7.768  19.618  0.00  0.00    +0.000 A 
ATOM      2  C   UNL     1       1.682   7.375  20.948  0.00  0.00    +0.000 A 
ATOM      3  F   UNL     1       2.159   6.210  21.412  0.00  0.00    +0.000 F 
ATOM      4  C   UNL     1       0.989   8.163  21.850  0.00  0.00    +0.000 A 
ATOM      5  C   UNL     1       0.484   9.402  21.454  0.00  0.00    +0.000 A 
ATOM      6  C   UNL     1      -0.204  10.204  22.494  0.00  0.00    +0.000 A 
ATOM      7  O   UNL     1      -0.359   9.779  23.638  0.00  0.00    +0.000 OA
ATOM      8  C   UNL     1      -0.675  11.548  22.144  0.00  0.00    +0.000 A 
ATOM      9  C   UNL     1      -0.512  11.919  20.870  0.00  0.00    +0.000 A 
ATOM     10  N   UNL     1       0.030  11.162  19.836  0.00  0.00    +0.000 N 
ATOM     11  C   UNL     1       0.633   9.891  20.132  0.00  0.00    +0.000 A 
ATOM     12  C   UNL     1       1.361   9.041  19.250  0.00  0.00    +0.000 A 
ENDROOT
BRANCH   1  17
ATOM     13  C   UNL     1       4.862   4.172  16.069  0.00  0.00    +0.000 C 
ATOM     14  C   UNL     1       4.093   5.082  16.975  0.00  0.00    +0.000 A 
ATOM     15  C   UNL     1       2.867   4.708  17.520  0.00  0.00    +0.000 A 
ATOM     16  C   UNL     1       2.160   5.589  18.351  0.00  0.00    +0.000 A 
ATOM     17  C   UNL     1       2.671   6.854  18.709  0.00  0.00    +0.000 A 
ATOM     18  C   UNL     1       3.931   7.182  18.177  0.00  0.00    +0.000 A 
ATOM     19  C   UNL     1       4.606   6.338  17.290  0.00  0.00    +0.000 A 
ENDBRANCH   1  17
BRANCH  10  20
ATOM     20  C   UNL     1       0.079  11.864  18.530  0.00  0.00    +0.000 C 
ATOM     21  C   UNL     1      -0.560  13.198  18.245  0.00  0.00    +0.000 C 
ATOM     22  C   UNL     1       0.918  13.120  18.372  0.00  0.00    +0.000 C 
ENDBRANCH  10  20
BRANCH  12  23
ATOM     23  N   UNL     1       1.598   9.476  17.897  0.00  0.00    +0.000 N 
ATOM     24  O   UNL     1       2.575  10.221  17.702  0.00  0.00    +0.000 OA
ATOM     25  O   UNL     1       0.779   9.115  17.039  0.00  0.00    +0.000 OA
ENDBRANCH  12  23
BRANCH   8  26
ATOM     26  C   UNL     1      -1.305  12.474  23.103  0.00  0.00    +0.000 C 
ATOM     27  O   UNL     1      -0.767  13.498  23.499  0.00  0.00    +0.000 OA
BRANCH  26  28
ATOM     28  O   UNL     1      -2.538  12.107  23.515  0.00  0.00    +0.000 OA
ATOM     29  H   UNL     1      -2.814  12.504  24.378  0.00  0.00    +0.000 HD
ENDBRANCH  26  28
ENDBRANCH   8  26
TORSDOF 5
ENDMDL
MODEL 3
REMARK VINA RESULT:      -6.8      2.007      2.506
REMARK  Name = 
REMARK  6 active torsions:
REMARK  status: ('A' for Active; 'I' for Inactive)
REMARK    1  A    between atoms: C_1  and  C_2
REMARK    2  A    between atoms: C_5  and  C_6
REMARK    3  A    between atoms: C_13  and  C_14
REMARK    4  A    between atoms: C_14  and  O_16
REMARK    5  A    between atoms: N_18  and  C_19
REMARK    6  A    between atoms: C_23  and  N_24
REMARK                            x       y       z     vdW  Elec       q    Type
REMARK                         _______ _______ _______ _____ _____    ______ ____
ROOT
ATOM      1  C   UNL     1       1.419   9.411  19.227  0.00  0.00    +0.000 A 
ATOM      2  C   UNL     1       2.148   9.664  18.053  0.00  0.00    +0.000 A 
ATOM      3  F   UNL     1       2.085  10.859  17.448  0.00  0.00    +0.000 F 
ATOM      4  C   UNL     1       2.979   8.720  17.474  0.00  0.00    +0.000 A 
ATOM      5  C   UNL     1       3.121   7.461  18.059  0.00  0.00    +0.000 A 
ATOM      6  C   UNL     1       4.067   6.526  17.403  0.00  0.00    +0.000 A 
ATOM      7  O   UNL     1       4.664   6.831  16.372  0.00  0.00    +0.000 OA
ATOM      8  C   UNL     1       4.312   5.223  18.031  0.00  0.00    +0.000 A 
ATOM      9  C   UNL     1       3.591   4.947  19.122  0.00  0.00    +0.000 A 
ATOM     10  N   UNL     1       2.617   5.747  19.710  0.00  0.00    +0.000 N 
ATOM     11  C   UNL     1       2.419   7.087  19.232  0.00  0.00    +0.000 A 
ATOM     12  C   UNL     1       1.584   8.102  19.786  0.00  0.00    +0.000 A 
ENDROOT
BRANCH   1  17
ATOM     13  C   UNL     1      -2.025  13.618  21.393  0.00  0.00    +0.000 C 
ATOM     14  C   UNL     1      -1.157  12.535  20.832  0.00  0.00    +0.000 A 
ATOM     15  C   UNL     1      -1.614  11.672  19.839  0.00  0.00    +0.000 A 
ATOM     16  C   UNL     1      -0.785  10.654  19.345  0.00  0.00    +0.000 A 
ATOM     17  C   UNL     1       0.544  10.491  19.787  0.00  0.00    +0.000 A 
ATOM     18  C   UNL     1       0.988  11.407  20.758  0.00  0.00    +0.000 A 
ATOM     19  C   UNL     1       0.143  12.377  21.306  0.00  0.00    +0.000 A 
ENDBRANCH   1  17
BRANCH  10  20
ATOM     20  C   UNL     1       1.997   5.157  20.923  0.00  0.00    +0.000 C 
ATOM     21  C   UNL     1       1.107   3.942  20.931  0.00  0.00    +0.000 C 
ATOM     22  C   UNL     1       2.491   3.823  21.458  0.00  0.00    +0.000 C 
ENDBRANCH  10  20
BRANCH  12  23
ATOM     23  N   UNL     1       0.864   7.825  21.004  0.00  0.00    +0.000 N 
ATOM     24  O   UNL     1      -0.270   7.328  20.893  0.00  0.00    +0.000 OA
ATOM     25  O   UNL     1       1.412   8.153  22.067  0.00  0.00    +0.000 OA
ENDBRANCH  12  23
BRANCH   8  26
ATOM     26  C   UNL     1       5.283   4.235  17.523  0.00  0.00    +0.000 C 
ATOM     27  O   UNL     1       5.146   3.647  16.461  0.00  0.00    +0.000 OA
BRANCH  26  28
ATOM     28  O   UNL     1       6.350   4.029  18.326  0.00  0.00    +0.000 OA
ATOM     29  H   UNL     1       7.142   4.575  18.097  0.00  0.00    +0.000 HD
ENDBRANCH  26  28
ENDBRANCH   8  26
TORSDOF 5
ENDMDL
MODEL 4
REMARK VINA RESULT:      -6.3      2.594      4.248
REMARK  Name = 
REMARK  6 active torsions:
REMARK  status: ('A' for Active; 'I' for Inactive)
REMARK    1  A    between atoms: C_1  and  C_2
REMARK    2  A    between atoms: C_5  and  C_6
REMARK    3  A    between atoms: C_13  and  C_14
REMARK    4  A    between atoms: C_14  and  O_16
REMARK    5  A    between atoms: N_18  and  C_19
REMARK    6  A    between atoms: C_23  and  N_24
REMARK                            x       y       z     vdW  Elec       q    Type
REMARK                         _______ _______ _______ _____ _____    ______ ____
ROOT
ATOM      1  C   UNL     1       1.063   8.668  20.041  0.00  0.00    +0.000 A 
ATOM      2  C   UNL     1       0.705   7.807  21.092  0.00  0.00    +0.000 A 
ATOM      3  F   UNL     1      -0.182   8.187  22.023  0.00  0.00    +0.000 F 
ATOM      4  C   UNL     1       1.219   6.527  21.214  0.00  0.00    +0.000 A 
ATOM      5  C   UNL     1       2.128   6.045  20.271  0.00  0.00    +0.000 A 
ATOM      6  C   UNL     1       2.593   4.649  20.448  0.00  0.00    +0.000 A 
ATOM      7  O   UNL     1       2.228   3.964  21.403  0.00  0.00    +0.000 OA
ATOM      8  C   UNL     1       3.482   4.073  19.433  0.00  0.00    +0.000 A 
ATOM      9  C   UNL     1       3.871   4.894  18.452  0.00  0.00    +0.000 A 
ATOM     10  N   UNL     1       3.547   6.238  18.304  0.00  0.00    +0.000 N 
ATOM     11  C   UNL     1       2.576   6.833  19.181  0.00  0.00    +0.000 A 
ATOM     12  C   UNL     1       2.008   8.138  19.103  0.00  0.00    +0.000 A 
ENDROOT
BRANCH   1  17
ATOM     13  C   UNL     1      -1.280  14.027  19.840  0.00  0.00    +0.000 C 
ATOM     14  C   UNL     1      -0.668  12.663  19.899  0.00  0.00    +0.000 A 
ATOM     15  C   UNL     1       0.476  12.406  20.651  0.00  0.00    +0.000 A 
ATOM     16  C   UNL     1       1.039  11.122  20.671  0.00  0.00    +0.000 A 
ATOM     17  C   UNL     1       0.456  10.037  19.984  0.00  0.00    +0.000 A 
ATOM     18  C   UNL     1      -0.723  10.321  19.271  0.00  0.00    +0.000 A 
ATOM     19  C   UNL     1      -1.247  11.615  19.187  0.00  0.00    +0.000 A 
ENDBRANCH   1  17
BRANCH  10  20
ATOM     20  C   UNL     1       4.134   6.875  17.099  0.00  0.00    +0.000 C 
ATOM     21  C   UNL     1       5.604   7.132  16.891  0.00  0.00    +0.000 C 
ATOM     22  C   UNL     1       4.947   6.046  16.119  0.00  0.00    +0.000 C 
ENDBRANCH  10  20
BRANCH  12  23
ATOM     23  N   UNL     1       2.374   8.995  18.003  0.00  0.00    +0.000 N 
ATOM     24  O   UNL     1       3.366   9.727  18.159  0.00  0.00    +0.000 OA
ATOM     25  O   UNL     1       1.638   8.971  17.005  0.00  0.00    +0.000 OA
ENDBRANCH  12  23
BRANCH   8  26
ATOM     26  C   UNL     1       3.954   2.676  19.452  0.00  0.00    +0.000 C 
ATOM     27  O   UNL     1       3.267   1.731  19.091  0.00  0.00    +0.000 OA
BRANCH  26  28
ATOM     28  O   UNL     1       5.220   2.513  19.897  0.00  0.00    +0.000 OA
ATOM     29  H   UNL     1       5.667   1.697  19.563  0.00  0.00    +0.000 HD
ENDBRANCH  26  28
ENDBRANCH   8  26
TORSDOF 5
ENDMDL
MODEL 5
REMARK VINA RESULT:      -6.2      5.706      9.191
REMARK  Name = 
REMARK  6 active torsions:
REMARK  status: ('A' for Active; 'I' for Inactive)
REMARK    1  A    between atoms: C_1  and  C_2
REMARK    2  A    between atoms: C_5  and  C_6
REMARK    3  A    between atoms: C_13  and  C_14
REMARK    4  A    between atoms: C_14  and  O_16
REMARK    5  A    between atoms: N_18  and  C_19
REMARK    6  A    between atoms: C_23  and  N_24
REMARK                            x       y       z     vdW  Elec       q    Type
REMARK                         _______ _______ _______ _____ _____    ______ ____
ROOT
ATOM      1  C   UNL     1      -2.274  13.558  23.228  0.00  0.00    +0.000 A 
ATOM      2  C   UNL     1      -2.652  12.271  23.645  0.00  0.00    +0.000 A 
ATOM      3  F   UNL     1      -3.697  12.093  24.468  0.00  0.00    +0.000 F 
ATOM      4  C   UNL     1      -1.998  11.128  23.221  0.00  0.00    +0.000 A 
ATOM      5  C   UNL     1      -0.918  11.225  22.342  0.00  0.00    +0.000 A 
ATOM      6  C   UNL     1      -0.303   9.950  21.900  0.00  0.00    +0.000 A 
ATOM      7  O   UNL     1      -0.699   8.864  22.320  0.00  0.00    +0.000 OA
ATOM      8  C   UNL     1       0.779  10.001  20.910  0.00  0.00    +0.000 A 
ATOM      9  C   UNL     1       1.184  11.220  20.538  0.00  0.00    +0.000 A 
ATOM     10  N   UNL     1       0.711  12.442  21.005  0.00  0.00    +0.000 N 
ATOM     11  C   UNL     1      -0.436  12.472  21.872  0.00  0.00    +0.000 A 
ATOM     12  C   UNL     1      -1.153  13.613  22.336  0.00  0.00    +0.000 A 
ENDROOT
BRANCH   1  17
ATOM     13  C   UNL     1      -5.242  18.186  25.233  0.00  0.00    +0.000 C 
ATOM     14  C   UNL     1      -4.471  17.007  24.730  0.00  0.00    +0.000 A 
ATOM     15  C   UNL     1      -3.319  16.558  25.371  0.00  0.00    +0.000 A 
ATOM     16  C   UNL     1      -2.605  15.461  24.866  0.00  0.00    +0.000 A 
ATOM     17  C   UNL     1      -3.041  14.742  23.734  0.00  0.00    +0.000 A 
ATOM     18  C   UNL     1      -4.232  15.193  23.137  0.00  0.00    +0.000 A 
ATOM     19  C   UNL     1      -4.906  16.331  23.593  0.00  0.00    +0.000 A 
ENDBRANCH   1  17
BRANCH  10  20
ATOM     20  C   UNL     1       1.364  13.623  20.388  0.00  0.00    +0.000 C 
ATOM     21  C   UNL     1       2.470  13.559  19.367  0.00  0.00    +0.000 C 
ATOM     22  C   UNL     1       1.108  13.957  18.928  0.00  0.00    +0.000 C 
ENDBRANCH  10  20
BRANCH  12  23
ATOM     23  N   UNL     1      -0.760  14.921  21.876  0.00  0.00    +0.000 N 
ATOM     24  O   UNL     1       0.120  15.511  22.526  0.00  0.00    +0.000 OA
ATOM     25  O   UNL     1      -1.367  15.376  20.895  0.00  0.00    +0.000 OA
ENDBRANCH  12  23
BRANCH   8  26
ATOM     26  C   UNL     1       1.421   8.806  20.333  0.00  0.00    +0.000 C 
ATOM     27  O   UNL     1       1.627   8.668  19.136  0.00  0.00    +0.000 OA
BRANCH  26  28
ATOM     28  O   UNL     1       1.775   7.864  21.235  0.00  0.00    +0.000 OA
ATOM     29  H   UNL     1       2.751   7.723  21.313  0.00  0.00    +0.000 HD
ENDBRANCH  26  28
ENDBRANCH   8  26
TORSDOF 5
ENDMDL
MODEL 6
REMARK VINA RESULT:      -6.2      9.450     11.016
REMARK  Name = 
REMARK  6 active torsions:
REMARK  status: ('A' for Active; 'I' for Inactive)
REMARK    1  A    between atoms: C_1  and  C_2
REMARK    2  A    between atoms: C_5  and  C_6
REMARK    3  A    between atoms: C_13  and  C_14
REMARK    4  A    between atoms: C_14  and  O_16
REMARK    5  A    between atoms: N_18  and  C_19
REMARK    6  A    between atoms: C_23  and  N_24
REMARK                            x       y       z     vdW  Elec       q    Type
REMARK                         _______ _______ _______ _____ _____    ______ ____
ROOT
ATOM      1  C   UNL     1       8.500  12.795  22.347  0.00  0.00    +0.000 A 
ATOM      2  C   UNL     1       9.195  11.868  21.553  0.00  0.00    +0.000 A 
ATOM      3  F   UNL     1       9.201  10.563  21.862  0.00  0.00    +0.000 F 
ATOM      4  C   UNL     1       9.884  12.234  20.409  0.00  0.00    +0.000 A 
ATOM      5  C   UNL     1       9.904  13.569  20.003  0.00  0.00    +0.000 A 
ATOM      6  C   UNL     1      10.624  13.870  18.742  0.00  0.00    +0.000 A 
ATOM      7  O   UNL     1      11.209  12.993  18.109  0.00  0.00    +0.000 OA
ATOM      8  C   UNL     1      10.598  15.245  18.232  0.00  0.00    +0.000 A 
ATOM      9  C   UNL     1       9.982  16.150  19.000  0.00  0.00    +0.000 A 
ATOM     10  N   UNL     1       9.387  15.935  20.239  0.00  0.00    +0.000 N 
ATOM     11  C   UNL     1       9.256  14.593  20.737  0.00  0.00    +0.000 A 
ATOM     12  C   UNL     1       8.558  14.155  21.900  0.00  0.00    +0.000 A 
ENDROOT
BRANCH   1  17
ATOM     13  C   UNL     1       5.652  10.891  27.092  0.00  0.00    +0.000 C 
ATOM     14  C   UNL     1       6.369  11.371  25.869  0.00  0.00    +0.000 A 
ATOM     15  C   UNL     1       5.782  11.317  24.608  0.00  0.00    +0.000 A 
ATOM     16  C   UNL     1       6.485  11.755  23.477  0.00  0.00    +0.000 A 
ATOM     17  C   UNL     1       7.778  12.310  23.568  0.00  0.00    +0.000 A 
ATOM     18  C   UNL     1       8.325  12.391  24.861  0.00  0.00    +0.000 A 
ATOM     19  C   UNL     1       7.658  11.888  25.982  0.00  0.00    +0.000 A 
ENDBRANCH   1  17
BRANCH  10  20
ATOM     20  C   UNL     1       8.778  17.148  20.839  0.00  0.00    +0.000 C 
ATOM     21  C   UNL     1       8.833  18.528  20.235  0.00  0.00    +0.000 C 
ATOM     22  C   UNL     1       7.551  17.778  20.203  0.00  0.00    +0.000 C 
ENDBRANCH  10  20
BRANCH  12  23
ATOM     23  N   UNL     1       7.833  15.122  22.686  0.00  0.00    +0.000 N 
ATOM     24  O   UNL     1       6.639  15.310  22.396  0.00  0.00    +0.000 OA
ATOM     25  O   UNL     1       8.473  15.729  23.558  0.00  0.00    +0.000 OA
ENDBRANCH  12  23
BRANCH   8  26
ATOM     26  C   UNL     1      11.208  15.660  16.955  0.00  0.00    +0.000 C 
ATOM     27  O   UNL     1      11.824  16.706  16.815  0.00  0.00    +0.000 OA
BRANCH  26  28
ATOM     28  O   UNL     1      11.039  14.786  15.938  0.00  0.00    +0.000 OA
ATOM     29  H   UNL     1      10.257  14.977  15.364  0.00  0.00    +0.000 HD
ENDBRANCH  26  28
ENDBRANCH   8  26
TORSDOF 5
ENDMDL
MODEL 7
REMARK VINA RESULT:      -6.1      5.662      9.120
REMARK  Name = 
REMARK  6 active torsions:
REMARK  status: ('A' for Active; 'I' for Inactive)
REMARK    1  A    between atoms: C_1  and  C_2
REMARK    2  A    between atoms: C_5  and  C_6
REMARK    3  A    between atoms: C_13  and  C_14
REMARK    4  A    between atoms: C_14  and  O_16
REMARK    5  A    between atoms: N_18  and  C_19
REMARK    6  A    between atoms: C_23  and  N_24
REMARK                            x       y       z     vdW  Elec       q    Type
REMARK                         _______ _______ _______ _____ _____    ______ ____
ROOT
ATOM      1  C   UNL     1      -2.224  13.512  23.252  0.00  0.00    +0.000 A 
ATOM      2  C   UNL     1      -2.599  12.224  23.668  0.00  0.00    +0.000 A 
ATOM      3  F   UNL     1      -3.632  12.045  24.505  0.00  0.00    +0.000 F 
ATOM      4  C   UNL     1      -1.953  11.081  23.230  0.00  0.00    +0.000 A 
ATOM      5  C   UNL     1      -0.886  11.179  22.336  0.00  0.00    +0.000 A 
ATOM      6  C   UNL     1      -0.281   9.905  21.878  0.00  0.00    +0.000 A 
ATOM      7  O   UNL     1      -0.673   8.819  22.299  0.00  0.00    +0.000 OA
ATOM      8  C   UNL     1       0.787   9.958  20.874  0.00  0.00    +0.000 A 
ATOM      9  C   UNL     1       1.189  11.178  20.502  0.00  0.00    +0.000 A 
ATOM     10  N   UNL     1       0.726  12.399  20.981  0.00  0.00    +0.000 N 
ATOM     11  C   UNL     1      -0.408  12.427  21.864  0.00  0.00    +0.000 A 
ATOM     12  C   UNL     1      -1.115  13.568  22.344  0.00  0.00    +0.000 A 
ENDROOT
BRANCH   1  17
ATOM     13  C   UNL     1      -5.204  18.127  25.268  0.00  0.00    +0.000 C 
ATOM     14  C   UNL     1      -4.455  16.943  24.743  0.00  0.00    +0.000 A 
ATOM     15  C   UNL     1      -4.897  16.230  23.631  0.00  0.00    +0.000 A 
ATOM     16  C   UNL     1      -4.185  15.113  23.173  0.00  0.00    +0.000 A 
ATOM     17  C   UNL     1      -2.980  14.695  23.775  0.00  0.00    +0.000 A 
ATOM     18  C   UNL     1      -2.537  15.463  24.867  0.00  0.00    +0.000 A 
ATOM     19  C   UNL     1      -3.282  16.533  25.373  0.00  0.00    +0.000 A 
ENDBRANCH   1  17
BRANCH  10  20
ATOM     20  C   UNL     1       1.374  13.581  20.360  0.00  0.00    +0.000 C 
ATOM     21  C   UNL     1       2.462  13.519  19.319  0.00  0.00    +0.000 C 
ATOM     22  C   UNL     1       1.094  13.926  18.908  0.00  0.00    +0.000 C 
ENDBRANCH  10  20
BRANCH  12  23
ATOM     23  N   UNL     1      -0.725  14.877  21.884  0.00  0.00    +0.000 N 
ATOM     24  O   UNL     1      -1.289  15.313  20.866  0.00  0.00    +0.000 OA
ATOM     25  O   UNL     1       0.180  15.446  22.512  0.00  0.00    +0.000 OA
ENDBRANCH  12  23
BRANCH   8  26
ATOM     26  C   UNL     1       1.418   8.765  20.282  0.00  0.00    +0.000 C 
ATOM     27  O   UNL     1       1.656   8.655  19.088  0.00  0.00    +0.000 OA
BRANCH  26  28
ATOM     28  O   UNL     1       1.722   7.789  21.166  0.00  0.00    +0.000 OA
ATOM     29  H   UNL     1       2.670   7.507  21.150  0.00  0.00    +0.000 HD
ENDBRANCH  26  28
ENDBRANCH   8  26
TORSDOF 5
ENDMDL
MODEL 8
REMARK VINA RESULT:      -6.1      8.848     11.969
REMARK  Name = 
REMARK  6 active torsions:
REMARK  status: ('A' for Active; 'I' for Inactive)
REMARK    1  A    between atoms: C_1  and  C_2
REMARK    2  A    between atoms: C_5  and  C_6
REMARK    3  A    between atoms: C_13  and  C_14
REMARK    4  A    between atoms: C_14  and  O_16
REMARK    5  A    between atoms: N_18  and  C_19
REMARK    6  A    between atoms: C_23  and  N_24
REMARK                            x       y       z     vdW  Elec       q    Type
REMARK                         _______ _______ _______ _____ _____    ______ ____
ROOT
ATOM      1  C   UNL     1      -1.249  13.653  20.486  0.00  0.00    +0.000 A 
ATOM      2  C   UNL     1      -2.100  12.702  19.898  0.00  0.00    +0.000 A 
ATOM      3  F   UNL     1      -1.700  11.982  18.839  0.00  0.00    +0.000 F 
ATOM      4  C   UNL     1      -3.370  12.439  20.381  0.00  0.00    +0.000 A 
ATOM      5  C   UNL     1      -3.850  13.126  21.497  0.00  0.00    +0.000 A 
ATOM      6  C   UNL     1      -5.201  12.750  21.979  0.00  0.00    +0.000 A 
ATOM      7  O   UNL     1      -5.880  11.905  21.399  0.00  0.00    +0.000 OA
ATOM      8  C   UNL     1      -5.711  13.386  23.199  0.00  0.00    +0.000 A 
ATOM      9  C   UNL     1      -4.934  14.328  23.744  0.00  0.00    +0.000 A 
ATOM     10  N   UNL     1      -3.711  14.788  23.268  0.00  0.00    +0.000 N 
ATOM     11  C   UNL     1      -3.088  14.121  22.158  0.00  0.00    +0.000 A 
ATOM     12  C   UNL     1      -1.787  14.344  21.620  0.00  0.00    +0.000 A 
ENDROOT
BRANCH   1  17
ATOM     13  C   UNL     1       4.054  14.542  18.175  0.00  0.00    +0.000 C 
ATOM     14  C   UNL     1       2.693  14.329  18.761  0.00  0.00    +0.000 A 
ATOM     15  C   UNL     1       1.620  15.156  18.437  0.00  0.00    +0.000 A 
ATOM     16  C   UNL     1       0.360  14.944  19.016  0.00  0.00    +0.000 A 
ATOM     17  C   UNL     1       0.112  13.872  19.899  0.00  0.00    +0.000 A 
ATOM     18  C   UNL     1       1.206  13.031  20.169  0.00  0.00    +0.000 A 
ATOM     19  C   UNL     1       2.482  13.281  19.653  0.00  0.00    +0.000 A 
ENDBRANCH   1  17
BRANCH  10  20
ATOM     20  C   UNL     1      -3.090  15.842  24.108  0.00  0.00    +0.000 C 
ATOM     21  C   UNL     1      -3.747  16.495  25.297  0.00  0.00    +0.000 C 
ATOM     22  C   UNL     1      -2.647  15.523  25.526  0.00  0.00    +0.000 C 
ENDBRANCH  10  20
BRANCH  12  23
ATOM     23  N   UNL     1      -0.924  15.308  22.256  0.00  0.00    +0.000 N 
ATOM     24  O   UNL     1      -1.001  16.485  21.862  0.00  0.00    +0.000 OA
ATOM     25  O   UNL     1      -0.136  14.879  23.111  0.00  0.00    +0.000 OA
ENDBRANCH  12  23
BRANCH   8  26
ATOM     26  C   UNL     1      -7.003  13.046  23.824  0.00  0.00    +0.000 C 
ATOM     27  O   UNL     1      -7.781  13.886  24.251  0.00  0.00    +0.000 OA
BRANCH  26  28
ATOM     28  O   UNL     1      -7.269  11.723  23.888  0.00  0.00    +0.000 OA
ATOM     29  H   UNL     1      -7.652  11.345  23.059  0.00  0.00    +0.000 HD
ENDBRANCH  26  28
ENDBRANCH   8  26
TORSDOF 5
ENDMDL
MODEL 9
REMARK VINA RESULT:      -6.0      6.384      9.059
REMARK  Name = 
REMARK  6 active torsions:
REMARK  status: ('A' for Active; 'I' for Inactive)
REMARK    1  A    between atoms: C_1  and  C_2
REMARK    2  A    between atoms: C_5  and  C_6
REMARK    3  A    between atoms: C_13  and  C_14
REMARK    4  A    between atoms: C_14  and  O_16
REMARK    5  A    between atoms: N_18  and  C_19
REMARK    6  A    between atoms: C_23  and  N_24
REMARK                            x       y       z     vdW  Elec       q    Type
REMARK                         _______ _______ _______ _____ _____    ______ ____
ROOT
ATOM      1  C   UNL     1      -2.497  13.749  22.012  0.00  0.00    +0.000 A 
ATOM      2  C   UNL     1      -3.784  13.944  21.485  0.00  0.00    +0.000 A 
ATOM      3  F   UNL     1      -4.636  14.812  22.050  0.00  0.00    +0.000 F 
ATOM      4  C   UNL     1      -4.235  13.283  20.355  0.00  0.00    +0.000 A 
ATOM      5  C   UNL     1      -3.399  12.383  19.691  0.00  0.00    +0.000 A 
ATOM      6  C   UNL     1      -3.941  11.754  18.463  0.00  0.00    +0.000 A 
ATOM      7  O   UNL     1      -5.084  11.982  18.073  0.00  0.00    +0.000 OA
ATOM      8  C   UNL     1      -3.067  10.868  17.687  0.00  0.00    +0.000 A 
ATOM      9  C   UNL     1      -1.855  10.633  18.200  0.00  0.00    +0.000 A 
ATOM     10  N   UNL     1      -1.343  11.115  19.400  0.00  0.00    +0.000 N 
ATOM     11  C   UNL     1      -2.088  12.093  20.145  0.00  0.00    +0.000 A 
ATOM     12  C   UNL     1      -1.677  12.808  21.308  0.00  0.00    +0.000 A 
ENDROOT
BRANCH   1  17
ATOM     13  C   UNL     1      -0.932  16.696  26.821  0.00  0.00    +0.000 C 
ATOM     14  C   UNL     1      -1.340  15.932  25.600  0.00  0.00    +0.000 A 
ATOM     15  C   UNL     1      -2.291  14.915  25.657  0.00  0.00    +0.000 A 
ATOM     16  C   UNL     1      -2.639  14.203  24.500  0.00  0.00    +0.000 A 
ATOM     17  C   UNL     1      -2.090  14.510  23.238  0.00  0.00    +0.000 A 
ATOM     18  C   UNL     1      -1.167  15.570  23.209  0.00  0.00    +0.000 A 
ATOM     19  C   UNL     1      -0.761  16.235  24.370  0.00  0.00    +0.000 A 
ENDBRANCH   1  17
BRANCH  10  20
ATOM     20  C   UNL     1       0.045  10.676  19.689  0.00  0.00    +0.000 C 
ATOM     21  C   UNL     1       0.873   9.792  18.792  0.00  0.00    +0.000 C 
ATOM     22  C   UNL     1       1.204  11.237  18.881  0.00  0.00    +0.000 C 
ENDBRANCH  10  20
BRANCH  12  23
ATOM     23  N   UNL     1      -0.344  12.608  21.816  0.00  0.00    +0.000 N 
ATOM     24  O   UNL     1      -0.196  11.743  22.698  0.00  0.00    +0.000 OA
ATOM     25  O   UNL     1       0.545  13.350  21.371  0.00  0.00    +0.000 OA
ENDBRANCH  12  23
BRANCH   8  26
ATOM     26  C   UNL     1      -3.457  10.241  16.410  0.00  0.00    +0.000 C 
ATOM     27  O   UNL     1      -2.875   9.279  15.931  0.00  0.00    +0.000 OA
BRANCH  26  28
ATOM     28  O   UNL     1      -4.521  10.811  15.803  0.00  0.00    +0.000 OA
ATOM     29  H   UNL     1      -4.424  11.782  15.640  0.00  0.00    +0.000 HD
ENDBRANCH  26  28
ENDBRANCH   8  26
TORSDOF 5
ENDMDL
