MODEL 1
REMARK VINA RESULT:      -6.0      0.000      0.000
REMARK  Name = 
REMARK  3 active torsions:
REMARK  status: ('A' for Active; 'I' for Inactive)
REMARK    1  A    between atoms: C_1  and  C_2
REMARK    2  A    between atoms: C_5  and  C_6
REMARK    3  A    between atoms: C_11  and  O_12
REMARK                            x       y       z     vdW  Elec       q    Type
REMARK                         _______ _______ _______ _____ _____    ______ ____
ROOT
ATOM      1  C   UNL     1       5.066   5.286  16.360  0.00  0.00    +0.000 C 
ATOM      2  C   UNL     1       4.219   4.933  17.545  0.00  0.00    +0.000 C 
ATOM      3  C   UNL     1       4.075   5.733  18.618  0.00  0.00    +0.000 C 
ATOM      4  C   UNL     1       3.327   5.275  19.852  0.00  0.00    +0.000 C 
ATOM      5  C   UNL     1       2.786   3.821  19.766  0.00  0.00    +0.000 C 
ATOM      6  C   UNL     1       1.517   3.746  18.888  0.00  0.00    +0.000 C 
ATOM      7  C   UNL     1       2.029   3.740  17.438  0.00  0.00    +0.000 C 
ATOM      8  C   UNL     1       3.559   3.561  17.551  0.00  0.00    +0.000 C 
ATOM      9  C   UNL     1       3.721   2.916  18.946  0.00  0.00    +0.000 C 
ENDROOT
BRANCH   5  10
ATOM     10  C   UNL     1       2.521   3.288  21.109  0.00  0.00    +0.000 C 
ATOM     11  N   UNL     1       2.321   2.831  22.156  0.00  0.00    +0.000 NA
ENDBRANCH   5  10
BRANCH   9  12
ATOM     12  O   UNL     1       5.067   2.853  19.401  0.00  0.00    +0.000 OA
ATOM     13  H   UNL     1       5.088   2.990  20.365  0.00  0.00    +0.000 HD
ENDBRANCH   9  12
TORSDOF 2
ENDMDL
MODEL 2
REMARK VINA RESULT:      -6.0      2.491      3.984
REMARK  Name = 
REMARK  3 active torsions:
REMARK  status: ('A' for Active; 'I' for Inactive)
REMARK    1  A    between atoms: C_1  and  C_2
REMARK    2  A    between atoms: C_5  and  C_6
REMARK    3  A    between atoms: C_11  and  O_12
REMARK                            x       y       z     vdW  Elec       q    Type
REMARK                         _______ _______ _______ _____ _____    ______ ____
ROOT
ATOM      1  C   UNL     1       1.326   3.383  19.178  0.00  0.00    +0.000 C 
ATOM      2  C   UNL     1       2.574   3.863  18.501  0.00  0.00    +0.000 C 
ATOM      3  C   UNL     1       2.955   3.460  17.275  0.00  0.00    +0.000 C 
ATOM      4  C   UNL     1       4.294   3.858  16.691  0.00  0.00    +0.000 C 
ATOM      5  C   UNL     1       5.169   4.727  17.636  0.00  0.00    +0.000 C 
ATOM      6  C   UNL     1       4.674   6.190  17.671  0.00  0.00    +0.000 C 
ATOM      7  C   UNL     1       3.473   6.188  18.631  0.00  0.00    +0.000 C 
ATOM      8  C   UNL     1       3.487   4.791  19.291  0.00  0.00    +0.000 C 
ATOM      9  C   UNL     1       4.956   4.348  19.111  0.00  0.00    +0.000 C 
ENDROOT
BRANCH   5  10
ATOM     10  C   UNL     1       6.581   4.664  17.237  0.00  0.00    +0.000 C 
ATOM     11  N   UNL     1       7.701   4.650  16.938  0.00  0.00    +0.000 NA
ENDBRANCH   5  10
BRANCH   9  12
ATOM     12  O   UNL     1       5.191   2.983  19.433  0.00  0.00    +0.000 OA
ATOM     13  H   UNL     1       5.534   2.521  18.648  0.00  0.00    +0.000 HD
ENDBRANCH   9  12
TORSDOF 2
ENDMDL
MODEL 3
REMARK VINA RESULT:      -5.9      2.311      3.935
REMARK  Name = 
REMARK  3 active torsions:
REMARK  status: ('A' for Active; 'I' for Inactive)
REMARK    1  A    between atoms: C_1  and  C_2
REMARK    2  A    between atoms: C_5  and  C_6
REMARK    3  A    between atoms: C_11  and  O_12
REMARK                            x       y       z     vdW  Elec       q    Type
REMARK                         _______ _______ _______ _____ _____    ______ ____
ROOT
ATOM      1  C   UNL     1       1.421   2.718  21.226  0.00  0.00    +0.000 C 
ATOM      2  C   UNL     1       2.091   3.105  19.942  0.00  0.00    +0.000 C 
ATOM      3  C   UNL     1       1.900   2.455  18.780  0.00  0.00    +0.000 C 
ATOM      4  C   UNL     1       2.705   2.789  17.542  0.00  0.00    +0.000 C 
ATOM      5  C   UNL     1       3.765   3.906  17.754  0.00  0.00    +0.000 C 
ATOM      6  C   UNL     1       3.106   5.304  17.785  0.00  0.00    +0.000 C 
ATOM      7  C   UNL     1       2.533   5.449  19.205  0.00  0.00    +0.000 C 
ATOM      8  C   UNL     1       3.098   4.247  19.993  0.00  0.00    +0.000 C 
ATOM      9  C   UNL     1       4.352   3.866  19.175  0.00  0.00    +0.000 C 
ENDROOT
BRANCH   5  10
ATOM     10  C   UNL     1       4.799   3.842  16.714  0.00  0.00    +0.000 C 
ATOM     11  N   UNL     1       5.641   3.806  15.918  0.00  0.00    +0.000 NA
ENDBRANCH   5  10
BRANCH   9  12
ATOM     12  O   UNL     1       4.941   2.631  19.560  0.00  0.00    +0.000 OA
ATOM     13  H   UNL     1       4.282   2.095  20.037  0.00  0.00    +0.000 HD
ENDBRANCH   9  12
TORSDOF 2
ENDMDL
MODEL 4
REMARK VINA RESULT:      -5.7      2.159      3.599
REMARK  Name = 
REMARK  3 active torsions:
REMARK  status: ('A' for Active; 'I' for Inactive)
REMARK    1  A    between atoms: C_1  and  C_2
REMARK    2  A    between atoms: C_5  and  C_6
REMARK    3  A    between atoms: C_11  and  O_12
REMARK                            x       y       z     vdW  Elec       q    Type
REMARK                         _______ _______ _______ _____ _____    ______ ____
ROOT
ATOM      1  C   UNL     1       0.717   2.392  18.778  0.00  0.00    +0.000 C 
ATOM      2  C   UNL     1       1.997   3.154  18.611  0.00  0.00    +0.000 C 
ATOM      3  C   UNL     1       2.480   3.539  17.416  0.00  0.00    +0.000 C 
ATOM      4  C   UNL     1       3.845   4.180  17.281  0.00  0.00    +0.000 C 
ATOM      5  C   UNL     1       4.620   4.314  18.622  0.00  0.00    +0.000 C 
ATOM      6  C   UNL     1       4.078   5.489  19.466  0.00  0.00    +0.000 C 
ATOM      7  C   UNL     1       2.810   4.947  20.146  0.00  0.00    +0.000 C 
ATOM      8  C   UNL     1       2.818   3.428  19.863  0.00  0.00    +0.000 C 
ATOM      9  C   UNL     1       4.310   3.148  19.574  0.00  0.00    +0.000 C 
ENDROOT
BRANCH   5  10
ATOM     10  C   UNL     1       6.059   4.473  18.374  0.00  0.00    +0.000 C 
ATOM     11  N   UNL     1       7.202   4.573  18.207  0.00  0.00    +0.000 NA
ENDBRANCH   5  10
BRANCH   9  12
ATOM     12  O   UNL     1       4.564   1.849  19.055  0.00  0.00    +0.000 OA
ATOM     13  H   UNL     1       5.315   1.890  18.437  0.00  0.00    +0.000 HD
ENDBRANCH   9  12
TORSDOF 2
ENDMDL
MODEL 5
REMARK VINA RESULT:      -5.7      2.531      3.789
REMARK  Name = 
REMARK  3 active torsions:
REMARK  status: ('A' for Active; 'I' for Inactive)
REMARK    1  A    between atoms: C_1  and  C_2
REMARK    2  A    between atoms: C_5  and  C_6
REMARK    3  A    between atoms: C_11  and  O_12
REMARK                            x       y       z     vdW  Elec       q    Type
REMARK                         _______ _______ _______ _____ _____    ______ ____
ROOT
ATOM      1  C   UNL     1       7.662   7.786  17.521  0.00  0.00    +0.000 C 
ATOM      2  C   UNL     1       6.666   6.695  17.268  0.00  0.00    +0.000 C 
ATOM      3  C   UNL     1       5.338   6.903  17.202  0.00  0.00    +0.000 C 
ATOM      4  C   UNL     1       4.360   5.754  17.089  0.00  0.00    +0.000 C 
ATOM      5  C   UNL     1       5.025   4.349  17.088  0.00  0.00    +0.000 C 
ATOM      6  C   UNL     1       5.660   4.032  15.715  0.00  0.00    +0.000 C 
ATOM      7  C   UNL     1       7.008   4.772  15.712  0.00  0.00    +0.000 C 
ATOM      8  C   UNL     1       7.197   5.272  17.162  0.00  0.00    +0.000 C 
ATOM      9  C   UNL     1       6.285   4.319  17.968  0.00  0.00    +0.000 C 
ENDROOT
BRANCH   5  10
ATOM     10  C   UNL     1       4.052   3.315  17.462  0.00  0.00    +0.000 C 
ATOM     11  N   UNL     1       3.312   2.477  17.770  0.00  0.00    +0.000 NA
ENDBRANCH   5  10
BRANCH   9  12
ATOM     12  O   UNL     1       6.096   4.708  19.322  0.00  0.00    +0.000 OA
ATOM     13  H   UNL     1       6.787   5.347  19.574  0.00  0.00    +0.000 HD
ENDBRANCH   9  12
TORSDOF 2
ENDMDL
MODEL 6
REMARK VINA RESULT:      -5.7      2.957      4.222
REMARK  Name = 
REMARK  3 active torsions:
REMARK  status: ('A' for Active; 'I' for Inactive)
REMARK    1  A    between atoms: C_1  and  C_2
REMARK    2  A    between atoms: C_5  and  C_6
REMARK    3  A    between atoms: C_11  and  O_12
REMARK                            x       y       z     vdW  Elec       q    Type
REMARK                         _______ _______ _______ _____ _____    ______ ____
ROOT
ATOM      1  C   UNL     1       3.045   2.289  17.854  0.00  0.00    +0.000 C 
ATOM      2  C   UNL     1       3.767   3.563  17.537  0.00  0.00    +0.000 C 
ATOM      3  C   UNL     1       4.366   3.802  16.357  0.00  0.00    +0.000 C 
ATOM      4  C   UNL     1       5.205   5.042  16.130  0.00  0.00    +0.000 C 
ATOM      5  C   UNL     1       5.325   5.966  17.374  0.00  0.00    +0.000 C 
ATOM      6  C   UNL     1       4.037   6.794  17.582  0.00  0.00    +0.000 C 
ATOM      7  C   UNL     1       3.049   5.839  18.271  0.00  0.00    +0.000 C 
ATOM      8  C   UNL     1       3.886   4.597  18.649  0.00  0.00    +0.000 C 
ATOM      9  C   UNL     1       5.326   5.157  18.682  0.00  0.00    +0.000 C 
ENDROOT
BRANCH   5  10
ATOM     10  C   UNL     1       6.495   6.845  17.254  0.00  0.00    +0.000 C 
ATOM     11  N   UNL     1       7.440   7.513  17.178  0.00  0.00    +0.000 NA
ENDBRANCH   5  10
BRANCH   9  12
ATOM     12  O   UNL     1       6.333   4.159  18.784  0.00  0.00    +0.000 OA
ATOM     13  H   UNL     1       7.210   4.582  18.760  0.00  0.00    +0.000 HD
ENDBRANCH   9  12
TORSDOF 2
ENDMDL
MODEL 7
REMARK VINA RESULT:      -5.7      1.540      1.968
REMARK  Name = 
REMARK  3 active torsions:
REMARK  status: ('A' for Active; 'I' for Inactive)
REMARK    1  A    between atoms: C_1  and  C_2
REMARK    2  A    between atoms: C_5  and  C_6
REMARK    3  A    between atoms: C_11  and  O_12
REMARK                            x       y       z     vdW  Elec       q    Type
REMARK                         _______ _______ _______ _____ _____    ______ ____
ROOT
ATOM      1  C   UNL     1       2.930   7.971  17.797  0.00  0.00    +0.000 C 
ATOM      2  C   UNL     1       2.563   6.774  18.621  0.00  0.00    +0.000 C 
ATOM      3  C   UNL     1       1.943   6.855  19.812  0.00  0.00    +0.000 C 
ATOM      4  C   UNL     1       1.721   5.631  20.675  0.00  0.00    +0.000 C 
ATOM      5  C   UNL     1       2.292   4.316  20.074  0.00  0.00    +0.000 C 
ATOM      6  C   UNL     1       1.382   3.772  18.951  0.00  0.00    +0.000 C 
ATOM      7  C   UNL     1       1.735   4.604  17.706  0.00  0.00    +0.000 C 
ATOM      8  C   UNL     1       2.993   5.408  18.102  0.00  0.00    +0.000 C 
ATOM      9  C   UNL     1       3.575   4.574  19.266  0.00  0.00    +0.000 C 
ENDROOT
BRANCH   5  10
ATOM     10  C   UNL     1       2.481   3.307  21.124  0.00  0.00    +0.000 C 
ATOM     11  N   UNL     1       2.621   2.537  21.980  0.00  0.00    +0.000 NA
ENDBRANCH   5  10
BRANCH   9  12
ATOM     12  O   UNL     1       4.625   5.221  19.973  0.00  0.00    +0.000 OA
ATOM     13  H   UNL     1       4.250   5.721  20.720  0.00  0.00    +0.000 HD
ENDBRANCH   9  12
TORSDOF 2
ENDMDL
MODEL 8
REMARK VINA RESULT:      -5.7      3.064      4.759
REMARK  Name = 
REMARK  3 active torsions:
REMARK  status: ('A' for Active; 'I' for Inactive)
REMARK    1  A    between atoms: C_1  and  C_2
REMARK    2  A    between atoms: C_5  and  C_6
REMARK    3  A    between atoms: C_11  and  O_12
REMARK                            x       y       z     vdW  Elec       q    Type
REMARK                         _______ _______ _______ _____ _____    ______ ____
ROOT
ATOM      1  C   UNL     1       3.220   3.899  19.747  0.00  0.00    +0.000 C 
ATOM      2  C   UNL     1       3.945   4.310  18.501  0.00  0.00    +0.000 C 
ATOM      3  C   UNL     1       3.921   3.598  17.360  0.00  0.00    +0.000 C 
ATOM      4  C   UNL     1       4.782   3.975  16.173  0.00  0.00    +0.000 C 
ATOM      5  C   UNL     1       5.691   5.213  16.412  0.00  0.00    +0.000 C 
ATOM      6  C   UNL     1       4.882   6.526  16.327  0.00  0.00    +0.000 C 
ATOM      7  C   UNL     1       4.183   6.659  17.690  0.00  0.00    +0.000 C 
ATOM      8  C   UNL     1       4.812   5.560  18.575  0.00  0.00    +0.000 C 
ATOM      9  C   UNL     1       6.163   5.295  17.874  0.00  0.00    +0.000 C 
ENDROOT
BRANCH   5  10
ATOM     10  C   UNL     1       6.807   5.227  15.458  0.00  0.00    +0.000 C 
ATOM     11  N   UNL     1       7.663   5.233  14.676  0.00  0.00    +0.000 NA
ENDBRANCH   5  10
BRANCH   9  12
ATOM     12  O   UNL     1       6.851   4.150  18.360  0.00  0.00    +0.000 OA
ATOM     13  H   UNL     1       7.566   4.433  18.958  0.00  0.00    +0.000 HD
ENDBRANCH   9  12
TORSDOF 2
ENDMDL
MODEL 9
REMARK VINA RESULT:      -5.6      2.395      3.915
REMARK  Name = 
REMARK  3 active torsions:
REMARK  status: ('A' for Active; 'I' for Inactive)
REMARK    1  A    between atoms: C_1  and  C_2
REMARK    2  A    between atoms: C_5  and  C_6
REMARK    3  A    between atoms: C_11  and  O_12
REMARK                            x       y       z     vdW  Elec       q    Type
REMARK                         _______ _______ _______ _____ _____    ______ ____
ROOT
ATOM      1  C   UNL     1       1.642   2.616  21.747  0.00  0.00    +0.000 C 
ATOM      2  C   UNL     1       2.318   3.105  20.501  0.00  0.00    +0.000 C 
ATOM      3  C   UNL     1       3.586   2.796  20.176  0.00  0.00    +0.000 C 
ATOM      4  C   UNL     1       4.274   3.427  18.984  0.00  0.00    +0.000 C 
ATOM      5  C   UNL     1       3.401   4.460  18.217  0.00  0.00    +0.000 C 
ATOM      6  C   UNL     1       2.355   3.756  17.325  0.00  0.00    +0.000 C 
ATOM      7  C   UNL     1       1.214   3.358  18.276  0.00  0.00    +0.000 C 
ATOM      8  C   UNL     1       1.538   4.064  19.612  0.00  0.00    +0.000 C 
ATOM      9  C   UNL     1       2.461   5.221  19.166  0.00  0.00    +0.000 C 
ENDROOT
BRANCH   5  10
ATOM     10  C   UNL     1       4.245   5.359  17.419  0.00  0.00    +0.000 C 
ATOM     11  N   UNL     1       4.916   6.090  16.820  0.00  0.00    +0.000 NA
ENDBRANCH   5  10
BRANCH   9  12
ATOM     12  O   UNL     1       3.095   5.901  20.242  0.00  0.00    +0.000 OA
ATOM     13  H   UNL     1       2.562   6.677  20.492  0.00  0.00    +0.000 HD
ENDBRANCH   9  12
TORSDOF 2
ENDMDL
