MODEL 1
REMARK VINA RESULT:      -7.8      0.000      0.000
REMARK  Name = 
REMARK  7 active torsions:
REMARK  status: ('A' for Active; 'I' for Inactive)
REMARK    1  A    between atoms: C_1  and  O_2
REMARK    2  A    between atoms: O_2  and  C_3
REMARK    3  A    between atoms: C_11  and  C_12
REMARK    4  A    between atoms: C_12  and  N_13
REMARK    5  A    between atoms: N_13  and  C_14
REMARK    6  A    between atoms: N_13  and  C_15
REMARK    7  A    between atoms: C_15  and  C_16
REMARK                            x       y       z     vdW  Elec       q    Type
REMARK                         _______ _______ _______ _____ _____    ______ ____
ROOT
ATOM      1  C   UNL     1       2.943   7.456  18.331  0.00  0.00    +0.000 A 
ATOM      2  C   UNL     1       2.327   6.976  19.486  0.00  0.00    +0.000 A 
ATOM      3  C   UNL     1       2.365   5.615  19.774  0.00  0.00    +0.000 A 
ATOM      4  C   UNL     1       3.011   4.747  18.896  0.00  0.00    +0.000 A 
ATOM      5  O   UNL     1       3.050   3.398  19.291  0.00  0.00    +0.000 OA
ATOM      6  C   UNL     1       3.730   2.458  18.538  0.00  0.00    +0.000 A 
ATOM      7  O   UNL     1       3.827   1.288  18.886  0.00  0.00    +0.000 OA
ATOM      8  C   UNL     1       4.288   2.918  17.263  0.00  0.00    +0.000 A 
ATOM      9  C   UNL     1       4.206   4.181  16.812  0.00  0.00    +0.000 A 
ATOM     10  C   UNL     1       3.595   5.185  17.704  0.00  0.00    +0.000 A 
ATOM     11  C   UNL     1       3.553   6.557  17.440  0.00  0.00    +0.000 A 
ENDROOT
BRANCH   1  13
ATOM     12  C   UNL     1       1.740   9.474  18.078  0.00  0.00    +0.000 C 
ATOM     13  O   UNL     1       2.971   8.769  17.947  0.00  0.00    +0.000 OA
ENDBRANCH   1  13
BRANCH   9  14
ATOM     14  C   UNL     1       4.623   4.551  15.397  0.00  0.00    +0.000 C 
BRANCH  14  15
ATOM     15  N   UNL     1       5.991   4.113  15.027  0.00  0.00    +0.000 NA
ATOM     16  C   UNL     1       6.020   3.554  13.665  0.00  0.00    +0.000 C 
BRANCH  15  17
ATOM     17  C   UNL     1       6.923   5.257  15.137  0.00  0.00    +0.000 C 
BRANCH  17  18
ATOM     18  C   UNL     1       7.302   5.640  16.555  0.00  0.00    +0.000 A 
ATOM     19  C   UNL     1       7.560   4.647  17.514  0.00  0.00    +0.000 A 
ATOM     20  C   UNL     1       7.928   4.992  18.815  0.00  0.00    +0.000 A 
ATOM     21  C   UNL     1       8.043   6.334  19.174  0.00  0.00    +0.000 A 
ATOM     22  C   UNL     1       7.788   7.331  18.232  0.00  0.00    +0.000 A 
ATOM     23  C   UNL     1       7.418   6.985  16.930  0.00  0.00    +0.000 A 
ENDBRANCH  17  18
ENDBRANCH  15  17
ENDBRANCH  14  15
ENDBRANCH   9  14
TORSDOF 5
ENDMDL
MODEL 2
REMARK VINA RESULT:      -7.7      2.783      6.033
REMARK  Name = 
REMARK  7 active torsions:
REMARK  status: ('A' for Active; 'I' for Inactive)
REMARK    1  A    between atoms: C_1  and  O_2
REMARK    2  A    between atoms: O_2  and  C_3
REMARK    3  A    between atoms: C_11  and  C_12
REMARK    4  A    between atoms: C_12  and  N_13
REMARK    5  A    between atoms: N_13  and  C_14
REMARK    6  A    between atoms: N_13  and  C_15
REMARK    7  A    between atoms: C_15  and  C_16
REMARK                            x       y       z     vdW  Elec       q    Type
REMARK                         _______ _______ _______ _____ _____    ______ ____
ROOT
ATOM      1  C   UNL     1       5.615   4.425  14.510  0.00  0.00    +0.000 A 
ATOM      2  C   UNL     1       7.008   4.450  14.552  0.00  0.00    +0.000 A 
ATOM      3  C   UNL     1       7.658   4.720  15.752  0.00  0.00    +0.000 A 
ATOM      4  C   UNL     1       6.906   4.975  16.897  0.00  0.00    +0.000 A 
ATOM      5  O   UNL     1       7.643   5.183  18.077  0.00  0.00    +0.000 OA
ATOM      6  C   UNL     1       7.003   5.368  19.288  0.00  0.00    +0.000 A 
ATOM      7  O   UNL     1       7.618   5.497  20.339  0.00  0.00    +0.000 OA
ATOM      8  C   UNL     1       5.540   5.460  19.250  0.00  0.00    +0.000 A 
ATOM      9  C   UNL     1       4.802   5.343  18.134  0.00  0.00    +0.000 A 
ATOM     10  C   UNL     1       5.508   5.008  16.882  0.00  0.00    +0.000 A 
ATOM     11  C   UNL     1       4.877   4.724  15.668  0.00  0.00    +0.000 A 
ENDROOT
BRANCH   1  13
ATOM     12  C   UNL     1       5.526   3.420  12.374  0.00  0.00    +0.000 C 
ATOM     13  O   UNL     1       4.869   4.170  13.392  0.00  0.00    +0.000 OA
ENDBRANCH   1  13
BRANCH   9  14
ATOM     14  C   UNL     1       3.312   5.648  18.127  0.00  0.00    +0.000 C 
BRANCH  14  15
ATOM     15  N   UNL     1       2.937   6.885  18.854  0.00  0.00    +0.000 NA
ATOM     16  C   UNL     1       2.237   7.831  17.969  0.00  0.00    +0.000 C 
BRANCH  15  17
ATOM     17  C   UNL     1       2.086   6.537  20.014  0.00  0.00    +0.000 C 
BRANCH  17  18
ATOM     18  C   UNL     1       1.884   5.050  20.237  0.00  0.00    +0.000 A 
ATOM     19  C   UNL     1       2.441   4.419  21.361  0.00  0.00    +0.000 A 
ATOM     20  C   UNL     1       2.244   3.055  21.583  0.00  0.00    +0.000 A 
ATOM     21  C   UNL     1       1.486   2.306  20.684  0.00  0.00    +0.000 A 
ATOM     22  C   UNL     1       0.929   2.920  19.562  0.00  0.00    +0.000 A 
ATOM     23  C   UNL     1       1.128   4.284  19.339  0.00  0.00    +0.000 A 
ENDBRANCH  17  18
ENDBRANCH  15  17
ENDBRANCH  14  15
ENDBRANCH   9  14
TORSDOF 5
ENDMDL
MODEL 3
REMARK VINA RESULT:      -7.6      1.575      2.173
REMARK  Name = 
REMARK  7 active torsions:
REMARK  status: ('A' for Active; 'I' for Inactive)
REMARK    1  A    between atoms: C_1  and  O_2
REMARK    2  A    between atoms: O_2  and  C_3
REMARK    3  A    between atoms: C_11  and  C_12
REMARK    4  A    between atoms: C_12  and  N_13
REMARK    5  A    between atoms: N_13  and  C_14
REMARK    6  A    between atoms: N_13  and  C_15
REMARK    7  A    between atoms: C_15  and  C_16
REMARK                            x       y       z     vdW  Elec       q    Type
REMARK                         _______ _______ _______ _____ _____    ______ ____
ROOT
ATOM      1  C   UNL     1       2.174   8.088  18.548  0.00  0.00    +0.000 A 
ATOM      2  C   UNL     1       1.597   8.252  19.806  0.00  0.00    +0.000 A 
ATOM      3  C   UNL     1       1.538   7.175  20.685  0.00  0.00    +0.000 A 
ATOM      4  C   UNL     1       2.048   5.940  20.290  0.00  0.00    +0.000 A 
ATOM      5  O   UNL     1       1.999   4.922  21.259  0.00  0.00    +0.000 OA
ATOM      6  C   UNL     1       2.545   3.677  21.007  0.00  0.00    +0.000 A 
ATOM      7  O   UNL     1       2.565   2.789  21.851  0.00  0.00    +0.000 OA
ATOM      8  C   UNL     1       3.054   3.445  19.652  0.00  0.00    +0.000 A 
ATOM      9  C   UNL     1       3.050   4.366  18.674  0.00  0.00    +0.000 A 
ATOM     10  C   UNL     1       2.588   5.724  19.018  0.00  0.00    +0.000 A 
ATOM     11  C   UNL     1       2.645   6.823  18.156  0.00  0.00    +0.000 A 
ENDROOT
BRANCH   1  13
ATOM     12  C   UNL     1       1.944  10.383  18.040  0.00  0.00    +0.000 C 
ATOM     13  O   UNL     1       2.289   9.072  17.604  0.00  0.00    +0.000 OA
ENDBRANCH   1  13
BRANCH   9  14
ATOM     14  C   UNL     1       3.403   4.007  17.239  0.00  0.00    +0.000 C 
BRANCH  14  15
ATOM     15  N   UNL     1       4.849   4.100  16.922  0.00  0.00    +0.000 NA
ATOM     16  C   UNL     1       5.221   3.158  15.853  0.00  0.00    +0.000 C 
BRANCH  15  17
ATOM     17  C   UNL     1       5.180   5.487  16.527  0.00  0.00    +0.000 C 
BRANCH  17  18
ATOM     18  C   UNL     1       6.310   6.125  17.314  0.00  0.00    +0.000 A 
ATOM     19  C   UNL     1       6.759   7.416  16.991  0.00  0.00    +0.000 A 
ATOM     20  C   UNL     1       7.785   8.016  17.722  0.00  0.00    +0.000 A 
ATOM     21  C   UNL     1       8.374   7.334  18.785  0.00  0.00    +0.000 A 
ATOM     22  C   UNL     1       7.939   6.051  19.116  0.00  0.00    +0.000 A 
ATOM     23  C   UNL     1       6.913   5.449  18.382  0.00  0.00    +0.000 A 
ENDBRANCH  17  18
ENDBRANCH  15  17
ENDBRANCH  14  15
ENDBRANCH   9  14
TORSDOF 5
ENDMDL
MODEL 4
REMARK VINA RESULT:      -7.6      2.783      6.048
REMARK  Name = 
REMARK  7 active torsions:
REMARK  status: ('A' for Active; 'I' for Inactive)
REMARK    1  A    between atoms: C_1  and  O_2
REMARK    2  A    between atoms: O_2  and  C_3
REMARK    3  A    between atoms: C_11  and  C_12
REMARK    4  A    between atoms: C_12  and  N_13
REMARK    5  A    between atoms: N_13  and  C_14
REMARK    6  A    between atoms: N_13  and  C_15
REMARK    7  A    between atoms: C_15  and  C_16
REMARK                            x       y       z     vdW  Elec       q    Type
REMARK                         _______ _______ _______ _____ _____    ______ ____
ROOT
ATOM      1  C   UNL     1       5.591   4.291  14.519  0.00  0.00    +0.000 A 
ATOM      2  C   UNL     1       6.984   4.337  14.554  0.00  0.00    +0.000 A 
ATOM      3  C   UNL     1       7.634   4.672  15.737  0.00  0.00    +0.000 A 
ATOM      4  C   UNL     1       6.882   4.969  16.872  0.00  0.00    +0.000 A 
ATOM      5  O   UNL     1       7.620   5.241  18.038  0.00  0.00    +0.000 OA
ATOM      6  C   UNL     1       6.981   5.474  19.242  0.00  0.00    +0.000 A 
ATOM      7  O   UNL     1       7.598   5.659  20.284  0.00  0.00    +0.000 OA
ATOM      8  C   UNL     1       5.518   5.543  19.206  0.00  0.00    +0.000 A 
ATOM      9  C   UNL     1       4.777   5.365  18.099  0.00  0.00    +0.000 A 
ATOM     10  C   UNL     1       5.484   4.982  16.862  0.00  0.00    +0.000 A 
ATOM     11  C   UNL     1       4.853   4.633  15.664  0.00  0.00    +0.000 A 
ENDROOT
BRANCH   1  13
ATOM     12  C   UNL     1       5.587   3.586  12.264  0.00  0.00    +0.000 C 
ATOM     13  O   UNL     1       4.845   3.974  13.416  0.00  0.00    +0.000 OA
ENDBRANCH   1  13
BRANCH   9  14
ATOM     14  C   UNL     1       3.283   5.648  18.084  0.00  0.00    +0.000 C 
BRANCH  14  15
ATOM     15  N   UNL     1       2.877   6.833  18.877  0.00  0.00    +0.000 NA
ATOM     16  C   UNL     1       2.313   7.884  18.013  0.00  0.00    +0.000 C 
BRANCH  15  17
ATOM     17  C   UNL     1       1.893   6.426  19.905  0.00  0.00    +0.000 C 
BRANCH  17  18
ATOM     18  C   UNL     1       1.820   4.933  20.166  0.00  0.00    +0.000 A 
ATOM     19  C   UNL     1       1.080   4.099  19.312  0.00  0.00    +0.000 A 
ATOM     20  C   UNL     1       1.023   2.723  19.535  0.00  0.00    +0.000 A 
ATOM     21  C   UNL     1       1.707   2.163  20.613  0.00  0.00    +0.000 A 
ATOM     22  C   UNL     1       2.444   2.979  21.470  0.00  0.00    +0.000 A 
ATOM     23  C   UNL     1       2.499   4.358  21.248  0.00  0.00    +0.000 A 
ENDBRANCH  17  18
ENDBRANCH  15  17
ENDBRANCH  14  15
ENDBRANCH   9  14
TORSDOF 5
ENDMDL
MODEL 5
REMARK VINA RESULT:      -7.5      2.637      6.147
REMARK  Name = 
REMARK  7 active torsions:
REMARK  status: ('A' for Active; 'I' for Inactive)
REMARK    1  A    between atoms: C_1  and  O_2
REMARK    2  A    between atoms: O_2  and  C_3
REMARK    3  A    between atoms: C_11  and  C_12
REMARK    4  A    between atoms: C_12  and  N_13
REMARK    5  A    between atoms: N_13  and  C_14
REMARK    6  A    between atoms: N_13  and  C_15
REMARK    7  A    between atoms: C_15  and  C_16
REMARK                            x       y       z     vdW  Elec       q    Type
REMARK                         _______ _______ _______ _____ _____    ______ ____
ROOT
ATOM      1  C   UNL     1       6.141   3.605  12.958  0.00  0.00    +0.000 A 
ATOM      2  C   UNL     1       7.183   4.491  12.684  0.00  0.00    +0.000 A 
ATOM      3  C   UNL     1       7.680   5.305  13.697  0.00  0.00    +0.000 A 
ATOM      4  C   UNL     1       7.121   5.234  14.971  0.00  0.00    +0.000 A 
ATOM      5  O   UNL     1       7.720   6.051  15.947  0.00  0.00    +0.000 OA
ATOM      6  C   UNL     1       7.300   6.006  17.263  0.00  0.00    +0.000 A 
ATOM      7  O   UNL     1       7.839   6.666  18.144  0.00  0.00    +0.000 OA
ATOM      8  C   UNL     1       6.132   5.168  17.552  0.00  0.00    +0.000 A 
ATOM      9  C   UNL     1       5.483   4.432  16.634  0.00  0.00    +0.000 A 
ATOM     10  C   UNL     1       6.043   4.395  15.270  0.00  0.00    +0.000 A 
ATOM     11  C   UNL     1       5.566   3.579  14.240  0.00  0.00    +0.000 A 
ENDROOT
BRANCH   1  13
ATOM     12  C   UNL     1       4.304   3.158  11.542  0.00  0.00    +0.000 C 
ATOM     13  O   UNL     1       5.575   2.757  12.046  0.00  0.00    +0.000 OA
ENDBRANCH   1  13
BRANCH   9  14
ATOM     14  C   UNL     1       4.163   3.746  16.950  0.00  0.00    +0.000 C 
BRANCH  14  15
ATOM     15  N   UNL     1       3.073   4.670  17.350  0.00  0.00    +0.000 NA
ATOM     16  C   UNL     1       1.810   3.943  17.560  0.00  0.00    +0.000 C 
BRANCH  15  17
ATOM     17  C   UNL     1       3.465   5.392  18.581  0.00  0.00    +0.000 C 
BRANCH  17  18
ATOM     18  C   UNL     1       2.781   6.732  18.782  0.00  0.00    +0.000 A 
ATOM     19  C   UNL     1       2.781   7.689  17.755  0.00  0.00    +0.000 A 
ATOM     20  C   UNL     1       2.138   8.916  17.926  0.00  0.00    +0.000 A 
ATOM     21  C   UNL     1       1.487   9.201  19.125  0.00  0.00    +0.000 A 
ATOM     22  C   UNL     1       1.481   8.259  20.154  0.00  0.00    +0.000 A 
ATOM     23  C   UNL     1       2.126   7.032  19.984  0.00  0.00    +0.000 A 
ENDBRANCH  17  18
ENDBRANCH  15  17
ENDBRANCH  14  15
ENDBRANCH   9  14
TORSDOF 5
ENDMDL
MODEL 6
REMARK VINA RESULT:      -7.5      2.881      6.853
REMARK  Name = 
REMARK  7 active torsions:
REMARK  status: ('A' for Active; 'I' for Inactive)
REMARK    1  A    between atoms: C_1  and  O_2
REMARK    2  A    between atoms: O_2  and  C_3
REMARK    3  A    between atoms: C_11  and  C_12
REMARK    4  A    between atoms: C_12  and  N_13
REMARK    5  A    between atoms: N_13  and  C_14
REMARK    6  A    between atoms: N_13  and  C_15
REMARK    7  A    between atoms: C_15  and  C_16
REMARK                            x       y       z     vdW  Elec       q    Type
REMARK                         _______ _______ _______ _____ _____    ______ ____
ROOT
ATOM      1  C   UNL     1       6.738   6.331  16.966  0.00  0.00    +0.000 A 
ATOM      2  C   UNL     1       6.868   4.943  16.995  0.00  0.00    +0.000 A 
ATOM      3  C   UNL     1       5.749   4.149  17.225  0.00  0.00    +0.000 A 
ATOM      4  C   UNL     1       4.511   4.755  17.435  0.00  0.00    +0.000 A 
ATOM      5  O   UNL     1       3.424   3.878  17.603  0.00  0.00    +0.000 OA
ATOM      6  C   UNL     1       2.137   4.363  17.742  0.00  0.00    +0.000 A 
ATOM      7  O   UNL     1       1.166   3.623  17.835  0.00  0.00    +0.000 OA
ATOM      8  C   UNL     1       1.991   5.819  17.828  0.00  0.00    +0.000 A 
ATOM      9  C   UNL     1       3.011   6.689  17.749  0.00  0.00    +0.000 A 
ATOM     10  C   UNL     1       4.352   6.143  17.463  0.00  0.00    +0.000 A 
ATOM     11  C   UNL     1       5.488   6.920  17.220  0.00  0.00    +0.000 A 
ENDROOT
BRANCH   1  13
ATOM     12  C   UNL     1       7.827   8.315  17.645  0.00  0.00    +0.000 C 
ATOM     13  O   UNL     1       7.765   7.209  16.748  0.00  0.00    +0.000 OA
ENDBRANCH   1  13
BRANCH   9  14
ATOM     14  C   UNL     1       2.823   8.169  18.048  0.00  0.00    +0.000 C 
BRANCH  14  15
ATOM     15  N   UNL     1       1.618   8.483  18.853  0.00  0.00    +0.000 NA
ATOM     16  C   UNL     1       1.796   8.080  20.257  0.00  0.00    +0.000 C 
BRANCH  15  17
ATOM     17  C   UNL     1       1.328   9.932  18.763  0.00  0.00    +0.000 C 
BRANCH  17  18
ATOM     18  C   UNL     1      -0.130  10.279  18.524  0.00  0.00    +0.000 A 
ATOM     19  C   UNL     1      -0.754  11.281  19.285  0.00  0.00    +0.000 A 
ATOM     20  C   UNL     1      -2.089  11.619  19.059  0.00  0.00    +0.000 A 
ATOM     21  C   UNL     1      -2.816  10.961  18.068  0.00  0.00    +0.000 A 
ATOM     22  C   UNL     1      -2.209   9.963  17.305  0.00  0.00    +0.000 A 
ATOM     23  C   UNL     1      -0.873   9.623  17.534  0.00  0.00    +0.000 A 
ENDBRANCH  17  18
ENDBRANCH  15  17
ENDBRANCH  14  15
ENDBRANCH   9  14
TORSDOF 5
ENDMDL
MODEL 7
REMARK VINA RESULT:      -7.4      1.672      4.777
REMARK  Name = 
REMARK  7 active torsions:
REMARK  status: ('A' for Active; 'I' for Inactive)
REMARK    1  A    between atoms: C_1  and  O_2
REMARK    2  A    between atoms: O_2  and  C_3
REMARK    3  A    between atoms: C_11  and  C_12
REMARK    4  A    between atoms: C_12  and  N_13
REMARK    5  A    between atoms: N_13  and  C_14
REMARK    6  A    between atoms: N_13  and  C_15
REMARK    7  A    between atoms: C_15  and  C_16
REMARK                            x       y       z     vdW  Elec       q    Type
REMARK                         _______ _______ _______ _____ _____    ______ ____
ROOT
ATOM      1  C   UNL     1       2.956   3.704  20.532  0.00  0.00    +0.000 A 
ATOM      2  C   UNL     1       1.870   4.449  20.989  0.00  0.00    +0.000 A 
ATOM      3  C   UNL     1       1.608   5.698  20.436  0.00  0.00    +0.000 A 
ATOM      4  C   UNL     1       2.444   6.195  19.438  0.00  0.00    +0.000 A 
ATOM      5  O   UNL     1       2.075   7.439  18.896  0.00  0.00    +0.000 OA
ATOM      6  C   UNL     1       2.785   7.994  17.847  0.00  0.00    +0.000 A 
ATOM      7  O   UNL     1       2.454   9.049  17.320  0.00  0.00    +0.000 OA
ATOM      8  C   UNL     1       3.996   7.284  17.427  0.00  0.00    +0.000 A 
ATOM      9  C   UNL     1       4.427   6.133  17.970  0.00  0.00    +0.000 A 
ATOM     10  C   UNL     1       3.571   5.499  18.990  0.00  0.00    +0.000 A 
ATOM     11  C   UNL     1       3.809   4.241  19.554  0.00  0.00    +0.000 A 
ENDROOT
BRANCH   1  13
ATOM     12  C   UNL     1       4.459   1.887  20.390  0.00  0.00    +0.000 C 
ATOM     13  O   UNL     1       3.309   2.467  20.999  0.00  0.00    +0.000 OA
ENDBRANCH   1  13
BRANCH   9  14
ATOM     14  C   UNL     1       5.792   5.553  17.632  0.00  0.00    +0.000 C 
BRANCH  14  15
ATOM     15  N   UNL     1       6.515   6.275  16.557  0.00  0.00    +0.000 NA
ATOM     16  C   UNL     1       7.252   7.430  17.095  0.00  0.00    +0.000 C 
BRANCH  15  17
ATOM     17  C   UNL     1       7.441   5.344  15.874  0.00  0.00    +0.000 C 
BRANCH  17  18
ATOM     18  C   UNL     1       6.928   4.779  14.562  0.00  0.00    +0.000 A 
ATOM     19  C   UNL     1       5.705   4.090  14.517  0.00  0.00    +0.000 A 
ATOM     20  C   UNL     1       5.218   3.583  13.311  0.00  0.00    +0.000 A 
ATOM     21  C   UNL     1       5.947   3.760  12.136  0.00  0.00    +0.000 A 
ATOM     22  C   UNL     1       7.164   4.441  12.167  0.00  0.00    +0.000 A 
ATOM     23  C   UNL     1       7.653   4.946  13.375  0.00  0.00    +0.000 A 
ENDBRANCH  17  18
ENDBRANCH  15  17
ENDBRANCH  14  15
ENDBRANCH   9  14
TORSDOF 5
ENDMDL
MODEL 8
REMARK VINA RESULT:      -7.4      1.557      3.332
REMARK  Name = 
REMARK  7 active torsions:
REMARK  status: ('A' for Active; 'I' for Inactive)
REMARK    1  A    between atoms: C_1  and  O_2
REMARK    2  A    between atoms: O_2  and  C_3
REMARK    3  A    between atoms: C_11  and  C_12
REMARK    4  A    between atoms: C_12  and  N_13
REMARK    5  A    between atoms: N_13  and  C_14
REMARK    6  A    between atoms: N_13  and  C_15
REMARK    7  A    between atoms: C_15  and  C_16
REMARK                            x       y       z     vdW  Elec       q    Type
REMARK                         _______ _______ _______ _____ _____    ______ ____
ROOT
ATOM      1  C   UNL     1       2.063   8.268  19.014  0.00  0.00    +0.000 A 
ATOM      2  C   UNL     1       1.550   7.614  20.133  0.00  0.00    +0.000 A 
ATOM      3  C   UNL     1       2.005   6.340  20.457  0.00  0.00    +0.000 A 
ATOM      4  C   UNL     1       2.961   5.727  19.649  0.00  0.00    +0.000 A 
ATOM      5  O   UNL     1       3.404   4.464  20.080  0.00  0.00    +0.000 OA
ATOM      6  C   UNL     1       4.406   3.796  19.401  0.00  0.00    +0.000 A 
ATOM      7  O   UNL     1       4.851   2.720  19.785  0.00  0.00    +0.000 OA
ATOM      8  C   UNL     1       4.880   4.411  18.158  0.00  0.00    +0.000 A 
ATOM      9  C   UNL     1       4.428   5.578  17.670  0.00  0.00    +0.000 A 
ATOM     10  C   UNL     1       3.460   6.331  18.491  0.00  0.00    +0.000 A 
ATOM     11  C   UNL     1       2.996   7.615  18.191  0.00  0.00    +0.000 A 
ENDROOT
BRANCH   1  13
ATOM     12  C   UNL     1       0.418   9.963  19.052  0.00  0.00    +0.000 C 
ATOM     13  O   UNL     1       1.694   9.519  18.600  0.00  0.00    +0.000 OA
ENDBRANCH   1  13
BRANCH   9  14
ATOM     14  C   UNL     1       4.809   6.063  16.280  0.00  0.00    +0.000 C 
BRANCH  14  15
ATOM     15  N   UNL     1       6.236   6.437  16.131  0.00  0.00    +0.000 NA
ATOM     16  C   UNL     1       6.744   7.092  17.348  0.00  0.00    +0.000 C 
BRANCH  15  17
ATOM     17  C   UNL     1       7.034   5.229  15.822  0.00  0.00    +0.000 C 
BRANCH  17  18
ATOM     18  C   UNL     1       6.949   4.756  14.383  0.00  0.00    +0.000 A 
ATOM     19  C   UNL     1       6.004   3.787  14.009  0.00  0.00    +0.000 A 
ATOM     20  C   UNL     1       5.908   3.361  12.684  0.00  0.00    +0.000 A 
ATOM     21  C   UNL     1       6.754   3.899  11.716  0.00  0.00    +0.000 A 
ATOM     22  C   UNL     1       7.698   4.862  12.073  0.00  0.00    +0.000 A 
ATOM     23  C   UNL     1       7.796   5.287  13.401  0.00  0.00    +0.000 A 
ENDBRANCH  17  18
ENDBRANCH  15  17
ENDBRANCH  14  15
ENDBRANCH   9  14
TORSDOF 5
ENDMDL
MODEL 9
REMARK VINA RESULT:      -7.4      0.986      1.468
REMARK  Name = 
REMARK  7 active torsions:
REMARK  status: ('A' for Active; 'I' for Inactive)
REMARK    1  A    between atoms: C_1  and  O_2
REMARK    2  A    between atoms: O_2  and  C_3
REMARK    3  A    between atoms: C_11  and  C_12
REMARK    4  A    between atoms: C_12  and  N_13
REMARK    5  A    between atoms: N_13  and  C_14
REMARK    6  A    between atoms: N_13  and  C_15
REMARK    7  A    between atoms: C_15  and  C_16
REMARK                            x       y       z     vdW  Elec       q    Type
REMARK                         _______ _______ _______ _____ _____    ______ ____
ROOT
ATOM      1  C   UNL     1       2.259   6.724  19.352  0.00  0.00    +0.000 A 
ATOM      2  C   UNL     1       1.829   6.065  20.502  0.00  0.00    +0.000 A 
ATOM      3  C   UNL     1       2.081   4.705  20.654  0.00  0.00    +0.000 A 
ATOM      4  C   UNL     1       2.752   4.015  19.646  0.00  0.00    +0.000 A 
ATOM      5  O   UNL     1       3.014   2.658  19.905  0.00  0.00    +0.000 OA
ATOM      6  C   UNL     1       3.739   1.893  19.011  0.00  0.00    +0.000 A 
ATOM      7  O   UNL     1       4.030   0.724  19.236  0.00  0.00    +0.000 OA
ATOM      8  C   UNL     1       4.103   2.533  17.744  0.00  0.00    +0.000 A 
ATOM      9  C   UNL     1       3.805   3.804  17.424  0.00  0.00    +0.000 A 
ATOM     10  C   UNL     1       3.153   4.631  18.456  0.00  0.00    +0.000 A 
ATOM     11  C   UNL     1       2.897   6.000  18.330  0.00  0.00    +0.000 A 
ENDROOT
BRANCH   1  13
ATOM     12  C   UNL     1       2.602   8.521  17.858  0.00  0.00    +0.000 C 
ATOM     13  O   UNL     1       2.070   8.054  19.094  0.00  0.00    +0.000 OA
ENDBRANCH   1  13
BRANCH   9  14
ATOM     14  C   UNL     1       4.029   4.347  16.021  0.00  0.00    +0.000 C 
BRANCH  14  15
ATOM     15  N   UNL     1       5.448   4.628  15.692  0.00  0.00    +0.000 NA
ATOM     16  C   UNL     1       5.758   4.244  14.305  0.00  0.00    +0.000 C 
BRANCH  15  17
ATOM     17  C   UNL     1       5.730   6.064  15.907  0.00  0.00    +0.000 C 
BRANCH  17  18
ATOM     18  C   UNL     1       6.691   6.366  17.042  0.00  0.00    +0.000 A 
ATOM     19  C   UNL     1       7.245   7.649  17.180  0.00  0.00    +0.000 A 
ATOM     20  C   UNL     1       8.115   7.938  18.233  0.00  0.00    +0.000 A 
ATOM     21  C   UNL     1       8.440   6.950  19.160  0.00  0.00    +0.000 A 
ATOM     22  C   UNL     1       7.898   5.671  19.034  0.00  0.00    +0.000 A 
ATOM     23  C   UNL     1       7.029   5.380  17.979  0.00  0.00    +0.000 A 
ENDBRANCH  17  18
ENDBRANCH  15  17
ENDBRANCH  14  15
ENDBRANCH   9  14
TORSDOF 5
ENDMDL
