MODEL 1
REMARK VINA RESULT:      -8.9      0.000      0.000
REMARK  Name = 
REMARK  5 active torsions:
REMARK  status: ('A' for Active; 'I' for Inactive)
REMARK    1  A    between atoms: C_1  and  C_2
REMARK    2  A    between atoms: C_8  and  N_9
REMARK    3  A    between atoms: C_15  and  S_16
REMARK    4  A    between atoms: S_16  and  C_17
REMARK    5  A    between atoms: C_27  and  N_28
REMARK                            x       y       z     vdW  Elec       q    Type
REMARK                         _______ _______ _______ _____ _____    ______ ____
ROOT
ATOM      1  N   UNL     1       3.052   6.891  17.898  0.00  0.00    +0.000 N 
ATOM      2  C   UNL     1       2.247   7.813  18.581  0.00  0.00    +0.000 C 
ATOM      3  O   UNL     1       1.821   7.671  19.724  0.00  0.00    +0.000 OA
ATOM      4  N   UNL     1       1.895   8.884  17.779  0.00  0.00    +0.000 N 
ATOM      5  C   UNL     1       0.995   9.824  18.316  0.00  0.00    +0.000 A 
ATOM      6  N   UNL     1       1.406  10.686  19.246  0.00  0.00    +0.000 NA
ATOM      7  C   UNL     1       0.479  11.577  19.667  0.00  0.00    +0.000 A 
ATOM      8  C   UNL     1      -0.819  11.593  19.189  0.00  0.00    +0.000 A 
ATOM      9  C   UNL     1      -1.159  10.657  18.234  0.00  0.00    +0.000 A 
ATOM     10  N   UNL     1      -0.221   9.822  17.748  0.00  0.00    +0.000 NA
ATOM     11  H   UNL     1       3.327   7.141  16.961  0.00  0.00    +0.000 HD
ATOM     12  H   UNL     1       1.544   8.570  16.889  0.00  0.00    +0.000 HD
ENDROOT
BRANCH   1  20
ATOM     13  C   UNL     1       1.375   4.420  17.601  0.00  0.00    +0.000 C 
ATOM     14  C   UNL     1       2.720   4.461  18.272  0.00  0.00    +0.000 A 
ATOM     15  C   UNL     1       3.201   3.244  18.806  0.00  0.00    +0.000 A 
ATOM     16  C   UNL     1       4.428   3.175  19.457  0.00  0.00    +0.000 A 
ATOM     17 CL   UNL     1       4.973   1.692  20.131  0.00  0.00    +0.000 Cl
ATOM     18  C   UNL     1       5.211   4.311  19.566  0.00  0.00    +0.000 A 
ATOM     19  C   UNL     1       4.756   5.519  19.033  0.00  0.00    +0.000 A 
ATOM     20  C   UNL     1       3.509   5.634  18.397  0.00  0.00    +0.000 A 
ENDBRANCH   1  20
BRANCH   9  21
ATOM     21  N   UNL     1      -2.440  10.575  17.718  0.00  0.00    +0.000 N 
ATOM     22  C   UNL     1      -2.756  10.025  16.403  0.00  0.00    +0.000 C 
ATOM     23  C   UNL     1      -3.771  11.006  15.823  0.00  0.00    +0.000 C 
ATOM     24  C   UNL     1      -4.508  11.516  17.046  0.00  0.00    +0.000 C 
ATOM     25  C   UNL     1      -3.430  11.572  18.128  0.00  0.00    +0.000 C 
ENDBRANCH   9  21
BRANCH   7  26
ATOM     26  S   UNL     1       0.985  12.879  20.796  0.00  0.00    +0.000 S 
BRANCH  26  27
ATOM     27  C   UNL     1       1.763  14.089  19.797  0.00  0.00    +0.000 A 
ATOM     28  C   UNL     1       3.083  14.133  19.414  0.00  0.00    +0.000 A 
ATOM     29  N   UNL     1       3.257  15.227  18.612  0.00  0.00    +0.000 N 
ATOM     30  C   UNL     1       2.076  15.919  18.481  0.00  0.00    +0.000 A 
ATOM     31  C   UNL     1       1.797  17.089  17.761  0.00  0.00    +0.000 A 
ATOM     32  C   UNL     1       0.491  17.583  17.798  0.00  0.00    +0.000 A 
ATOM     33  C   UNL     1      -0.499  16.930  18.526  0.00  0.00    +0.000 A 
ATOM     34  C   UNL     1      -0.206  15.755  19.237  0.00  0.00    +0.000 A 
ATOM     35  C   UNL     1       1.109  15.231  19.222  0.00  0.00    +0.000 A 
ATOM     36  H   UNL     1       4.127  15.488  18.172  0.00  0.00    +0.000 HD
ENDBRANCH  26  27
ENDBRANCH   7  26
TORSDOF 4
ENDMDL
MODEL 2
REMARK VINA RESULT:      -8.8      0.825      1.441
REMARK  Name = 
REMARK  5 active torsions:
REMARK  status: ('A' for Active; 'I' for Inactive)
REMARK    1  A    between atoms: C_1  and  C_2
REMARK    2  A    between atoms: C_8  and  N_9
REMARK    3  A    between atoms: C_15  and  S_16
REMARK    4  A    between atoms: S_16  and  C_17
REMARK    5  A    between atoms: C_27  and  N_28
REMARK                            x       y       z     vdW  Elec       q    Type
REMARK                         _______ _______ _______ _____ _____    ______ ____
ROOT
ATOM      1  N   UNL     1       3.060   6.907  17.917  0.00  0.00    +0.000 N 
ATOM      2  C   UNL     1       2.248   7.821  18.602  0.00  0.00    +0.000 C 
ATOM      3  O   UNL     1       1.811   7.667  19.739  0.00  0.00    +0.000 OA
ATOM      4  N   UNL     1       1.903   8.901  17.808  0.00  0.00    +0.000 N 
ATOM      5  C   UNL     1       0.997   9.835  18.346  0.00  0.00    +0.000 A 
ATOM      6  N   UNL     1       1.398  10.687  19.289  0.00  0.00    +0.000 NA
ATOM      7  C   UNL     1       0.467  11.573  19.711  0.00  0.00    +0.000 A 
ATOM      8  C   UNL     1      -0.827  11.593  19.221  0.00  0.00    +0.000 A 
ATOM      9  C   UNL     1      -1.158  10.667  18.253  0.00  0.00    +0.000 A 
ATOM     10  N   UNL     1      -0.214   9.838  17.767  0.00  0.00    +0.000 NA
ATOM     11  H   UNL     1       3.344   7.168  16.985  0.00  0.00    +0.000 HD
ATOM     12  H   UNL     1       1.560   8.596  16.911  0.00  0.00    +0.000 HD
ENDROOT
BRANCH   1  20
ATOM     13  C   UNL     1       1.364   4.448  17.625  0.00  0.00    +0.000 C 
ATOM     14  C   UNL     1       2.716   4.479  18.285  0.00  0.00    +0.000 A 
ATOM     15  C   UNL     1       3.193   3.256  18.809  0.00  0.00    +0.000 A 
ATOM     16  C   UNL     1       4.425   3.177  19.449  0.00  0.00    +0.000 A 
ATOM     17 CL   UNL     1       4.967   1.687  20.112  0.00  0.00    +0.000 Cl
ATOM     18  C   UNL     1       5.217   4.307  19.555  0.00  0.00    +0.000 A 
ATOM     19  C   UNL     1       4.765   5.520  19.031  0.00  0.00    +0.000 A 
ATOM     20  C   UNL     1       3.513   5.645  18.407  0.00  0.00    +0.000 A 
ENDBRANCH   1  20
BRANCH   9  21
ATOM     21  N   UNL     1      -2.433  10.590  17.724  0.00  0.00    +0.000 N 
ATOM     22  C   UNL     1      -2.741  10.016  16.417  0.00  0.00    +0.000 C 
ATOM     23  C   UNL     1      -3.737  10.996  15.805  0.00  0.00    +0.000 C 
ATOM     24  C   UNL     1      -4.482  11.541  17.009  0.00  0.00    +0.000 C 
ATOM     25  C   UNL     1      -3.416  11.607  18.101  0.00  0.00    +0.000 C 
ENDBRANCH   9  21
BRANCH   7  26
ATOM     26  S   UNL     1       0.961  12.863  20.858  0.00  0.00    +0.000 S 
BRANCH  26  27
ATOM     27  C   UNL     1       0.746  14.369  19.989  0.00  0.00    +0.000 A 
ATOM     28  C   UNL     1      -0.344  15.207  20.028  0.00  0.00    +0.000 A 
ATOM     29  N   UNL     1      -0.081  16.284  19.226  0.00  0.00    +0.000 N 
ATOM     30  C   UNL     1       1.157  16.155  18.640  0.00  0.00    +0.000 A 
ATOM     31  C   UNL     1       1.823  17.012  17.754  0.00  0.00    +0.000 A 
ATOM     32  C   UNL     1       3.091  16.634  17.308  0.00  0.00    +0.000 A 
ATOM     33  C   UNL     1       3.672  15.444  17.735  0.00  0.00    +0.000 A 
ATOM     34  C   UNL     1       2.995  14.598  18.628  0.00  0.00    +0.000 A 
ATOM     35  C   UNL     1       1.707  14.952  19.096  0.00  0.00    +0.000 A 
ATOM     36  H   UNL     1      -0.703  17.067  19.088  0.00  0.00    +0.000 HD
ENDBRANCH  26  27
ENDBRANCH   7  26
TORSDOF 4
ENDMDL
MODEL 3
REMARK VINA RESULT:      -8.8      0.722      1.307
REMARK  Name = 
REMARK  5 active torsions:
REMARK  status: ('A' for Active; 'I' for Inactive)
REMARK    1  A    between atoms: C_1  and  C_2
REMARK    2  A    between atoms: C_8  and  N_9
REMARK    3  A    between atoms: C_15  and  S_16
REMARK    4  A    between atoms: S_16  and  C_17
REMARK    5  A    between atoms: C_27  and  N_28
REMARK                            x       y       z     vdW  Elec       q    Type
REMARK                         _______ _______ _______ _____ _____    ______ ____
ROOT
ATOM      1  N   UNL     1       2.930   6.863  17.955  0.00  0.00    +0.000 N 
ATOM      2  C   UNL     1       2.230   7.886  18.608  0.00  0.00    +0.000 C 
ATOM      3  O   UNL     1       1.936   7.895  19.800  0.00  0.00    +0.000 OA
ATOM      4  N   UNL     1       1.811   8.868  17.727  0.00  0.00    +0.000 N 
ATOM      5  C   UNL     1       1.000   9.896  18.244  0.00  0.00    +0.000 A 
ATOM      6  N   UNL     1       1.533  10.846  19.012  0.00  0.00    +0.000 NA
ATOM      7  C   UNL     1       0.681  11.812  19.424  0.00  0.00    +0.000 A 
ATOM      8  C   UNL     1      -0.663  11.818  19.096  0.00  0.00    +0.000 A 
ATOM      9  C   UNL     1      -1.132  10.788  18.305  0.00  0.00    +0.000 A 
ATOM     10  N   UNL     1      -0.274   9.870  17.821  0.00  0.00    +0.000 NA
ATOM     11  H   UNL     1       3.101   6.992  16.969  0.00  0.00    +0.000 HD
ATOM     12  H   UNL     1       1.352   8.464  16.927  0.00  0.00    +0.000 HD
ENDROOT
BRANCH   1  20
ATOM     13  C   UNL     1       5.830   6.114  17.759  0.00  0.00    +0.000 C 
ATOM     14  C   UNL     1       4.781   5.288  18.451  0.00  0.00    +0.000 A 
ATOM     15  C   UNL     1       5.211   4.071  19.028  0.00  0.00    +0.000 A 
ATOM     16  C   UNL     1       4.319   3.227  19.681  0.00  0.00    +0.000 A 
ATOM     17 CL   UNL     1       4.859   1.735  20.342  0.00  0.00    +0.000 Cl
ATOM     18  C   UNL     1       2.989   3.591  19.796  0.00  0.00    +0.000 A 
ATOM     19  C   UNL     1       2.551   4.796  19.241  0.00  0.00    +0.000 A 
ATOM     20  C   UNL     1       3.415   5.658  18.547  0.00  0.00    +0.000 A 
ENDBRANCH   1  20
BRANCH   9  21
ATOM     21  N   UNL     1      -2.465  10.691  17.950  0.00  0.00    +0.000 N 
ATOM     22  C   UNL     1      -2.937  10.078  16.712  0.00  0.00    +0.000 C 
ATOM     23  C   UNL     1      -4.011  11.037  16.206  0.00  0.00    +0.000 C 
ATOM     24  C   UNL     1      -4.596  11.615  17.481  0.00  0.00    +0.000 C 
ATOM     25  C   UNL     1      -3.397  11.716  18.423  0.00  0.00    +0.000 C 
ENDBRANCH   9  21
BRANCH   7  26
ATOM     26  S   UNL     1       1.341  13.219  20.323  0.00  0.00    +0.000 S 
BRANCH  26  27
ATOM     27  C   UNL     1       2.220  14.163  19.137  0.00  0.00    +0.000 A 
ATOM     28  C   UNL     1       3.402  13.832  18.517  0.00  0.00    +0.000 A 
ATOM     29  N   UNL     1       3.718  14.835  17.642  0.00  0.00    +0.000 N 
ATOM     30  C   UNL     1       2.772  15.833  17.694  0.00  0.00    +0.000 A 
ATOM     31  C   UNL     1       2.697  17.035  16.978  0.00  0.00    +0.000 A 
ATOM     32  C   UNL     1       1.612  17.878  17.228  0.00  0.00    +0.000 A 
ATOM     33  C   UNL     1       0.637  17.529  18.158  0.00  0.00    +0.000 A 
ATOM     34  C   UNL     1       0.722  16.318  18.863  0.00  0.00    +0.000 A 
ATOM     35  C   UNL     1       1.811  15.444  18.634  0.00  0.00    +0.000 A 
ATOM     36  H   UNL     1       4.525  14.840  17.037  0.00  0.00    +0.000 HD
ENDBRANCH  26  27
ENDBRANCH   7  26
TORSDOF 4
ENDMDL
MODEL 4
REMARK VINA RESULT:      -8.7      2.249      3.191
REMARK  Name = 
REMARK  5 active torsions:
REMARK  status: ('A' for Active; 'I' for Inactive)
REMARK    1  A    between atoms: C_1  and  C_2
REMARK    2  A    between atoms: C_8  and  N_9
REMARK    3  A    between atoms: C_15  and  S_16
REMARK    4  A    between atoms: S_16  and  C_17
REMARK    5  A    between atoms: C_27  and  N_28
REMARK                            x       y       z     vdW  Elec       q    Type
REMARK                         _______ _______ _______ _____ _____    ______ ____
ROOT
ATOM      1  N   UNL     1       3.084   6.850  17.904  0.00  0.00    +0.000 N 
ATOM      2  C   UNL     1       2.258   7.765  18.570  0.00  0.00    +0.000 C 
ATOM      3  O   UNL     1       1.806   7.617  19.703  0.00  0.00    +0.000 OA
ATOM      4  N   UNL     1       1.918   8.836  17.763  0.00  0.00    +0.000 N 
ATOM      5  C   UNL     1       1.000   9.770  18.281  0.00  0.00    +0.000 A 
ATOM      6  N   UNL     1       1.384  10.632  19.223  0.00  0.00    +0.000 NA
ATOM      7  C   UNL     1       0.443  11.516  19.625  0.00  0.00    +0.000 A 
ATOM      8  C   UNL     1      -0.844  11.526  19.117  0.00  0.00    +0.000 A 
ATOM      9  C   UNL     1      -1.157  10.590  18.152  0.00  0.00    +0.000 A 
ATOM     10  N   UNL     1      -0.203   9.762  17.686  0.00  0.00    +0.000 NA
ATOM     11  H   UNL     1       3.380   7.104  16.974  0.00  0.00    +0.000 HD
ATOM     12  H   UNL     1       1.589   8.523  16.864  0.00  0.00    +0.000 HD
ENDROOT
BRANCH   1  20
ATOM     13  C   UNL     1       1.388   4.388  17.643  0.00  0.00    +0.000 C 
ATOM     14  C   UNL     1       2.739   4.426  18.302  0.00  0.00    +0.000 A 
ATOM     15  C   UNL     1       3.216   3.210  18.843  0.00  0.00    +0.000 A 
ATOM     16  C   UNL     1       4.448   3.139  19.484  0.00  0.00    +0.000 A 
ATOM     17 CL   UNL     1       4.989   1.658  20.166  0.00  0.00    +0.000 Cl
ATOM     18  C   UNL     1       5.240   4.270  19.576  0.00  0.00    +0.000 A 
ATOM     19  C   UNL     1       4.788   5.477  19.036  0.00  0.00    +0.000 A 
ATOM     20  C   UNL     1       3.537   5.594  18.410  0.00  0.00    +0.000 A 
ENDBRANCH   1  20
BRANCH   9  21
ATOM     21  N   UNL     1      -2.424  10.502  17.606  0.00  0.00    +0.000 N 
ATOM     22  C   UNL     1      -2.709   9.933  16.292  0.00  0.00    +0.000 C 
ATOM     23  C   UNL     1      -3.708  10.906  15.673  0.00  0.00    +0.000 C 
ATOM     24  C   UNL     1      -4.475  11.435  16.870  0.00  0.00    +0.000 C 
ATOM     25  C   UNL     1      -3.423  11.506  17.977  0.00  0.00    +0.000 C 
ENDBRANCH   9  21
BRANCH   7  26
ATOM     26  S   UNL     1       0.914  12.817  20.769  0.00  0.00    +0.000 S 
BRANCH  26  27
ATOM     27  C   UNL     1      -0.558  13.711  21.093  0.00  0.00    +0.000 A 
ATOM     28  C   UNL     1      -0.940  14.915  20.549  0.00  0.00    +0.000 A 
ATOM     29  N   UNL     1      -2.171  15.237  21.052  0.00  0.00    +0.000 N 
ATOM     30  C   UNL     1      -2.594  14.274  21.938  0.00  0.00    +0.000 A 
ATOM     31  C   UNL     1      -3.781  14.198  22.680  0.00  0.00    +0.000 A 
ATOM     32  C   UNL     1      -3.959  13.092  23.515  0.00  0.00    +0.000 A 
ATOM     33  C   UNL     1      -2.988  12.099  23.601  0.00  0.00    +0.000 A 
ATOM     34  C   UNL     1      -1.808  12.186  22.846  0.00  0.00    +0.000 A 
ATOM     35  C   UNL     1      -1.596  13.295  21.993  0.00  0.00    +0.000 A 
ATOM     36  H   UNL     1      -2.699  16.060  20.803  0.00  0.00    +0.000 HD
ENDBRANCH  26  27
ENDBRANCH   7  26
TORSDOF 4
ENDMDL
MODEL 5
REMARK VINA RESULT:      -8.6      1.072      1.840
REMARK  Name = 
REMARK  5 active torsions:
REMARK  status: ('A' for Active; 'I' for Inactive)
REMARK    1  A    between atoms: C_1  and  C_2
REMARK    2  A    between atoms: C_8  and  N_9
REMARK    3  A    between atoms: C_15  and  S_16
REMARK    4  A    between atoms: S_16  and  C_17
REMARK    5  A    between atoms: C_27  and  N_28
REMARK                            x       y       z     vdW  Elec       q    Type
REMARK                         _______ _______ _______ _____ _____    ______ ____
ROOT
ATOM      1  N   UNL     1       2.967   6.936  18.008  0.00  0.00    +0.000 N 
ATOM      2  C   UNL     1       2.204   7.915  18.657  0.00  0.00    +0.000 C 
ATOM      3  O   UNL     1       1.839   7.867  19.829  0.00  0.00    +0.000 OA
ATOM      4  N   UNL     1       1.814   8.923  17.793  0.00  0.00    +0.000 N 
ATOM      5  C   UNL     1       0.947   9.910  18.301  0.00  0.00    +0.000 A 
ATOM      6  N   UNL     1       1.411  10.839  19.137  0.00  0.00    +0.000 NA
ATOM      7  C   UNL     1       0.511  11.768  19.535  0.00  0.00    +0.000 A 
ATOM      8  C   UNL     1      -0.811  11.757  19.127  0.00  0.00    +0.000 A 
ATOM      9  C   UNL     1      -1.206  10.751  18.268  0.00  0.00    +0.000 A 
ATOM     10  N   UNL     1      -0.298   9.873  17.800  0.00  0.00    +0.000 NA
ATOM     11  H   UNL     1       3.193   7.109  17.040  0.00  0.00    +0.000 HD
ATOM     12  H   UNL     1       1.414   8.543  16.951  0.00  0.00    +0.000 HD
ENDROOT
BRANCH   1  20
ATOM     13  C   UNL     1       5.870   6.194  17.832  0.00  0.00    +0.000 C 
ATOM     14  C   UNL     1       4.813   5.352  18.493  0.00  0.00    +0.000 A 
ATOM     15  C   UNL     1       5.237   4.123  19.049  0.00  0.00    +0.000 A 
ATOM     16  C   UNL     1       4.338   3.264  19.671  0.00  0.00    +0.000 A 
ATOM     17 CL   UNL     1       4.871   1.759  20.306  0.00  0.00    +0.000 Cl
ATOM     18  C   UNL     1       3.006   3.624  19.777  0.00  0.00    +0.000 A 
ATOM     19  C   UNL     1       2.573   4.841  19.244  0.00  0.00    +0.000 A 
ATOM     20  C   UNL     1       3.446   5.719  18.580  0.00  0.00    +0.000 A 
ENDBRANCH   1  20
BRANCH   9  21
ATOM     21  N   UNL     1      -2.512  10.639  17.829  0.00  0.00    +0.000 N 
ATOM     22  C   UNL     1      -2.894  10.060  16.544  0.00  0.00    +0.000 C 
ATOM     23  C   UNL     1      -3.958  11.014  16.007  0.00  0.00    +0.000 C 
ATOM     24  C   UNL     1      -4.632  11.534  17.263  0.00  0.00    +0.000 C 
ATOM     25  C   UNL     1      -3.494  11.626  18.279  0.00  0.00    +0.000 C 
ENDBRANCH   9  21
BRANCH   7  26
ATOM     26  S   UNL     1       1.081  13.150  20.528  0.00  0.00    +0.000 S 
BRANCH  26  27
ATOM     27  C   UNL     1       0.294  14.565  19.858  0.00  0.00    +0.000 A 
ATOM     28  C   UNL     1      -1.013  14.955  20.033  0.00  0.00    +0.000 A 
ATOM     29  N   UNL     1      -1.199  16.131  19.361  0.00  0.00    +0.000 N 
ATOM     30  C   UNL     1      -0.040  16.510  18.725  0.00  0.00    +0.000 A 
ATOM     31  C   UNL     1       0.222  17.635  17.930  0.00  0.00    +0.000 A 
ATOM     32  C   UNL     1       1.506  17.777  17.402  0.00  0.00    +0.000 A 
ATOM     33  C   UNL     1       2.494  16.832  17.662  0.00  0.00    +0.000 A 
ATOM     34  C   UNL     1       2.219  15.714  18.466  0.00  0.00    +0.000 A 
ATOM     35  C   UNL     1       0.926  15.539  19.013  0.00  0.00    +0.000 A 
ATOM     36  H   UNL     1      -2.063  16.654  19.340  0.00  0.00    +0.000 HD
ENDBRANCH  26  27
ENDBRANCH   7  26
TORSDOF 4
ENDMDL
MODEL 6
REMARK VINA RESULT:      -8.6      1.141      1.507
REMARK  Name = 
REMARK  5 active torsions:
REMARK  status: ('A' for Active; 'I' for Inactive)
REMARK    1  A    between atoms: C_1  and  C_2
REMARK    2  A    between atoms: C_8  and  N_9
REMARK    3  A    between atoms: C_15  and  S_16
REMARK    4  A    between atoms: S_16  and  C_17
REMARK    5  A    between atoms: C_27  and  N_28
REMARK                            x       y       z     vdW  Elec       q    Type
REMARK                         _______ _______ _______ _____ _____    ______ ____
ROOT
ATOM      1  N   UNL     1       2.372   7.806  17.937  0.00  0.00    +0.000 N 
ATOM      2  C   UNL     1       1.645   8.727  18.702  0.00  0.00    +0.000 C 
ATOM      3  O   UNL     1       1.399   8.615  19.900  0.00  0.00    +0.000 OA
ATOM      4  N   UNL     1       1.141   9.757  17.928  0.00  0.00    +0.000 N 
ATOM      5  C   UNL     1       0.297  10.689  18.563  0.00  0.00    +0.000 A 
ATOM      6  N   UNL     1       0.810  11.596  19.394  0.00  0.00    +0.000 NA
ATOM      7  C   UNL     1      -0.075  12.473  19.921  0.00  0.00    +0.000 A 
ATOM      8  C   UNL     1      -1.430  12.432  19.642  0.00  0.00    +0.000 A 
ATOM      9  C   UNL     1      -1.874  11.452  18.778  0.00  0.00    +0.000 A 
ATOM     10  N   UNL     1      -0.989  10.628  18.184  0.00  0.00    +0.000 NA
ATOM     11  H   UNL     1       2.497   8.030  16.961  0.00  0.00    +0.000 HD
ATOM     12  H   UNL     1       0.672   9.400  17.111  0.00  0.00    +0.000 HD
ENDROOT
BRANCH   1  20
ATOM     13  C   UNL     1       4.919   6.752  16.749  0.00  0.00    +0.000 C 
ATOM     14  C   UNL     1       4.140   6.069  17.840  0.00  0.00    +0.000 A 
ATOM     15  C   UNL     1       4.653   4.839  18.311  0.00  0.00    +0.000 A 
ATOM     16  C   UNL     1       4.003   4.120  19.309  0.00  0.00    +0.000 A 
ATOM     17 CL   UNL     1       4.627   2.609  19.838  0.00  0.00    +0.000 Cl
ATOM     18  C   UNL     1       2.846   4.625  19.875  0.00  0.00    +0.000 A 
ATOM     19  C   UNL     1       2.332   5.845  19.428  0.00  0.00    +0.000 A 
ATOM     20  C   UNL     1       2.943   6.583  18.401  0.00  0.00    +0.000 A 
ENDBRANCH   1  20
BRANCH   9  21
ATOM     21  N   UNL     1      -3.213  11.312  18.462  0.00  0.00    +0.000 N 
ATOM     22  C   UNL     1      -3.702  10.877  17.157  0.00  0.00    +0.000 C 
ATOM     23  C   UNL     1      -4.866  11.820  16.862  0.00  0.00    +0.000 C 
ATOM     24  C   UNL     1      -5.425  12.132  18.237  0.00  0.00    +0.000 C 
ATOM     25  C   UNL     1      -4.190  12.169  19.136  0.00  0.00    +0.000 C 
ENDBRANCH   9  21
BRANCH   7  26
ATOM     26  S   UNL     1       0.545  13.830  20.919  0.00  0.00    +0.000 S 
BRANCH  26  27
ATOM     27  C   UNL     1       1.362  14.901  19.798  0.00  0.00    +0.000 A 
ATOM     28  C   UNL     1       2.694  14.892  19.455  0.00  0.00    +0.000 A 
ATOM     29  N   UNL     1       2.901  15.875  18.526  0.00  0.00    +0.000 N 
ATOM     30  C   UNL     1       1.728  16.547  18.271  0.00  0.00    +0.000 A 
ATOM     31  C   UNL     1       1.479  17.616  17.398  0.00  0.00    +0.000 A 
ATOM     32  C   UNL     1       0.176  18.114  17.330  0.00  0.00    +0.000 A 
ATOM     33  C   UNL     1      -0.840  17.562  18.104  0.00  0.00    +0.000 A 
ATOM     34  C   UNL     1      -0.577  16.487  18.968  0.00  0.00    +0.000 A 
ATOM     35  C   UNL     1       0.734  15.962  19.062  0.00  0.00    +0.000 A 
ATOM     36  H   UNL     1       3.785  16.075  18.084  0.00  0.00    +0.000 HD
ENDBRANCH  26  27
ENDBRANCH   7  26
TORSDOF 4
ENDMDL
MODEL 7
REMARK VINA RESULT:      -8.4      1.456      2.155
REMARK  Name = 
REMARK  5 active torsions:
REMARK  status: ('A' for Active; 'I' for Inactive)
REMARK    1  A    between atoms: C_1  and  C_2
REMARK    2  A    between atoms: C_8  and  N_9
REMARK    3  A    between atoms: C_15  and  S_16
REMARK    4  A    between atoms: S_16  and  C_17
REMARK    5  A    between atoms: C_27  and  N_28
REMARK                            x       y       z     vdW  Elec       q    Type
REMARK                         _______ _______ _______ _____ _____    ______ ____
ROOT
ATOM      1  N   UNL     1       2.991   6.772  17.829  0.00  0.00    +0.000 N 
ATOM      2  C   UNL     1       2.265   7.757  18.511  0.00  0.00    +0.000 C 
ATOM      3  O   UNL     1       1.936   7.703  19.693  0.00  0.00    +0.000 OA
ATOM      4  N   UNL     1       1.869   8.781  17.670  0.00  0.00    +0.000 N 
ATOM      5  C   UNL     1       1.036   9.778  18.214  0.00  0.00    +0.000 A 
ATOM      6  N   UNL     1       1.542  10.689  19.046  0.00  0.00    +0.000 NA
ATOM      7  C   UNL     1       0.672  11.629  19.481  0.00  0.00    +0.000 A 
ATOM      8  C   UNL     1      -0.662  11.647  19.112  0.00  0.00    +0.000 A 
ATOM      9  C   UNL     1      -1.101  10.658  18.256  0.00  0.00    +0.000 A 
ATOM     10  N   UNL     1      -0.224   9.769  17.751  0.00  0.00    +0.000 NA
ATOM     11  H   UNL     1       3.191   6.951  16.856  0.00  0.00    +0.000 HD
ATOM     12  H   UNL     1       1.436   8.418  16.836  0.00  0.00    +0.000 HD
ENDROOT
BRANCH   1  20
ATOM     13  C   UNL     1       1.337   4.275  17.639  0.00  0.00    +0.000 C 
ATOM     14  C   UNL     1       2.686   4.355  18.299  0.00  0.00    +0.000 A 
ATOM     15  C   UNL     1       3.182   3.164  18.876  0.00  0.00    +0.000 A 
ATOM     16  C   UNL     1       4.414   3.133  19.521  0.00  0.00    +0.000 A 
ATOM     17 CL   UNL     1       4.978   1.682  20.248  0.00  0.00    +0.000 Cl
ATOM     18  C   UNL     1       5.187   4.279  19.580  0.00  0.00    +0.000 A 
ATOM     19  C   UNL     1       4.716   5.461  19.004  0.00  0.00    +0.000 A 
ATOM     20  C   UNL     1       3.464   5.539  18.373  0.00  0.00    +0.000 A 
ENDBRANCH   1  20
BRANCH   9  21
ATOM     21  N   UNL     1      -2.422  10.575  17.855  0.00  0.00    +0.000 N 
ATOM     22  C   UNL     1      -2.856   9.983  16.593  0.00  0.00    +0.000 C 
ATOM     23  C   UNL     1      -3.908  10.956  16.067  0.00  0.00    +0.000 C 
ATOM     24  C   UNL     1      -4.531  11.518  17.330  0.00  0.00    +0.000 C 
ATOM     25  C   UNL     1      -3.363  11.598  18.312  0.00  0.00    +0.000 C 
ENDBRANCH   9  21
BRANCH   7  26
ATOM     26  S   UNL     1       1.297  12.990  20.471  0.00  0.00    +0.000 S 
BRANCH  26  27
ATOM     27  C   UNL     1       2.519  13.766  19.483  0.00  0.00    +0.000 A 
ATOM     28  C   UNL     1       2.515  13.916  18.117  0.00  0.00    +0.000 A 
ATOM     29  N   UNL     1       3.641  14.607  17.762  0.00  0.00    +0.000 N 
ATOM     30  C   UNL     1       4.399  14.892  18.874  0.00  0.00    +0.000 A 
ATOM     31  C   UNL     1       5.619  15.575  18.976  0.00  0.00    +0.000 A 
ATOM     32  C   UNL     1       6.177  15.729  20.247  0.00  0.00    +0.000 A 
ATOM     33  C   UNL     1       5.537  15.221  21.374  0.00  0.00    +0.000 A 
ATOM     34  C   UNL     1       4.311  14.545  21.256  0.00  0.00    +0.000 A 
ATOM     35  C   UNL     1       3.722  14.371  19.981  0.00  0.00    +0.000 A 
ATOM     36  H   UNL     1       3.880  14.876  16.819  0.00  0.00    +0.000 HD
ENDBRANCH  26  27
ENDBRANCH   7  26
TORSDOF 4
ENDMDL
MODEL 8
REMARK VINA RESULT:      -8.4      2.290      3.414
REMARK  Name = 
REMARK  5 active torsions:
REMARK  status: ('A' for Active; 'I' for Inactive)
REMARK    1  A    between atoms: C_1  and  C_2
REMARK    2  A    between atoms: C_8  and  N_9
REMARK    3  A    between atoms: C_15  and  S_16
REMARK    4  A    between atoms: S_16  and  C_17
REMARK    5  A    between atoms: C_27  and  N_28
REMARK                            x       y       z     vdW  Elec       q    Type
REMARK                         _______ _______ _______ _____ _____    ______ ____
ROOT
ATOM      1  N   UNL     1       2.988   6.937  18.011  0.00  0.00    +0.000 N 
ATOM      2  C   UNL     1       2.180   7.887  18.648  0.00  0.00    +0.000 C 
ATOM      3  O   UNL     1       1.765   7.805  19.801  0.00  0.00    +0.000 OA
ATOM      4  N   UNL     1       1.811   8.909  17.791  0.00  0.00    +0.000 N 
ATOM      5  C   UNL     1       0.907   9.869  18.283  0.00  0.00    +0.000 A 
ATOM      6  N   UNL     1       1.316  10.785  19.160  0.00  0.00    +0.000 NA
ATOM      7  C   UNL     1       0.384  11.689  19.539  0.00  0.00    +0.000 A 
ATOM      8  C   UNL     1      -0.918  11.667  19.073  0.00  0.00    +0.000 A 
ATOM      9  C   UNL     1      -1.257  10.676  18.174  0.00  0.00    +0.000 A 
ATOM     10  N   UNL     1      -0.315   9.824  17.727  0.00  0.00    +0.000 NA
ATOM     11  H   UNL     1       3.254   7.137  17.059  0.00  0.00    +0.000 HD
ATOM     12  H   UNL     1       1.455   8.543  16.923  0.00  0.00    +0.000 HD
ENDROOT
BRANCH   1  20
ATOM     13  C   UNL     1       5.897   6.210  17.878  0.00  0.00    +0.000 C 
ATOM     14  C   UNL     1       4.833   5.354  18.508  0.00  0.00    +0.000 A 
ATOM     15  C   UNL     1       5.252   4.120  19.055  0.00  0.00    +0.000 A 
ATOM     16  C   UNL     1       4.346   3.249  19.649  0.00  0.00    +0.000 A 
ATOM     17 CL   UNL     1       4.874   1.737  20.273  0.00  0.00    +0.000 Cl
ATOM     18  C   UNL     1       3.010   3.601  19.736  0.00  0.00    +0.000 A 
ATOM     19  C   UNL     1       2.582   4.823  19.211  0.00  0.00    +0.000 A 
ATOM     20  C   UNL     1       3.462   5.714  18.575  0.00  0.00    +0.000 A 
ENDBRANCH   1  20
BRANCH   9  21
ATOM     21  N   UNL     1      -2.541  10.553  17.675  0.00  0.00    +0.000 N 
ATOM     22  C   UNL     1      -2.858   9.970  16.374  0.00  0.00    +0.000 C 
ATOM     23  C   UNL     1      -3.904  10.915  15.788  0.00  0.00    +0.000 C 
ATOM     24  C   UNL     1      -4.639  11.431  17.010  0.00  0.00    +0.000 C 
ATOM     25  C   UNL     1      -3.551  11.533  18.077  0.00  0.00    +0.000 C 
ENDBRANCH   9  21
BRANCH   7  26
ATOM     26  S   UNL     1       0.886  13.057  20.589  0.00  0.00    +0.000 S 
BRANCH  26  27
ATOM     27  C   UNL     1      -0.598  13.872  21.038  0.00  0.00    +0.000 A 
ATOM     28  C   UNL     1      -1.049  15.092  20.592  0.00  0.00    +0.000 A 
ATOM     29  N   UNL     1      -2.264  15.335  21.170  0.00  0.00    +0.000 N 
ATOM     30  C   UNL     1      -2.609  14.302  22.012  0.00  0.00    +0.000 A 
ATOM     31  C   UNL     1      -3.755  14.134  22.802  0.00  0.00    +0.000 A 
ATOM     32  C   UNL     1      -3.854  12.973  23.570  0.00  0.00    +0.000 A 
ATOM     33  C   UNL     1      -2.846  12.014  23.547  0.00  0.00    +0.000 A 
ATOM     34  C   UNL     1      -1.707  12.193  22.745  0.00  0.00    +0.000 A 
ATOM     35  C   UNL     1      -1.576  13.361  21.957  0.00  0.00    +0.000 A 
ATOM     36  H   UNL     1      -2.832  16.151  21.000  0.00  0.00    +0.000 HD
ENDBRANCH  26  27
ENDBRANCH   7  26
TORSDOF 4
ENDMDL
MODEL 9
REMARK VINA RESULT:      -8.3      2.343      3.127
REMARK  Name = 
REMARK  5 active torsions:
REMARK  status: ('A' for Active; 'I' for Inactive)
REMARK    1  A    between atoms: C_1  and  C_2
REMARK    2  A    between atoms: C_8  and  N_9
REMARK    3  A    between atoms: C_15  and  S_16
REMARK    4  A    between atoms: S_16  and  C_17
REMARK    5  A    between atoms: C_27  and  N_28
REMARK                            x       y       z     vdW  Elec       q    Type
REMARK                         _______ _______ _______ _____ _____    ______ ____
ROOT
ATOM      1  N   UNL     1       3.105   6.838  17.937  0.00  0.00    +0.000 N 
ATOM      2  C   UNL     1       2.276   7.754  18.598  0.00  0.00    +0.000 C 
ATOM      3  O   UNL     1       1.811   7.603  19.724  0.00  0.00    +0.000 OA
ATOM      4  N   UNL     1       1.951   8.830  17.792  0.00  0.00    +0.000 N 
ATOM      5  C   UNL     1       1.032   9.766  18.304  0.00  0.00    +0.000 A 
ATOM      6  N   UNL     1       1.409  10.622  19.254  0.00  0.00    +0.000 NA
ATOM      7  C   UNL     1       0.467  11.508  19.649  0.00  0.00    +0.000 A 
ATOM      8  C   UNL     1      -0.814  11.527  19.127  0.00  0.00    +0.000 A 
ATOM      9  C   UNL     1      -1.120  10.597  18.154  0.00  0.00    +0.000 A 
ATOM     10  N   UNL     1      -0.165   9.766  17.695  0.00  0.00    +0.000 NA
ATOM     11  H   UNL     1       3.413   7.095  17.011  0.00  0.00    +0.000 HD
ATOM     12  H   UNL     1       1.630   8.523  16.888  0.00  0.00    +0.000 HD
ENDROOT
BRANCH   1  20
ATOM     13  C   UNL     1       1.390   4.390  17.668  0.00  0.00    +0.000 C 
ATOM     14  C   UNL     1       2.740   4.416  18.331  0.00  0.00    +0.000 A 
ATOM     15  C   UNL     1       3.206   3.196  18.871  0.00  0.00    +0.000 A 
ATOM     16  C   UNL     1       4.435   3.114  19.515  0.00  0.00    +0.000 A 
ATOM     17 CL   UNL     1       4.962   1.627  20.197  0.00  0.00    +0.000 Cl
ATOM     18  C   UNL     1       5.236   4.238  19.610  0.00  0.00    +0.000 A 
ATOM     19  C   UNL     1       4.796   5.449  19.071  0.00  0.00    +0.000 A 
ATOM     20  C   UNL     1       3.546   5.578  18.442  0.00  0.00    +0.000 A 
ENDBRANCH   1  20
BRANCH   9  21
ATOM     21  N   UNL     1      -2.382  10.517  17.594  0.00  0.00    +0.000 N 
ATOM     22  C   UNL     1      -2.658   9.928  16.286  0.00  0.00    +0.000 C 
ATOM     23  C   UNL     1      -3.635  10.904  15.637  0.00  0.00    +0.000 C 
ATOM     24  C   UNL     1      -4.409  11.467  16.815  0.00  0.00    +0.000 C 
ATOM     25  C   UNL     1      -3.370  11.542  17.933  0.00  0.00    +0.000 C 
ENDBRANCH   9  21
BRANCH   7  26
ATOM     26  S   UNL     1       0.932  12.803  20.804  0.00  0.00    +0.000 S 
BRANCH  26  27
ATOM     27  C   UNL     1      -0.348  12.845  22.000  0.00  0.00    +0.000 A 
ATOM     28  C   UNL     1      -1.059  11.779  22.499  0.00  0.00    +0.000 A 
ATOM     29  N   UNL     1      -1.938  12.254  23.433  0.00  0.00    +0.000 N 
ATOM     30  C   UNL     1      -1.833  13.621  23.539  0.00  0.00    +0.000 A 
ATOM     31  C   UNL     1      -2.533  14.514  24.362  0.00  0.00    +0.000 A 
ATOM     32  C   UNL     1      -2.221  15.871  24.269  0.00  0.00    +0.000 A 
ATOM     33  C   UNL     1      -1.243  16.320  23.387  0.00  0.00    +0.000 A 
ATOM     34  C   UNL     1      -0.544  15.413  22.573  0.00  0.00    +0.000 A 
ATOM     35  C   UNL     1      -0.839  14.031  22.643  0.00  0.00    +0.000 A 
ATOM     36  H   UNL     1      -2.570  11.683  23.975  0.00  0.00    +0.000 HD
ENDBRANCH  26  27
ENDBRANCH   7  26
TORSDOF 4
ENDMDL
