MODEL 1
REMARK VINA RESULT:      -7.9      0.000      0.000
REMARK  Name = 
REMARK  9 active torsions:
REMARK  status: ('A' for Active; 'I' for Inactive)
REMARK    1  A    between atoms: C_1  and  O_2
REMARK    2  A    between atoms: O_2  and  C_3
REMARK    3  A    between atoms: C_6  and  N_7
REMARK    4  A    between atoms: N_7  and  C_8
REMARK    5  A    between atoms: N_7  and  S_20
REMARK    6  A    between atoms: C_8  and  C_9
REMARK    7  A    between atoms: N_11  and  C_12
REMARK    8  A    between atoms: C_18  and  C_19
REMARK    9  A    between atoms: S_20  and  C_23
REMARK                            x       y       z     vdW  Elec       q    Type
REMARK                         _______ _______ _______ _____ _____    ______ ____
ROOT
ATOM      1  N   UNL     1       3.383   6.565  17.289  0.00  0.00    +0.000 N 
ENDROOT
BRANCH   1   5
ATOM      2  C   UNL     1       1.774   4.074  20.366  0.00  0.00    +0.000 A 
ATOM      3  C   UNL     1       2.510   5.230  20.659  0.00  0.00    +0.000 A 
ATOM      4  C   UNL     1       3.034   6.034  19.640  0.00  0.00    +0.000 A 
ATOM      5  C   UNL     1       2.860   5.680  18.300  0.00  0.00    +0.000 A 
ATOM      6  C   UNL     1       2.106   4.552  17.995  0.00  0.00    +0.000 A 
ATOM      7  C   UNL     1       1.544   3.763  19.014  0.00  0.00    +0.000 A 
ATOM      8 CL   UNL     1       0.489   2.503  18.482  0.00  0.00    +0.000 Cl
BRANCH   2  10
ATOM      9  C   UNL     1       1.942   2.252  21.910  0.00  0.00    +0.000 C 
ATOM     10  O   UNL     1       1.290   3.443  21.481  0.00  0.00    +0.000 OA
ENDBRANCH   2  10
ENDBRANCH   1   5
BRANCH   1  11
ATOM     11  S   UNL     1       4.807   6.039  16.473  0.00  0.00    +0.000 S 
ATOM     12  O   UNL     1       4.759   4.604  16.298  0.00  0.00    +0.000 OA
ATOM     13  O   UNL     1       4.948   6.915  15.324  0.00  0.00    +0.000 OA
BRANCH  11  14
ATOM     14  C   UNL     1       6.190   6.399  17.564  0.00  0.00    +0.000 A 
ATOM     15  C   UNL     1       6.594   5.483  18.539  0.00  0.00    +0.000 A 
ATOM     16  C   UNL     1       7.719   5.762  19.328  0.00  0.00    +0.000 A 
ATOM     17  C   UNL     1       8.455   6.934  19.125  0.00  0.00    +0.000 A 
ATOM     18  C   UNL     1       8.083   7.822  18.120  0.00  0.00    +0.000 A 
ATOM     19  C   UNL     1       6.960   7.550  17.332  0.00  0.00    +0.000 A 
ENDBRANCH  11  14
ENDBRANCH   1  11
BRANCH   1  20
ATOM     20  C   UNL     1       3.254   8.029  17.485  0.00  0.00    +0.000 C 
BRANCH  20  21
ATOM     21  C   UNL     1       1.947   8.619  17.979  0.00  0.00    +0.000 C 
ATOM     22  O   UNL     1       0.924   8.334  17.352  0.00  0.00    +0.000 OA
ATOM     23  N   UNL     1       2.007   9.455  19.077  0.00  0.00    +0.000 N 
ATOM     24  H   UNL     1       2.926   9.563  19.488  0.00  0.00    +0.000 HD
BRANCH  23  25
ATOM     25  C   UNL     1       0.931  10.205  19.649  0.00  0.00    +0.000 A 
ATOM     26  C   UNL     1       0.313  11.256  18.952  0.00  0.00    +0.000 A 
ATOM     27  C   UNL     1      -0.679  12.045  19.534  0.00  0.00    +0.000 A 
ATOM     28  C   UNL     1      -1.081  11.796  20.836  0.00  0.00    +0.000 A 
ATOM     29  C   UNL     1      -0.514  10.736  21.544  0.00  0.00    +0.000 A 
ATOM     30 CL   UNL     1      -1.094  10.508  23.160  0.00  0.00    +0.000 Cl
ATOM     31  C   UNL     1       0.485   9.916  20.965  0.00  0.00    +0.000 A 
ATOM     32  C   UNL     1       1.054   8.744  21.722  0.00  0.00    +0.000 C 
ENDBRANCH  23  25
ENDBRANCH  20  21
ENDBRANCH   1  20
TORSDOF 7
ENDMDL
MODEL 2
REMARK VINA RESULT:      -7.4      4.248      9.004
REMARK  Name = 
REMARK  9 active torsions:
REMARK  status: ('A' for Active; 'I' for Inactive)
REMARK    1  A    between atoms: C_1  and  O_2
REMARK    2  A    between atoms: O_2  and  C_3
REMARK    3  A    between atoms: C_6  and  N_7
REMARK    4  A    between atoms: N_7  and  C_8
REMARK    5  A    between atoms: N_7  and  S_20
REMARK    6  A    between atoms: C_8  and  C_9
REMARK    7  A    between atoms: N_11  and  C_12
REMARK    8  A    between atoms: C_18  and  C_19
REMARK    9  A    between atoms: S_20  and  C_23
REMARK                            x       y       z     vdW  Elec       q    Type
REMARK                         _______ _______ _______ _____ _____    ______ ____
ROOT
ATOM      1  N   UNL     1       0.172  11.837  20.377  0.00  0.00    +0.000 N 
ENDROOT
BRANCH   1   5
ATOM      2  C   UNL     1       3.336  14.344  18.974  0.00  0.00    +0.000 A 
ATOM      3  C   UNL     1       2.811  13.307  18.191  0.00  0.00    +0.000 A 
ATOM      4  C   UNL     1       1.777  12.491  18.666  0.00  0.00    +0.000 A 
ATOM      5  C   UNL     1       1.265  12.676  19.953  0.00  0.00    +0.000 A 
ATOM      6  C   UNL     1       1.757  13.721  20.728  0.00  0.00    +0.000 A 
ATOM      7  C   UNL     1       2.767  14.567  20.240  0.00  0.00    +0.000 A 
ATOM      8 CL   UNL     1       3.149  15.923  21.241  0.00  0.00    +0.000 Cl
BRANCH   2  10
ATOM      9  C   UNL     1       5.638  14.976  18.802  0.00  0.00    +0.000 C 
ATOM     10  O   UNL     1       4.299  15.074  18.329  0.00  0.00    +0.000 OA
ENDBRANCH   2  10
ENDBRANCH   1   5
BRANCH   1  11
ATOM     11  S   UNL     1      -1.415  12.449  20.100  0.00  0.00    +0.000 S 
ATOM     12  O   UNL     1      -2.215  12.270  21.291  0.00  0.00    +0.000 OA
ATOM     13  O   UNL     1      -1.230  13.772  19.531  0.00  0.00    +0.000 OA
BRANCH  11  14
ATOM     14  C   UNL     1      -2.142  11.433  18.808  0.00  0.00    +0.000 A 
ATOM     15  C   UNL     1      -3.476  11.602  18.426  0.00  0.00    +0.000 A 
ATOM     16  C   UNL     1      -3.995  10.842  17.367  0.00  0.00    +0.000 A 
ATOM     17  C   UNL     1      -3.180   9.943  16.673  0.00  0.00    +0.000 A 
ATOM     18  C   UNL     1      -1.838   9.812  17.019  0.00  0.00    +0.000 A 
ATOM     19  C   UNL     1      -1.316  10.565  18.075  0.00  0.00    +0.000 A 
ENDBRANCH  11  14
ENDBRANCH   1  11
BRANCH   1  20
ATOM     20  C   UNL     1       0.340  11.005  21.593  0.00  0.00    +0.000 C 
BRANCH  20  21
ATOM     21  C   UNL     1       1.067   9.676  21.512  0.00  0.00    +0.000 C 
ATOM     22  O   UNL     1       1.746   9.341  22.484  0.00  0.00    +0.000 OA
ATOM     23  N   UNL     1       0.934   8.955  20.341  0.00  0.00    +0.000 N 
ATOM     24  H   UNL     1       0.317   9.364  19.650  0.00  0.00    +0.000 HD
BRANCH  23  25
ATOM     25  C   UNL     1       1.606   7.740  19.997  0.00  0.00    +0.000 A 
ATOM     26  C   UNL     1       1.544   6.604  20.821  0.00  0.00    +0.000 A 
ATOM     27  C   UNL     1       2.263   5.444  20.534  0.00  0.00    +0.000 A 
ATOM     28  C   UNL     1       3.065   5.392  19.406  0.00  0.00    +0.000 A 
ATOM     29  C   UNL     1       3.121   6.489  18.546  0.00  0.00    +0.000 A 
ATOM     30 CL   UNL     1       4.147   6.315  17.163  0.00  0.00    +0.000 Cl
ATOM     31  C   UNL     1       2.387   7.671  18.813  0.00  0.00    +0.000 A 
ATOM     32  C   UNL     1       2.418   8.830  17.852  0.00  0.00    +0.000 C 
ENDBRANCH  23  25
ENDBRANCH  20  21
ENDBRANCH   1  20
TORSDOF 7
ENDMDL
MODEL 3
REMARK VINA RESULT:      -7.4      2.709      5.545
REMARK  Name = 
REMARK  9 active torsions:
REMARK  status: ('A' for Active; 'I' for Inactive)
REMARK    1  A    between atoms: C_1  and  O_2
REMARK    2  A    between atoms: O_2  and  C_3
REMARK    3  A    between atoms: C_6  and  N_7
REMARK    4  A    between atoms: N_7  and  C_8
REMARK    5  A    between atoms: N_7  and  S_20
REMARK    6  A    between atoms: C_8  and  C_9
REMARK    7  A    between atoms: N_11  and  C_12
REMARK    8  A    between atoms: C_18  and  C_19
REMARK    9  A    between atoms: S_20  and  C_23
REMARK                            x       y       z     vdW  Elec       q    Type
REMARK                         _______ _______ _______ _____ _____    ______ ____
ROOT
ATOM      1  N   UNL     1       4.700   4.211  17.881  0.00  0.00    +0.000 N 
ENDROOT
BRANCH   1   5
ATOM      2  C   UNL     1       7.217   4.990  14.517  0.00  0.00    +0.000 A 
ATOM      3  C   UNL     1       7.571   5.387  15.813  0.00  0.00    +0.000 A 
ATOM      4  C   UNL     1       6.734   5.128  16.905  0.00  0.00    +0.000 A 
ATOM      5  C   UNL     1       5.504   4.492  16.718  0.00  0.00    +0.000 A 
ATOM      6  C   UNL     1       5.155   4.067  15.441  0.00  0.00    +0.000 A 
ATOM      7  C   UNL     1       6.010   4.288  14.347  0.00  0.00    +0.000 A 
ATOM      8 CL   UNL     1       5.527   3.549  12.863  0.00  0.00    +0.000 Cl
BRANCH   2  10
ATOM      9  C   UNL     1       7.755   5.552  12.252  0.00  0.00    +0.000 C 
ATOM     10  O   UNL     1       8.179   5.273  13.583  0.00  0.00    +0.000 OA
ENDBRANCH   2  10
ENDBRANCH   1   5
BRANCH   1  11
ATOM     11  S   UNL     1       3.428   3.066  17.673  0.00  0.00    +0.000 S 
ATOM     12  O   UNL     1       2.470   3.579  16.719  0.00  0.00    +0.000 OA
ATOM     13  O   UNL     1       4.082   1.791  17.443  0.00  0.00    +0.000 OA
BRANCH  11  14
ATOM     14  C   UNL     1       2.589   2.932  19.257  0.00  0.00    +0.000 A 
ATOM     15  C   UNL     1       3.272   2.501  20.398  0.00  0.00    +0.000 A 
ATOM     16  C   UNL     1       2.608   2.474  21.633  0.00  0.00    +0.000 A 
ATOM     17  C   UNL     1       1.281   2.903  21.735  0.00  0.00    +0.000 A 
ATOM     18  C   UNL     1       0.617   3.380  20.609  0.00  0.00    +0.000 A 
ATOM     19  C   UNL     1       1.272   3.408  19.375  0.00  0.00    +0.000 A 
ENDBRANCH  11  14
ENDBRANCH   1  11
BRANCH   1  20
ATOM     20  C   UNL     1       4.434   5.304  18.847  0.00  0.00    +0.000 C 
BRANCH  20  21
ATOM     21  C   UNL     1       3.640   6.523  18.417  0.00  0.00    +0.000 C 
ATOM     22  O   UNL     1       3.946   7.049  17.345  0.00  0.00    +0.000 OA
ATOM     23  N   UNL     1       2.654   6.969  19.274  0.00  0.00    +0.000 N 
ATOM     24  H   UNL     1       2.515   6.404  20.104  0.00  0.00    +0.000 HD
BRANCH  23  25
ATOM     25  C   UNL     1       1.858   8.150  19.133  0.00  0.00    +0.000 A 
ATOM     26  C   UNL     1       1.736   8.813  17.901  0.00  0.00    +0.000 A 
ATOM     27  C   UNL     1       1.031  10.010  17.775  0.00  0.00    +0.000 A 
ATOM     28  C   UNL     1       0.425  10.574  18.886  0.00  0.00    +0.000 A 
ATOM     29  C   UNL     1       0.495   9.921  20.117  0.00  0.00    +0.000 A 
ATOM     30 CL   UNL     1      -0.303  10.708  21.437  0.00  0.00    +0.000 Cl
ATOM     31  C   UNL     1       1.195   8.698  20.262  0.00  0.00    +0.000 A 
ATOM     32  C   UNL     1       1.223   7.980  21.586  0.00  0.00    +0.000 C 
ENDBRANCH  23  25
ENDBRANCH  20  21
ENDBRANCH   1  20
TORSDOF 7
ENDMDL
MODEL 4
REMARK VINA RESULT:      -7.3      2.664      5.345
REMARK  Name = 
REMARK  9 active torsions:
REMARK  status: ('A' for Active; 'I' for Inactive)
REMARK    1  A    between atoms: C_1  and  O_2
REMARK    2  A    between atoms: O_2  and  C_3
REMARK    3  A    between atoms: C_6  and  N_7
REMARK    4  A    between atoms: N_7  and  C_8
REMARK    5  A    between atoms: N_7  and  S_20
REMARK    6  A    between atoms: C_8  and  C_9
REMARK    7  A    between atoms: N_11  and  C_12
REMARK    8  A    between atoms: C_18  and  C_19
REMARK    9  A    between atoms: S_20  and  C_23
REMARK                            x       y       z     vdW  Elec       q    Type
REMARK                         _______ _______ _______ _____ _____    ______ ____
ROOT
ATOM      1  N   UNL     1       3.243   5.608  17.833  0.00  0.00    +0.000 N 
ENDROOT
BRANCH   1   5
ATOM      2  C   UNL     1       6.887   5.619  15.601  0.00  0.00    +0.000 A 
ATOM      3  C   UNL     1       5.773   4.873  15.195  0.00  0.00    +0.000 A 
ATOM      4  C   UNL     1       4.587   4.876  15.939  0.00  0.00    +0.000 A 
ATOM      5  C   UNL     1       4.500   5.604  17.128  0.00  0.00    +0.000 A 
ATOM      6  C   UNL     1       5.589   6.373  17.526  0.00  0.00    +0.000 A 
ATOM      7  C   UNL     1       6.768   6.405  16.762  0.00  0.00    +0.000 A 
ATOM      8 CL   UNL     1       7.963   7.538  17.284  0.00  0.00    +0.000 Cl
BRANCH   2  10
ATOM      9  C   UNL     1       7.666   5.129  13.391  0.00  0.00    +0.000 C 
ATOM     10  O   UNL     1       7.938   5.545  14.726  0.00  0.00    +0.000 OA
ENDBRANCH   2  10
ENDBRANCH   1   5
BRANCH   1  11
ATOM     11  S   UNL     1       2.318   4.155  17.756  0.00  0.00    +0.000 S 
ATOM     12  O   UNL     1       0.969   4.464  17.338  0.00  0.00    +0.000 OA
ATOM     13  O   UNL     1       3.126   3.216  16.998  0.00  0.00    +0.000 OA
BRANCH  11  14
ATOM     14  C   UNL     1       2.226   3.512  19.432  0.00  0.00    +0.000 A 
ATOM     15  C   UNL     1       1.009   3.471  20.120  0.00  0.00    +0.000 A 
ATOM     16  C   UNL     1       0.957   2.900  21.400  0.00  0.00    +0.000 A 
ATOM     17  C   UNL     1       2.103   2.346  21.978  0.00  0.00    +0.000 A 
ATOM     18  C   UNL     1       3.303   2.342  21.273  0.00  0.00    +0.000 A 
ATOM     19  C   UNL     1       3.363   2.911  19.997  0.00  0.00    +0.000 A 
ENDBRANCH  11  14
ENDBRANCH   1  11
BRANCH   1  20
ATOM     20  C   UNL     1       2.463   6.867  17.896  0.00  0.00    +0.000 C 
BRANCH  20  21
ATOM     21  C   UNL     1       2.097   7.469  19.240  0.00  0.00    +0.000 C 
ATOM     22  O   UNL     1       2.462   6.863  20.250  0.00  0.00    +0.000 OA
ATOM     23  N   UNL     1       1.358   8.635  19.229  0.00  0.00    +0.000 N 
ATOM     24  H   UNL     1       1.163   9.015  18.310  0.00  0.00    +0.000 HD
BRANCH  23  25
ATOM     25  C   UNL     1       0.811   9.320  20.360  0.00  0.00    +0.000 A 
ATOM     26  C   UNL     1       0.323   8.623  21.478  0.00  0.00    +0.000 A 
ATOM     27  C   UNL     1      -0.288   9.278  22.547  0.00  0.00    +0.000 A 
ATOM     28  C   UNL     1      -0.423  10.657  22.524  0.00  0.00    +0.000 A 
ATOM     29  C   UNL     1       0.085  11.383  21.446  0.00  0.00    +0.000 A 
ATOM     30 CL   UNL     1      -0.130  13.100  21.522  0.00  0.00    +0.000 Cl
ATOM     31  C   UNL     1       0.720  10.736  20.358  0.00  0.00    +0.000 A 
ATOM     32  C   UNL     1       1.306  11.535  19.223  0.00  0.00    +0.000 C 
ENDBRANCH  23  25
ENDBRANCH  20  21
ENDBRANCH   1  20
TORSDOF 7
ENDMDL
MODEL 5
REMARK VINA RESULT:      -7.3      2.959      3.868
REMARK  Name = 
REMARK  9 active torsions:
REMARK  status: ('A' for Active; 'I' for Inactive)
REMARK    1  A    between atoms: C_1  and  O_2
REMARK    2  A    between atoms: O_2  and  C_3
REMARK    3  A    between atoms: C_6  and  N_7
REMARK    4  A    between atoms: N_7  and  C_8
REMARK    5  A    between atoms: N_7  and  S_20
REMARK    6  A    between atoms: C_8  and  C_9
REMARK    7  A    between atoms: N_11  and  C_12
REMARK    8  A    between atoms: C_18  and  C_19
REMARK    9  A    between atoms: S_20  and  C_23
REMARK                            x       y       z     vdW  Elec       q    Type
REMARK                         _______ _______ _______ _____ _____    ______ ____
ROOT
ATOM      1  N   UNL     1       5.188   5.277  16.390  0.00  0.00    +0.000 N 
ENDROOT
BRANCH   1   5
ATOM      2  C   UNL     1       3.776   2.980  19.705  0.00  0.00    +0.000 A 
ATOM      3  C   UNL     1       4.854   3.867  19.826  0.00  0.00    +0.000 A 
ATOM      4  C   UNL     1       5.308   4.610  18.729  0.00  0.00    +0.000 A 
ATOM      5  C   UNL     1       4.711   4.457  17.476  0.00  0.00    +0.000 A 
ATOM      6  C   UNL     1       3.621   3.602  17.350  0.00  0.00    +0.000 A 
ATOM      7  C   UNL     1       3.136   2.884  18.457  0.00  0.00    +0.000 A 
ATOM      8 CL   UNL     1       1.674   2.004  18.190  0.00  0.00    +0.000 Cl
BRANCH   2  10
ATOM      9  C   UNL     1       2.323   2.913  21.607  0.00  0.00    +0.000 C 
ATOM     10  O   UNL     1       3.432   2.382  20.889  0.00  0.00    +0.000 OA
ENDBRANCH   2  10
ENDBRANCH   1   5
BRANCH   1  11
ATOM     11  S   UNL     1       6.852   5.103  15.974  0.00  0.00    +0.000 S 
ATOM     12  O   UNL     1       7.510   6.387  16.074  0.00  0.00    +0.000 OA
ATOM     13  O   UNL     1       7.332   3.969  16.743  0.00  0.00    +0.000 OA
BRANCH  11  14
ATOM     14  C   UNL     1       6.903   4.608  14.247  0.00  0.00    +0.000 A 
ATOM     15  C   UNL     1       6.000   3.669  13.741  0.00  0.00    +0.000 A 
ATOM     16  C   UNL     1       6.020   3.355  12.374  0.00  0.00    +0.000 A 
ATOM     17  C   UNL     1       6.914   3.995  11.512  0.00  0.00    +0.000 A 
ATOM     18  C   UNL     1       7.779   4.967  12.006  0.00  0.00    +0.000 A 
ATOM     19  C   UNL     1       7.766   5.284  13.368  0.00  0.00    +0.000 A 
ENDBRANCH  11  14
ENDBRANCH   1  11
BRANCH   1  20
ATOM     20  C   UNL     1       4.617   6.634  16.215  0.00  0.00    +0.000 C 
BRANCH  20  21
ATOM     21  C   UNL     1       4.117   7.410  17.419  0.00  0.00    +0.000 C 
ATOM     22  O   UNL     1       4.918   8.155  17.986  0.00  0.00    +0.000 OA
ATOM     23  N   UNL     1       2.808   7.200  17.806  0.00  0.00    +0.000 N 
ATOM     24  H   UNL     1       2.278   6.572  17.213  0.00  0.00    +0.000 HD
BRANCH  23  25
ATOM     25  C   UNL     1       2.154   7.732  18.962  0.00  0.00    +0.000 A 
ATOM     26  C   UNL     1       2.014   6.980  20.140  0.00  0.00    +0.000 A 
ATOM     27  C   UNL     1       1.306   7.460  21.242  0.00  0.00    +0.000 A 
ATOM     28  C   UNL     1       0.720   8.714  21.191  0.00  0.00    +0.000 A 
ATOM     29  C   UNL     1       0.872   9.502  20.050  0.00  0.00    +0.000 A 
ATOM     30 CL   UNL     1       0.106  11.055  20.095  0.00  0.00    +0.000 Cl
ATOM     31  C   UNL     1       1.598   9.037  18.926  0.00  0.00    +0.000 A 
ATOM     32  C   UNL     1       1.795   9.917  17.719  0.00  0.00    +0.000 C 
ENDBRANCH  23  25
ENDBRANCH  20  21
ENDBRANCH   1  20
TORSDOF 7
ENDMDL
MODEL 6
REMARK VINA RESULT:      -7.2      2.528      2.999
REMARK  Name = 
REMARK  9 active torsions:
REMARK  status: ('A' for Active; 'I' for Inactive)
REMARK    1  A    between atoms: C_1  and  O_2
REMARK    2  A    between atoms: O_2  and  C_3
REMARK    3  A    between atoms: C_6  and  N_7
REMARK    4  A    between atoms: N_7  and  C_8
REMARK    5  A    between atoms: N_7  and  S_20
REMARK    6  A    between atoms: C_8  and  C_9
REMARK    7  A    between atoms: N_11  and  C_12
REMARK    8  A    between atoms: C_18  and  C_19
REMARK    9  A    between atoms: S_20  and  C_23
REMARK                            x       y       z     vdW  Elec       q    Type
REMARK                         _______ _______ _______ _____ _____    ______ ____
ROOT
ATOM      1  N   UNL     1       4.843   5.770  16.989  0.00  0.00    +0.000 N 
ENDROOT
BRANCH   1   5
ATOM      2  C   UNL     1       3.284   3.206  20.032  0.00  0.00    +0.000 A 
ATOM      3  C   UNL     1       3.977   4.385  20.341  0.00  0.00    +0.000 A 
ATOM      4  C   UNL     1       4.485   5.213  19.333  0.00  0.00    +0.000 A 
ATOM      5  C   UNL     1       4.339   4.861  17.989  0.00  0.00    +0.000 A 
ATOM      6  C   UNL     1       3.628   3.709  17.669  0.00  0.00    +0.000 A 
ATOM      7  C   UNL     1       3.081   2.896  18.676  0.00  0.00    +0.000 A 
ATOM      8 CL   UNL     1       2.077   1.603  18.125  0.00  0.00    +0.000 Cl
BRANCH   2  10
ATOM      9  C   UNL     1       1.440   2.734  21.484  0.00  0.00    +0.000 C 
ATOM     10  O   UNL     1       2.809   2.552  21.138  0.00  0.00    +0.000 OA
ENDBRANCH   2  10
ENDBRANCH   1   5
BRANCH   1  11
ATOM     11  S   UNL     1       6.510   5.611  16.582  0.00  0.00    +0.000 S 
ATOM     12  O   UNL     1       7.118   6.922  16.522  0.00  0.00    +0.000 OA
ATOM     13  O   UNL     1       7.037   4.597  17.477  0.00  0.00    +0.000 OA
BRANCH  11  14
ATOM     14  C   UNL     1       6.574   4.914  14.926  0.00  0.00    +0.000 A 
ATOM     15  C   UNL     1       5.558   4.074  14.460  0.00  0.00    +0.000 A 
ATOM     16  C   UNL     1       5.601   3.603  13.140  0.00  0.00    +0.000 A 
ATOM     17  C   UNL     1       6.633   3.990  12.281  0.00  0.00    +0.000 A 
ATOM     18  C   UNL     1       7.616   4.868  12.728  0.00  0.00    +0.000 A 
ATOM     19  C   UNL     1       7.581   5.340  14.044  0.00  0.00    +0.000 A 
ENDBRANCH  11  14
ENDBRANCH   1  11
BRANCH   1  20
ATOM     20  C   UNL     1       4.292   7.145  16.930  0.00  0.00    +0.000 C 
BRANCH  20  21
ATOM     21  C   UNL     1       2.943   7.452  17.552  0.00  0.00    +0.000 C 
ATOM     22  O   UNL     1       2.034   6.639  17.364  0.00  0.00    +0.000 OA
ATOM     23  N   UNL     1       2.827   8.633  18.259  0.00  0.00    +0.000 N 
ATOM     24  H   UNL     1       3.680   9.174  18.338  0.00  0.00    +0.000 HD
BRANCH  23  25
ATOM     25  C   UNL     1       1.637   9.179  18.835  0.00  0.00    +0.000 A 
ATOM     26  C   UNL     1       0.898  10.182  18.187  0.00  0.00    +0.000 A 
ATOM     27  C   UNL     1      -0.216  10.779  18.780  0.00  0.00    +0.000 A 
ATOM     28  C   UNL     1      -0.619  10.380  20.043  0.00  0.00    +0.000 A 
ATOM     29  C   UNL     1       0.070   9.359  20.699  0.00  0.00    +0.000 A 
ATOM     30 CL   UNL     1      -0.523   8.933  22.269  0.00  0.00    +0.000 Cl
ATOM     31  C   UNL     1       1.194   8.733  20.108  0.00  0.00    +0.000 A 
ATOM     32  C   UNL     1       1.901   7.600  20.806  0.00  0.00    +0.000 C 
ENDBRANCH  23  25
ENDBRANCH  20  21
ENDBRANCH   1  20
TORSDOF 7
ENDMDL
MODEL 7
REMARK VINA RESULT:      -7.2      2.742      5.565
REMARK  Name = 
REMARK  9 active torsions:
REMARK  status: ('A' for Active; 'I' for Inactive)
REMARK    1  A    between atoms: C_1  and  O_2
REMARK    2  A    between atoms: O_2  and  C_3
REMARK    3  A    between atoms: C_6  and  N_7
REMARK    4  A    between atoms: N_7  and  C_8
REMARK    5  A    between atoms: N_7  and  S_20
REMARK    6  A    between atoms: C_8  and  C_9
REMARK    7  A    between atoms: N_11  and  C_12
REMARK    8  A    between atoms: C_18  and  C_19
REMARK    9  A    between atoms: S_20  and  C_23
REMARK                            x       y       z     vdW  Elec       q    Type
REMARK                         _______ _______ _______ _____ _____    ______ ____
ROOT
ATOM      1  N   UNL     1       3.783   4.759  17.373  0.00  0.00    +0.000 N 
ENDROOT
BRANCH   1   5
ATOM      2  C   UNL     1       7.137   5.171  14.757  0.00  0.00    +0.000 A 
ATOM      3  C   UNL     1       7.127   5.732  16.041  0.00  0.00    +0.000 A 
ATOM      4  C   UNL     1       6.019   5.592  16.885  0.00  0.00    +0.000 A 
ATOM      5  C   UNL     1       4.880   4.912  16.449  0.00  0.00    +0.000 A 
ATOM      6  C   UNL     1       4.889   4.324  15.188  0.00  0.00    +0.000 A 
ATOM      7  C   UNL     1       6.013   4.428  14.352  0.00  0.00    +0.000 A 
ATOM      8 CL   UNL     1       5.946   3.501  12.896  0.00  0.00    +0.000 Cl
BRANCH   2  10
ATOM      9  C   UNL     1       8.267   5.787  12.738  0.00  0.00    +0.000 C 
ATOM     10  O   UNL     1       8.321   5.357  14.094  0.00  0.00    +0.000 OA
ENDBRANCH   2  10
ENDBRANCH   1   5
BRANCH   1  11
ATOM     11  S   UNL     1       3.182   3.158  17.590  0.00  0.00    +0.000 S 
ATOM     12  O   UNL     1       2.085   2.928  16.676  0.00  0.00    +0.000 OA
ATOM     13  O   UNL     1       4.350   2.295  17.567  0.00  0.00    +0.000 OA
BRANCH  11  14
ATOM     14  C   UNL     1       2.517   3.077  19.257  0.00  0.00    +0.000 A 
ATOM     15  C   UNL     1       1.150   3.243  19.495  0.00  0.00    +0.000 A 
ATOM     16  C   UNL     1       0.652   3.104  20.799  0.00  0.00    +0.000 A 
ATOM     17  C   UNL     1       1.507   2.773  21.854  0.00  0.00    +0.000 A 
ATOM     18  C   UNL     1       2.860   2.557  21.610  0.00  0.00    +0.000 A 
ATOM     19  C   UNL     1       3.363   2.695  20.312  0.00  0.00    +0.000 A 
ENDBRANCH  11  14
ENDBRANCH   1  11
BRANCH   1  20
ATOM     20  C   UNL     1       2.779   5.845  17.477  0.00  0.00    +0.000 C 
BRANCH  20  21
ATOM     21  C   UNL     1       2.642   6.635  18.765  0.00  0.00    +0.000 C 
ATOM     22  O   UNL     1       3.247   6.215  19.753  0.00  0.00    +0.000 OA
ATOM     23  N   UNL     1       1.825   7.748  18.739  0.00  0.00    +0.000 N 
ATOM     24  H   UNL     1       1.422   7.967  17.835  0.00  0.00    +0.000 HD
BRANCH  23  25
ATOM     25  C   UNL     1       1.462   8.576  19.847  0.00  0.00    +0.000 A 
ATOM     26  C   UNL     1       1.281   8.046  21.135  0.00  0.00    +0.000 A 
ATOM     27  C   UNL     1       0.846   8.833  22.202  0.00  0.00    +0.000 A 
ATOM     28  C   UNL     1       0.581  10.177  22.004  0.00  0.00    +0.000 A 
ATOM     29  C   UNL     1       0.786  10.744  20.746  0.00  0.00    +0.000 A 
ATOM     30 CL   UNL     1       0.432  12.434  20.610  0.00  0.00    +0.000 Cl
ATOM     31  C   UNL     1       1.240   9.965  19.653  0.00  0.00    +0.000 A 
ATOM     32  C   UNL     1       1.502  10.599  18.312  0.00  0.00    +0.000 C 
ENDBRANCH  23  25
ENDBRANCH  20  21
ENDBRANCH   1  20
TORSDOF 7
ENDMDL
MODEL 8
REMARK VINA RESULT:      -7.2      3.986      9.031
REMARK  Name = 
REMARK  9 active torsions:
REMARK  status: ('A' for Active; 'I' for Inactive)
REMARK    1  A    between atoms: C_1  and  O_2
REMARK    2  A    between atoms: O_2  and  C_3
REMARK    3  A    between atoms: C_6  and  N_7
REMARK    4  A    between atoms: N_7  and  C_8
REMARK    5  A    between atoms: N_7  and  S_20
REMARK    6  A    between atoms: C_8  and  C_9
REMARK    7  A    between atoms: N_11  and  C_12
REMARK    8  A    between atoms: C_18  and  C_19
REMARK    9  A    between atoms: S_20  and  C_23
REMARK                            x       y       z     vdW  Elec       q    Type
REMARK                         _______ _______ _______ _____ _____    ______ ____
ROOT
ATOM      1  N   UNL     1       0.576  11.384  20.364  0.00  0.00    +0.000 N 
ENDROOT
BRANCH   1   5
ATOM      2  C   UNL     1       3.431  14.271  19.031  0.00  0.00    +0.000 A 
ATOM      3  C   UNL     1       2.783  13.405  18.140  0.00  0.00    +0.000 A 
ATOM      4  C   UNL     1       1.852  12.462  18.592  0.00  0.00    +0.000 A 
ATOM      5  C   UNL     1       1.574  12.342  19.955  0.00  0.00    +0.000 A 
ATOM      6  C   UNL     1       2.188  13.215  20.847  0.00  0.00    +0.000 A 
ATOM      7  C   UNL     1       3.092  14.191  20.393  0.00  0.00    +0.000 A 
ATOM      8 CL   UNL     1       3.636  15.314  21.588  0.00  0.00    +0.000 Cl
BRANCH   2  10
ATOM      9  C   UNL     1       3.710  16.407  17.985  0.00  0.00    +0.000 C 
ATOM     10  O   UNL     1       4.262  15.165  18.409  0.00  0.00    +0.000 OA
ENDBRANCH   2  10
ENDBRANCH   1   5
BRANCH   1  11
ATOM     11  S   UNL     1      -1.044  11.963  20.469  0.00  0.00    +0.000 S 
ATOM     12  O   UNL     1      -1.670  11.429  21.659  0.00  0.00    +0.000 OA
ATOM     13  O   UNL     1      -0.961  13.398  20.264  0.00  0.00    +0.000 OA
BRANCH  11  14
ATOM     14  C   UNL     1      -1.925  11.293  19.053  0.00  0.00    +0.000 A 
ATOM     15  C   UNL     1      -3.182  11.785  18.690  0.00  0.00    +0.000 A 
ATOM     16  C   UNL     1      -3.813  11.291  17.539  0.00  0.00    +0.000 A 
ATOM     17  C   UNL     1      -3.182  10.334  16.739  0.00  0.00    +0.000 A 
ATOM     18  C   UNL     1      -1.908   9.881  17.072  0.00  0.00    +0.000 A 
ATOM     19  C   UNL     1      -1.274  10.369  18.219  0.00  0.00    +0.000 A 
ENDBRANCH  11  14
ENDBRANCH   1  11
BRANCH   1  20
ATOM     20  C   UNL     1       0.952  10.335  21.343  0.00  0.00    +0.000 C 
BRANCH  20  21
ATOM     21  C   UNL     1       0.797   8.869  20.984  0.00  0.00    +0.000 C 
ATOM     22  O   UNL     1      -0.268   8.323  21.278  0.00  0.00    +0.000 OA
ATOM     23  N   UNL     1       1.874   8.250  20.380  0.00  0.00    +0.000 N 
ATOM     24  H   UNL     1       2.666   8.852  20.186  0.00  0.00    +0.000 HD
BRANCH  23  25
ATOM     25  C   UNL     1       1.998   6.863  20.053  0.00  0.00    +0.000 A 
ATOM     26  C   UNL     1       1.547   5.857  20.923  0.00  0.00    +0.000 A 
ATOM     27  C   UNL     1       1.741   4.502  20.649  0.00  0.00    +0.000 A 
ATOM     28  C   UNL     1       2.392   4.121  19.488  0.00  0.00    +0.000 A 
ATOM     29  C   UNL     1       2.820   5.093  18.584  0.00  0.00    +0.000 A 
ATOM     30 CL   UNL     1       3.615   4.507  17.161  0.00  0.00    +0.000 Cl
ATOM     31  C   UNL     1       2.621   6.472  18.838  0.00  0.00    +0.000 A 
ATOM     32  C   UNL     1       3.045   7.510  17.831  0.00  0.00    +0.000 C 
ENDBRANCH  23  25
ENDBRANCH  20  21
ENDBRANCH   1  20
TORSDOF 7
ENDMDL
MODEL 9
REMARK VINA RESULT:      -7.2      2.724      5.005
REMARK  Name = 
REMARK  9 active torsions:
REMARK  status: ('A' for Active; 'I' for Inactive)
REMARK    1  A    between atoms: C_1  and  O_2
REMARK    2  A    between atoms: O_2  and  C_3
REMARK    3  A    between atoms: C_6  and  N_7
REMARK    4  A    between atoms: N_7  and  C_8
REMARK    5  A    between atoms: N_7  and  S_20
REMARK    6  A    between atoms: C_8  and  C_9
REMARK    7  A    between atoms: N_11  and  C_12
REMARK    8  A    between atoms: C_18  and  C_19
REMARK    9  A    between atoms: S_20  and  C_23
REMARK                            x       y       z     vdW  Elec       q    Type
REMARK                         _______ _______ _______ _____ _____    ______ ____
ROOT
ATOM      1  N   UNL     1       2.857   6.271  19.752  0.00  0.00    +0.000 N 
ENDROOT
BRANCH   1   5
ATOM      2  C   UNL     1       6.143   5.755  17.069  0.00  0.00    +0.000 A 
ATOM      3  C   UNL     1       4.857   6.072  16.611  0.00  0.00    +0.000 A 
ATOM      4  C   UNL     1       3.790   6.234  17.502  0.00  0.00    +0.000 A 
ATOM      5  C   UNL     1       3.979   6.051  18.874  0.00  0.00    +0.000 A 
ATOM      6  C   UNL     1       5.257   5.765  19.344  0.00  0.00    +0.000 A 
ATOM      7  C   UNL     1       6.340   5.641  18.457  0.00  0.00    +0.000 A 
ATOM      8 CL   UNL     1       7.891   5.464  19.197  0.00  0.00    +0.000 Cl
BRANCH   2  10
ATOM      9  C   UNL     1       6.915   4.688  15.070  0.00  0.00    +0.000 C 
ATOM     10  O   UNL     1       7.075   5.692  16.067  0.00  0.00    +0.000 OA
ENDBRANCH   2  10
ENDBRANCH   1   5
BRANCH   1  11
ATOM     11  S   UNL     1       2.125   4.864  20.427  0.00  0.00    +0.000 S 
ATOM     12  O   UNL     1       2.620   4.662  21.771  0.00  0.00    +0.000 OA
ATOM     13  O   UNL     1       0.701   5.007  20.182  0.00  0.00    +0.000 OA
BRANCH  11  14
ATOM     14  C   UNL     1       2.677   3.469  19.437  0.00  0.00    +0.000 A 
ATOM     15  C   UNL     1       2.167   3.252  18.154  0.00  0.00    +0.000 A 
ATOM     16  C   UNL     1       2.668   2.196  17.380  0.00  0.00    +0.000 A 
ATOM     17  C   UNL     1       3.693   1.380  17.870  0.00  0.00    +0.000 A 
ATOM     18  C   UNL     1       4.236   1.628  19.127  0.00  0.00    +0.000 A 
ATOM     19  C   UNL     1       3.740   2.678  19.905  0.00  0.00    +0.000 A 
ENDBRANCH  11  14
ENDBRANCH   1  11
BRANCH   1  20
ATOM     20  C   UNL     1       1.941   7.403  19.470  0.00  0.00    +0.000 C 
BRANCH  20  21
ATOM     21  C   UNL     1       1.534   8.348  20.585  0.00  0.00    +0.000 C 
ATOM     22  O   UNL     1       1.819   8.019  21.739  0.00  0.00    +0.000 OA
ATOM     23  N   UNL     1       0.848   9.491  20.225  0.00  0.00    +0.000 N 
ATOM     24  H   UNL     1       0.718   9.621  19.229  0.00  0.00    +0.000 HD
BRANCH  23  25
ATOM     25  C   UNL     1       0.274  10.464  21.103  0.00  0.00    +0.000 A 
ATOM     26  C   UNL     1      -0.525  10.090  22.196  0.00  0.00    +0.000 A 
ATOM     27  C   UNL     1      -1.156  11.035  23.006  0.00  0.00    +0.000 A 
ATOM     28  C   UNL     1      -0.999  12.385  22.740  0.00  0.00    +0.000 A 
ATOM     29  C   UNL     1      -0.183  12.792  21.684  0.00  0.00    +0.000 A 
ATOM     30 CL   UNL     1      -0.050  14.502  21.445  0.00  0.00    +0.000 Cl
ATOM     31  C   UNL     1       0.477  11.848  20.859  0.00  0.00    +0.000 A 
ATOM     32  C   UNL     1       1.394  12.300  19.753  0.00  0.00    +0.000 C 
ENDBRANCH  23  25
ENDBRANCH  20  21
ENDBRANCH   1  20
TORSDOF 7
ENDMDL
