MODEL 1
REMARK VINA RESULT:      -6.6      0.000      0.000
REMARK  Name = 
REMARK  5 active torsions:
REMARK  status: ('A' for Active; 'I' for Inactive)
REMARK    1  A    between atoms: C_1  and  C_2
REMARK    2  A    between atoms: C_4  and  C_5
REMARK    3  A    between atoms: C_4  and  C_6
REMARK    4  A    between atoms: N_10  and  C_11
REMARK    5  A    between atoms: C_14  and  N_15
REMARK                            x       y       z     vdW  Elec       q    Type
REMARK                         _______ _______ _______ _____ _____    ______ ____
ROOT
ATOM      1  C   UNL     1       4.158   1.476  17.642  0.00  0.00    +0.000 C 
ATOM      2  C   UNL     1       3.532   2.702  18.265  0.00  0.00    +0.000 C 
ATOM      3  C   UNL     1       2.713   2.481  19.306  0.00  0.00    +0.000 C 
ATOM      4  C   UNL     1       2.106   3.535  20.160  0.00  0.00    +0.000 C 
ATOM      5  C   UNL     1       2.631   3.387  21.592  0.00  0.00    +0.000 C 
ATOM      6  C   UNL     1       0.578   3.415  20.141  0.00  0.00    +0.000 C 
ATOM      7  N   UNL     1       2.490   4.825  19.644  0.00  0.00    +0.000 N 
ATOM      8  C   UNL     1       3.216   5.110  18.524  0.00  0.00    +0.000 C 
ATOM      9  S   UNL     1       3.154   6.742  18.100  0.00  0.00    +0.000 S 
ATOM     10  N   UNL     1       3.847   4.023  17.855  0.00  0.00    +0.000 N 
ATOM     11  H   UNL     1       2.059   5.645  20.068  0.00  0.00    +0.000 HD
ENDROOT
BRANCH  10  12
ATOM     12  C   UNL     1       4.788   4.291  16.767  0.00  0.00    +0.000 A 
ATOM     13  C   UNL     1       6.127   4.651  17.019  0.00  0.00    +0.000 A 
ATOM     14  C   UNL     1       7.030   4.937  15.983  0.00  0.00    +0.000 A 
ATOM     15  C   UNL     1       6.623   4.791  14.658  0.00  0.00    +0.000 A 
ATOM     16  C   UNL     1       5.315   4.400  14.370  0.00  0.00    +0.000 A 
ATOM     17  C   UNL     1       4.406   4.193  15.419  0.00  0.00    +0.000 A 
BRANCH  15  18
ATOM     18  N   UNL     1       7.566   5.055  13.564  0.00  0.00    +0.000 N 
ATOM     19  O   UNL     1       8.522   5.809  13.793  0.00  0.00    +0.000 OA
ATOM     20  O   UNL     1       7.350   4.506  12.474  0.00  0.00    +0.000 OA
ENDBRANCH  15  18
ENDBRANCH  10  12
TORSDOF 2
ENDMDL
MODEL 2
REMARK VINA RESULT:      -6.6      0.058      1.313
REMARK  Name = 
REMARK  5 active torsions:
REMARK  status: ('A' for Active; 'I' for Inactive)
REMARK    1  A    between atoms: C_1  and  C_2
REMARK    2  A    between atoms: C_4  and  C_5
REMARK    3  A    between atoms: C_4  and  C_6
REMARK    4  A    between atoms: N_10  and  C_11
REMARK    5  A    between atoms: C_14  and  N_15
REMARK                            x       y       z     vdW  Elec       q    Type
REMARK                         _______ _______ _______ _____ _____    ______ ____
ROOT
ATOM      1  C   UNL     1       4.078   1.460  17.601  0.00  0.00    +0.000 C 
ATOM      2  C   UNL     1       3.500   2.696  18.249  0.00  0.00    +0.000 C 
ATOM      3  C   UNL     1       2.679   2.486  19.292  0.00  0.00    +0.000 C 
ATOM      4  C   UNL     1       2.114   3.545  20.169  0.00  0.00    +0.000 C 
ATOM      5  C   UNL     1       2.643   3.353  21.594  0.00  0.00    +0.000 C 
ATOM      6  C   UNL     1       0.584   3.479  20.157  0.00  0.00    +0.000 C 
ATOM      7  N   UNL     1       2.542   4.830  19.673  0.00  0.00    +0.000 N 
ATOM      8  C   UNL     1       3.271   5.109  18.553  0.00  0.00    +0.000 C 
ATOM      9  S   UNL     1       3.264   6.750  18.159  0.00  0.00    +0.000 S 
ATOM     10  N   UNL     1       3.859   4.013  17.861  0.00  0.00    +0.000 N 
ATOM     11  H   UNL     1       2.142   5.656  20.115  0.00  0.00    +0.000 HD
ENDROOT
BRANCH  10  12
ATOM     12  C   UNL     1       4.802   4.267  16.772  0.00  0.00    +0.000 A 
ATOM     13  C   UNL     1       4.396   4.242  15.422  0.00  0.00    +0.000 A 
ATOM     14  C   UNL     1       5.298   4.457  14.369  0.00  0.00    +0.000 A 
ATOM     15  C   UNL     1       6.624   4.783  14.655  0.00  0.00    +0.000 A 
ATOM     16  C   UNL     1       7.052   4.854  15.981  0.00  0.00    +0.000 A 
ATOM     17  C   UNL     1       6.153   4.560  17.017  0.00  0.00    +0.000 A 
BRANCH  15  18
ATOM     18  N   UNL     1       7.571   5.043  13.564  0.00  0.00    +0.000 N 
ATOM     19  O   UNL     1       7.371   4.481  12.478  0.00  0.00    +0.000 OA
ATOM     20  O   UNL     1       8.516   5.812  13.794  0.00  0.00    +0.000 OA
ENDBRANCH  15  18
ENDBRANCH  10  12
TORSDOF 2
ENDMDL
MODEL 3
REMARK VINA RESULT:      -6.6      4.336      5.865
REMARK  Name = 
REMARK  5 active torsions:
REMARK  status: ('A' for Active; 'I' for Inactive)
REMARK    1  A    between atoms: C_1  and  C_2
REMARK    2  A    between atoms: C_4  and  C_5
REMARK    3  A    between atoms: C_4  and  C_6
REMARK    4  A    between atoms: N_10  and  C_11
REMARK    5  A    between atoms: C_14  and  N_15
REMARK                            x       y       z     vdW  Elec       q    Type
REMARK                         _______ _______ _______ _____ _____    ______ ____
ROOT
ATOM      1  C   UNL     1       0.855   3.971  20.210  0.00  0.00    +0.000 C 
ATOM      2  C   UNL     1       2.325   3.796  19.911  0.00  0.00    +0.000 C 
ATOM      3  C   UNL     1       2.799   2.542  19.998  0.00  0.00    +0.000 C 
ATOM      4  C   UNL     1       4.168   2.112  19.609  0.00  0.00    +0.000 C 
ATOM      5  C   UNL     1       4.072   1.123  18.441  0.00  0.00    +0.000 C 
ATOM      6  C   UNL     1       4.873   1.457  20.801  0.00  0.00    +0.000 C 
ATOM      7  N   UNL     1       4.914   3.272  19.190  0.00  0.00    +0.000 N 
ATOM      8  C   UNL     1       4.526   4.580  19.197  0.00  0.00    +0.000 C 
ATOM      9  S   UNL     1       5.809   5.647  18.945  0.00  0.00    +0.000 S 
ATOM     10  N   UNL     1       3.156   4.859  19.472  0.00  0.00    +0.000 N 
ATOM     11  H   UNL     1       5.906   3.143  18.995  0.00  0.00    +0.000 HD
ENDROOT
BRANCH  10  12
ATOM     12  C   UNL     1       2.648   6.220  19.307  0.00  0.00    +0.000 A 
ATOM     13  C   UNL     1       2.605   6.844  18.043  0.00  0.00    +0.000 A 
ATOM     14  C   UNL     1       2.144   8.160  17.878  0.00  0.00    +0.000 A 
ATOM     15  C   UNL     1       1.641   8.855  18.976  0.00  0.00    +0.000 A 
ATOM     16  C   UNL     1       1.632   8.255  20.236  0.00  0.00    +0.000 A 
ATOM     17  C   UNL     1       2.167   6.967  20.394  0.00  0.00    +0.000 A 
BRANCH  15  18
ATOM     18  N   UNL     1       1.125  10.220  18.812  0.00  0.00    +0.000 N 
ATOM     19  O   UNL     1       1.879  11.067  18.313  0.00  0.00    +0.000 OA
ATOM     20  O   UNL     1      -0.036  10.445  19.182  0.00  0.00    +0.000 OA
ENDBRANCH  15  18
ENDBRANCH  10  12
TORSDOF 2
ENDMDL
MODEL 4
REMARK VINA RESULT:      -6.6      1.489      2.357
REMARK  Name = 
REMARK  5 active torsions:
REMARK  status: ('A' for Active; 'I' for Inactive)
REMARK    1  A    between atoms: C_1  and  C_2
REMARK    2  A    between atoms: C_4  and  C_5
REMARK    3  A    between atoms: C_4  and  C_6
REMARK    4  A    between atoms: N_10  and  C_11
REMARK    5  A    between atoms: C_14  and  N_15
REMARK                            x       y       z     vdW  Elec       q    Type
REMARK                         _______ _______ _______ _____ _____    ______ ____
ROOT
ATOM      1  C   UNL     1       3.512   6.586  18.567  0.00  0.00    +0.000 C 
ATOM      2  C   UNL     1       3.284   5.137  18.927  0.00  0.00    +0.000 C 
ATOM      3  C   UNL     1       2.416   4.907  19.927  0.00  0.00    +0.000 C 
ATOM      4  C   UNL     1       1.929   3.569  20.351  0.00  0.00    +0.000 C 
ATOM      5  C   UNL     1       0.418   3.484  20.113  0.00  0.00    +0.000 C 
ATOM      6  C   UNL     1       2.246   3.338  21.832  0.00  0.00    +0.000 C 
ATOM      7  N   UNL     1       2.593   2.564  19.558  0.00  0.00    +0.000 N 
ATOM      8  C   UNL     1       3.568   2.730  18.618  0.00  0.00    +0.000 C 
ATOM      9  S   UNL     1       4.303   1.278  18.172  0.00  0.00    +0.000 S 
ATOM     10  N   UNL     1       3.866   4.061  18.208  0.00  0.00    +0.000 N 
ATOM     11  H   UNL     1       2.435   1.590  19.813  0.00  0.00    +0.000 HD
ENDROOT
BRANCH  10  12
ATOM     12  C   UNL     1       4.762   4.284  17.074  0.00  0.00    +0.000 A 
ATOM     13  C   UNL     1       6.137   4.538  17.257  0.00  0.00    +0.000 A 
ATOM     14  C   UNL     1       7.000   4.781  16.177  0.00  0.00    +0.000 A 
ATOM     15  C   UNL     1       6.511   4.697  14.874  0.00  0.00    +0.000 A 
ATOM     16  C   UNL     1       5.163   4.410  14.654  0.00  0.00    +0.000 A 
ATOM     17  C   UNL     1       4.301   4.246  15.748  0.00  0.00    +0.000 A 
BRANCH  15  18
ATOM     18  N   UNL     1       7.409   4.916  13.734  0.00  0.00    +0.000 N 
ATOM     19  O   UNL     1       7.184   4.287  12.691  0.00  0.00    +0.000 OA
ATOM     20  O   UNL     1       8.340   5.722  13.881  0.00  0.00    +0.000 OA
ENDBRANCH  15  18
ENDBRANCH  10  12
TORSDOF 2
ENDMDL
MODEL 5
REMARK VINA RESULT:      -6.6      1.488      2.502
REMARK  Name = 
REMARK  5 active torsions:
REMARK  status: ('A' for Active; 'I' for Inactive)
REMARK    1  A    between atoms: C_1  and  C_2
REMARK    2  A    between atoms: C_4  and  C_5
REMARK    3  A    between atoms: C_4  and  C_6
REMARK    4  A    between atoms: N_10  and  C_11
REMARK    5  A    between atoms: C_14  and  N_15
REMARK                            x       y       z     vdW  Elec       q    Type
REMARK                         _______ _______ _______ _____ _____    ______ ____
ROOT
ATOM      1  C   UNL     1       3.528   6.600  18.542  0.00  0.00    +0.000 C 
ATOM      2  C   UNL     1       3.293   5.154  18.912  0.00  0.00    +0.000 C 
ATOM      3  C   UNL     1       2.418   4.935  19.907  0.00  0.00    +0.000 C 
ATOM      4  C   UNL     1       1.924   3.601  20.338  0.00  0.00    +0.000 C 
ATOM      5  C   UNL     1       0.414   3.519  20.090  0.00  0.00    +0.000 C 
ATOM      6  C   UNL     1       2.230   3.380  21.823  0.00  0.00    +0.000 C 
ATOM      7  N   UNL     1       2.590   2.588  19.557  0.00  0.00    +0.000 N 
ATOM      8  C   UNL     1       3.572   2.744  18.623  0.00  0.00    +0.000 C 
ATOM      9  S   UNL     1       4.305   1.287  18.192  0.00  0.00    +0.000 S 
ATOM     10  N   UNL     1       3.877   4.071  18.205  0.00  0.00    +0.000 N 
ATOM     11  H   UNL     1       2.427   1.617  19.818  0.00  0.00    +0.000 HD
ENDROOT
BRANCH  10  12
ATOM     12  C   UNL     1       4.782   4.283  17.075  0.00  0.00    +0.000 A 
ATOM     13  C   UNL     1       4.314   4.293  15.745  0.00  0.00    +0.000 A 
ATOM     14  C   UNL     1       5.177   4.469  14.653  0.00  0.00    +0.000 A 
ATOM     15  C   UNL     1       6.530   4.717  14.879  0.00  0.00    +0.000 A 
ATOM     16  C   UNL     1       7.022   4.752  16.185  0.00  0.00    +0.000 A 
ATOM     17  C   UNL     1       6.157   4.499  17.260  0.00  0.00    +0.000 A 
BRANCH  15  18
ATOM     18  N   UNL     1       7.440   4.935  13.748  0.00  0.00    +0.000 N 
ATOM     19  O   UNL     1       8.386   5.719  13.909  0.00  0.00    +0.000 OA
ATOM     20  O   UNL     1       7.208   4.319  12.697  0.00  0.00    +0.000 OA
ENDBRANCH  15  18
ENDBRANCH  10  12
TORSDOF 2
ENDMDL
MODEL 6
REMARK VINA RESULT:      -6.6      4.325      5.851
REMARK  Name = 
REMARK  5 active torsions:
REMARK  status: ('A' for Active; 'I' for Inactive)
REMARK    1  A    between atoms: C_1  and  C_2
REMARK    2  A    between atoms: C_4  and  C_5
REMARK    3  A    between atoms: C_4  and  C_6
REMARK    4  A    between atoms: N_10  and  C_11
REMARK    5  A    between atoms: C_14  and  N_15
REMARK                            x       y       z     vdW  Elec       q    Type
REMARK                         _______ _______ _______ _____ _____    ______ ____
ROOT
ATOM      1  C   UNL     1       0.842   4.011  20.294  0.00  0.00    +0.000 C 
ATOM      2  C   UNL     1       2.302   3.830  19.954  0.00  0.00    +0.000 C 
ATOM      3  C   UNL     1       2.775   2.575  20.036  0.00  0.00    +0.000 C 
ATOM      4  C   UNL     1       4.131   2.139  19.611  0.00  0.00    +0.000 C 
ATOM      5  C   UNL     1       3.999   1.143  18.454  0.00  0.00    +0.000 C 
ATOM      6  C   UNL     1       4.869   1.491  20.787  0.00  0.00    +0.000 C 
ATOM      7  N   UNL     1       4.868   3.294  19.163  0.00  0.00    +0.000 N 
ATOM      8  C   UNL     1       4.484   4.604  19.172  0.00  0.00    +0.000 C 
ATOM      9  S   UNL     1       5.762   5.664  18.875  0.00  0.00    +0.000 S 
ATOM     10  N   UNL     1       3.123   4.888  19.484  0.00  0.00    +0.000 N 
ATOM     11  H   UNL     1       5.853   3.161  18.941  0.00  0.00    +0.000 HD
ENDROOT
BRANCH  10  12
ATOM     12  C   UNL     1       2.614   6.249  19.324  0.00  0.00    +0.000 A 
ATOM     13  C   UNL     1       2.122   6.988  20.419  0.00  0.00    +0.000 A 
ATOM     14  C   UNL     1       1.605   8.285  20.271  0.00  0.00    +0.000 A 
ATOM     15  C   UNL     1       1.644   8.902  19.021  0.00  0.00    +0.000 A 
ATOM     16  C   UNL     1       2.160   8.214  17.922  0.00  0.00    +0.000 A 
ATOM     17  C   UNL     1       2.601   6.891  18.075  0.00  0.00    +0.000 A 
BRANCH  15  18
ATOM     18  N   UNL     1       1.137  10.270  18.858  0.00  0.00    +0.000 N 
ATOM     19  O   UNL     1       0.041  10.545  19.366  0.00  0.00    +0.000 OA
ATOM     20  O   UNL     1       1.838  11.071  18.223  0.00  0.00    +0.000 OA
ENDBRANCH  15  18
ENDBRANCH  10  12
TORSDOF 2
ENDMDL
MODEL 7
REMARK VINA RESULT:      -5.8      1.589      1.719
REMARK  Name = 
REMARK  5 active torsions:
REMARK  status: ('A' for Active; 'I' for Inactive)
REMARK    1  A    between atoms: C_1  and  C_2
REMARK    2  A    between atoms: C_4  and  C_5
REMARK    3  A    between atoms: C_4  and  C_6
REMARK    4  A    between atoms: N_10  and  C_11
REMARK    5  A    between atoms: C_14  and  N_15
REMARK                            x       y       z     vdW  Elec       q    Type
REMARK                         _______ _______ _______ _____ _____    ______ ____
ROOT
ATOM      1  C   UNL     1       2.121   3.657  16.578  0.00  0.00    +0.000 C 
ATOM      2  C   UNL     1       2.874   4.029  17.834  0.00  0.00    +0.000 C 
ATOM      3  C   UNL     1       2.205   3.876  18.989  0.00  0.00    +0.000 C 
ATOM      4  C   UNL     1       2.788   4.038  20.347  0.00  0.00    +0.000 C 
ATOM      5  C   UNL     1       2.731   2.695  21.082  0.00  0.00    +0.000 C 
ATOM      6  C   UNL     1       2.015   5.104  21.129  0.00  0.00    +0.000 C 
ATOM      7  N   UNL     1       4.164   4.448  20.212  0.00  0.00    +0.000 N 
ATOM      8  C   UNL     1       4.858   4.735  19.072  0.00  0.00    +0.000 C 
ATOM      9  S   UNL     1       6.333   5.495  19.376  0.00  0.00    +0.000 S 
ATOM     10  N   UNL     1       4.236   4.427  17.828  0.00  0.00    +0.000 N 
ATOM     11  H   UNL     1       4.661   4.701  21.065  0.00  0.00    +0.000 HD
ENDROOT
BRANCH  10  12
ATOM     12  C   UNL     1       5.004   4.537  16.589  0.00  0.00    +0.000 A 
ATOM     13  C   UNL     1       5.177   5.773  15.933  0.00  0.00    +0.000 A 
ATOM     14  C   UNL     1       5.889   5.885  14.729  0.00  0.00    +0.000 A 
ATOM     15  C   UNL     1       6.514   4.760  14.194  0.00  0.00    +0.000 A 
ATOM     16  C   UNL     1       6.397   3.526  14.836  0.00  0.00    +0.000 A 
ATOM     17  C   UNL     1       5.617   3.421  15.998  0.00  0.00    +0.000 A 
BRANCH  15  18
ATOM     18  N   UNL     1       7.290   4.868  12.952  0.00  0.00    +0.000 N 
ATOM     19  O   UNL     1       8.130   5.776  12.872  0.00  0.00    +0.000 OA
ATOM     20  O   UNL     1       7.061   4.042  12.057  0.00  0.00    +0.000 OA
ENDBRANCH  15  18
ENDBRANCH  10  12
TORSDOF 2
ENDMDL
MODEL 8
REMARK VINA RESULT:      -5.8      1.577      1.844
REMARK  Name = 
REMARK  5 active torsions:
REMARK  status: ('A' for Active; 'I' for Inactive)
REMARK    1  A    between atoms: C_1  and  C_2
REMARK    2  A    between atoms: C_4  and  C_5
REMARK    3  A    between atoms: C_4  and  C_6
REMARK    4  A    between atoms: N_10  and  C_11
REMARK    5  A    between atoms: C_14  and  N_15
REMARK                            x       y       z     vdW  Elec       q    Type
REMARK                         _______ _______ _______ _____ _____    ______ ____
ROOT
ATOM      1  C   UNL     1       2.124   3.612  16.573  0.00  0.00    +0.000 C 
ATOM      2  C   UNL     1       2.863   4.000  17.833  0.00  0.00    +0.000 C 
ATOM      3  C   UNL     1       2.187   3.845  18.983  0.00  0.00    +0.000 C 
ATOM      4  C   UNL     1       2.756   4.022  20.345  0.00  0.00    +0.000 C 
ATOM      5  C   UNL     1       2.710   2.682  21.087  0.00  0.00    +0.000 C 
ATOM      6  C   UNL     1       1.963   5.082  21.115  0.00  0.00    +0.000 C 
ATOM      7  N   UNL     1       4.128   4.448  20.219  0.00  0.00    +0.000 N 
ATOM      8  C   UNL     1       4.827   4.738  19.083  0.00  0.00    +0.000 C 
ATOM      9  S   UNL     1       6.290   5.518  19.395  0.00  0.00    +0.000 S 
ATOM     10  N   UNL     1       4.219   4.416  17.836  0.00  0.00    +0.000 N 
ATOM     11  H   UNL     1       4.614   4.711  21.075  0.00  0.00    +0.000 HD
ENDROOT
BRANCH  10  12
ATOM     12  C   UNL     1       4.996   4.529  16.602  0.00  0.00    +0.000 A 
ATOM     13  C   UNL     1       5.649   3.415  16.036  0.00  0.00    +0.000 A 
ATOM     14  C   UNL     1       6.420   3.518  14.867  0.00  0.00    +0.000 A 
ATOM     15  C   UNL     1       6.488   4.738  14.195  0.00  0.00    +0.000 A 
ATOM     16  C   UNL     1       5.823   5.853  14.706  0.00  0.00    +0.000 A 
ATOM     17  C   UNL     1       5.121   5.747  15.916  0.00  0.00    +0.000 A 
BRANCH  15  18
ATOM     18  N   UNL     1       7.264   4.853  12.954  0.00  0.00    +0.000 N 
ATOM     19  O   UNL     1       7.011   4.058  12.037  0.00  0.00    +0.000 OA
ATOM     20  O   UNL     1       8.126   5.741  12.895  0.00  0.00    +0.000 OA
ENDBRANCH  15  18
ENDBRANCH  10  12
TORSDOF 2
ENDMDL
MODEL 9
REMARK VINA RESULT:      -5.7      4.575      6.172
REMARK  Name = 
REMARK  5 active torsions:
REMARK  status: ('A' for Active; 'I' for Inactive)
REMARK    1  A    between atoms: C_1  and  C_2
REMARK    2  A    between atoms: C_4  and  C_5
REMARK    3  A    between atoms: C_4  and  C_6
REMARK    4  A    between atoms: N_10  and  C_11
REMARK    5  A    between atoms: C_14  and  N_15
REMARK                            x       y       z     vdW  Elec       q    Type
REMARK                         _______ _______ _______ _____ _____    ______ ____
ROOT
ATOM      1  C   UNL     1       5.321   5.804  18.487  0.00  0.00    +0.000 C 
ATOM      2  C   UNL     1       4.356   4.725  18.918  0.00  0.00    +0.000 C 
ATOM      3  C   UNL     1       4.846   3.475  18.950  0.00  0.00    +0.000 C 
ATOM      4  C   UNL     1       4.129   2.284  19.478  0.00  0.00    +0.000 C 
ATOM      5  C   UNL     1       4.886   1.739  20.693  0.00  0.00    +0.000 C 
ATOM      6  C   UNL     1       4.024   1.208  18.392  0.00  0.00    +0.000 C 
ATOM      7  N   UNL     1       2.805   2.686  19.883  0.00  0.00    +0.000 N 
ATOM      8  C   UNL     1       2.213   3.910  19.761  0.00  0.00    +0.000 C 
ATOM      9  S   UNL     1       0.551   3.866  20.051  0.00  0.00    +0.000 S 
ATOM     10  N   UNL     1       3.035   5.000  19.356  0.00  0.00    +0.000 N 
ATOM     11  H   UNL     1       2.161   1.949  20.167  0.00  0.00    +0.000 HD
ENDROOT
BRANCH  10  12
ATOM     12  C   UNL     1       2.500   6.361  19.392  0.00  0.00    +0.000 A 
ATOM     13  C   UNL     1       2.402   7.148  18.227  0.00  0.00    +0.000 A 
ATOM     14  C   UNL     1       1.916   8.465  18.255  0.00  0.00    +0.000 A 
ATOM     15  C   UNL     1       1.441   8.996  19.454  0.00  0.00    +0.000 A 
ATOM     16  C   UNL     1       1.486   8.232  20.620  0.00  0.00    +0.000 A 
ATOM     17  C   UNL     1       2.046   6.946  20.586  0.00  0.00    +0.000 A 
BRANCH  15  18
ATOM     18  N   UNL     1       0.899  10.360  19.492  0.00  0.00    +0.000 N 
ATOM     19  O   UNL     1       0.316  10.779  18.483  0.00  0.00    +0.000 OA
ATOM     20  O   UNL     1       1.056  11.012  20.535  0.00  0.00    +0.000 OA
ENDBRANCH  15  18
ENDBRANCH  10  12
TORSDOF 2
ENDMDL
