MODEL 1
REMARK VINA RESULT:      -8.8      0.000      0.000
REMARK  Name = 
REMARK  5 active torsions:
REMARK  status: ('A' for Active; 'I' for Inactive)
REMARK    1  A    between atoms: C_2  and  O_3
REMARK    2  A    between atoms: C_2  and  C_4
REMARK    3  A    between atoms: C_13  and  C_14
REMARK    4  A    between atoms: C_15  and  C_16
REMARK    5  A    between atoms: C_23  and  N_24
REMARK                            x       y       z     vdW  Elec       q    Type
REMARK                         _______ _______ _______ _____ _____    ______ ____
ROOT
ATOM      1  C   UNL     1       2.082   7.528  19.529  0.00  0.00    +0.000 C 
ATOM      2  C   UNL     1       1.608   8.622  18.907  0.00  0.00    +0.000 C 
ENDROOT
BRANCH   1  12
ATOM      3  C   UNL     1       2.769   5.110  19.210  0.00  0.00    +0.000 A 
ATOM      4  C   UNL     1       3.505   4.197  18.443  0.00  0.00    +0.000 A 
ATOM      5  C   UNL     1       4.303   4.642  17.384  0.00  0.00    +0.000 A 
ATOM      6  C   UNL     1       5.064   3.745  16.616  0.00  0.00    +0.000 A 
ATOM      7  C   UNL     1       5.834   4.207  15.552  0.00  0.00    +0.000 A 
ATOM      8  C   UNL     1       5.837   5.564  15.250  0.00  0.00    +0.000 A 
ATOM      9  C   UNL     1       5.080   6.453  16.023  0.00  0.00    +0.000 A 
ATOM     10  C   UNL     1       4.312   6.021  17.100  0.00  0.00    +0.000 A 
ATOM     11  N   UNL     1       3.600   6.906  17.826  0.00  0.00    +0.000 NA
ATOM     12  C   UNL     1       2.834   6.460  18.861  0.00  0.00    +0.000 A 
BRANCH   3  14
ATOM     13  O   UNL     1       0.812   4.088  20.120  0.00  0.00    +0.000 OA
ATOM     14  C   UNL     1       1.894   4.618  20.301  0.00  0.00    +0.000 C 
BRANCH  14  15
ATOM     15  O   UNL     1       2.418   4.781  21.537  0.00  0.00    +0.000 OA
ATOM     16  H   UNL     1       2.228   4.082  22.189  0.00  0.00    +0.000 HD
ENDBRANCH  14  15
ENDBRANCH   3  14
ENDBRANCH   1  12
BRANCH   2  17
ATOM     17  C   UNL     1       0.852   9.652  19.542  0.00  0.00    +0.000 A 
ATOM     18  C   UNL     1       1.207  10.337  20.677  0.00  0.00    +0.000 A 
ATOM     19  N   UNL     1       0.203  11.245  20.882  0.00  0.00    +0.000 N 
ATOM     20  N   UNL     1       0.194  12.154  21.891  0.00  0.00    +0.000 NA
ATOM     21  C   UNL     1      -0.859  12.907  21.866  0.00  0.00    +0.000 A 
ATOM     22 CL   UNL     1      -0.951  14.106  23.105  0.00  0.00    +0.000 Cl
ATOM     23  C   UNL     1      -1.960  12.817  20.885  0.00  0.00    +0.000 A 
ATOM     24  C   UNL     1      -1.918  11.885  19.915  0.00  0.00    +0.000 A 
ATOM     25  C   UNL     1      -0.744  11.053  19.880  0.00  0.00    +0.000 A 
ATOM     26  N   UNL     1      -0.356  10.094  19.056  0.00  0.00    +0.000 NA
BRANCH  24  27
ATOM     27  N   UNL     1      -2.968  11.791  18.989  0.00  0.00    +0.000 N 
ATOM     28  C   UNL     1      -4.346  12.252  19.269  0.00  0.00    +0.000 C 
ATOM     29  C   UNL     1      -5.336  11.285  18.588  0.00  0.00    +0.000 C 
ATOM     30  O   UNL     1      -5.097  11.162  17.175  0.00  0.00    +0.000 OA
ATOM     31  C   UNL     1      -3.754  10.716  16.928  0.00  0.00    +0.000 C 
ATOM     32  C   UNL     1      -2.732  11.683  17.532  0.00  0.00    +0.000 C 
ENDBRANCH  24  27
ENDBRANCH   2  17
TORSDOF 5
ENDMDL
MODEL 2
REMARK VINA RESULT:      -8.8      3.682      9.053
REMARK  Name = 
REMARK  5 active torsions:
REMARK  status: ('A' for Active; 'I' for Inactive)
REMARK    1  A    between atoms: C_2  and  O_3
REMARK    2  A    between atoms: C_2  and  C_4
REMARK    3  A    between atoms: C_13  and  C_14
REMARK    4  A    between atoms: C_15  and  C_16
REMARK    5  A    between atoms: C_23  and  N_24
REMARK                            x       y       z     vdW  Elec       q    Type
REMARK                         _______ _______ _______ _____ _____    ______ ____
ROOT
ATOM      1  C   UNL     1       1.300   9.183  19.765  0.00  0.00    +0.000 C 
ATOM      2  C   UNL     1       1.907   9.033  18.574  0.00  0.00    +0.000 C 
ENDROOT
BRANCH   1  12
ATOM      3  C   UNL     1      -0.107  10.533  21.383  0.00  0.00    +0.000 A 
ATOM      4  C   UNL     1      -0.685  11.777  21.670  0.00  0.00    +0.000 A 
ATOM      5  C   UNL     1      -0.583  12.833  20.760  0.00  0.00    +0.000 A 
ATOM      6  C   UNL     1      -1.173  14.082  21.021  0.00  0.00    +0.000 A 
ATOM      7  C   UNL     1      -1.040  15.127  20.111  0.00  0.00    +0.000 A 
ATOM      8  C   UNL     1      -0.311  14.928  18.945  0.00  0.00    +0.000 A 
ATOM      9  C   UNL     1       0.270  13.680  18.689  0.00  0.00    +0.000 A 
ATOM     10  C   UNL     1       0.142  12.614  19.573  0.00  0.00    +0.000 A 
ATOM     11  N   UNL     1       0.710  11.424  19.292  0.00  0.00    +0.000 NA
ATOM     12  C   UNL     1       0.595  10.400  20.184  0.00  0.00    +0.000 A 
BRANCH   3  14
ATOM     13  O   UNL     1      -0.784   8.391  22.191  0.00  0.00    +0.000 OA
ATOM     14  C   UNL     1      -0.187   9.437  22.378  0.00  0.00    +0.000 C 
BRANCH  14  15
ATOM     15  O   UNL     1       0.495   9.684  23.519  0.00  0.00    +0.000 OA
ATOM     16  H   UNL     1       0.129   9.304  24.338  0.00  0.00    +0.000 HD
ENDBRANCH  14  15
ENDBRANCH   3  14
ENDBRANCH   1  12
BRANCH   2  17
ATOM     17  C   UNL     1       2.619   7.866  18.168  0.00  0.00    +0.000 A 
ATOM     18  C   UNL     1       3.575   7.798  17.185  0.00  0.00    +0.000 A 
ATOM     19  N   UNL     1       4.001   6.497  17.182  0.00  0.00    +0.000 N 
ATOM     20  N   UNL     1       4.982   6.019  16.373  0.00  0.00    +0.000 NA
ATOM     21  C   UNL     1       5.210   4.760  16.566  0.00  0.00    +0.000 A 
ATOM     22 CL   UNL     1       6.454   4.067  15.590  0.00  0.00    +0.000 Cl
ATOM     23  C   UNL     1       4.499   3.893  17.528  0.00  0.00    +0.000 A 
ATOM     24  C   UNL     1       3.517   4.405  18.293  0.00  0.00    +0.000 A 
ATOM     25  C   UNL     1       3.260   5.813  18.141  0.00  0.00    +0.000 A 
ATOM     26  N   UNL     1       2.424   6.636  18.752  0.00  0.00    +0.000 NA
BRANCH  24  27
ATOM     27  N   UNL     1       2.835   3.580  19.199  0.00  0.00    +0.000 N 
ATOM     28  C   UNL     1       1.434   3.143  19.010  0.00  0.00    +0.000 C 
ATOM     29  C   UNL     1       0.742   3.095  20.387  0.00  0.00    +0.000 C 
ATOM     30  O   UNL     1       1.438   2.250  21.321  0.00  0.00    +0.000 OA
ATOM     31  C   UNL     1       2.794   2.692  21.487  0.00  0.00    +0.000 C 
ATOM     32  C   UNL     1       3.542   2.693  20.150  0.00  0.00    +0.000 C 
ENDBRANCH  24  27
ENDBRANCH   2  17
TORSDOF 5
ENDMDL
MODEL 3
REMARK VINA RESULT:      -8.8      2.870      3.862
REMARK  Name = 
REMARK  5 active torsions:
REMARK  status: ('A' for Active; 'I' for Inactive)
REMARK    1  A    between atoms: C_2  and  O_3
REMARK    2  A    between atoms: C_2  and  C_4
REMARK    3  A    between atoms: C_13  and  C_14
REMARK    4  A    between atoms: C_15  and  C_16
REMARK    5  A    between atoms: C_23  and  N_24
REMARK                            x       y       z     vdW  Elec       q    Type
REMARK                         _______ _______ _______ _____ _____    ______ ____
ROOT
ATOM      1  C   UNL     1       2.941   7.949  17.939  0.00  0.00    +0.000 C 
ATOM      2  C   UNL     1       1.786   8.477  18.383  0.00  0.00    +0.000 C 
ENDROOT
BRANCH   1  12
ATOM      3  C   UNL     1       4.274   5.957  17.116  0.00  0.00    +0.000 A 
ATOM      4  C   UNL     1       4.409   4.562  17.115  0.00  0.00    +0.000 A 
ATOM      5  C   UNL     1       3.460   3.759  17.755  0.00  0.00    +0.000 A 
ATOM      6  C   UNL     1       3.566   2.357  17.748  0.00  0.00    +0.000 A 
ATOM      7  C   UNL     1       2.622   1.577  18.410  0.00  0.00    +0.000 A 
ATOM      8  C   UNL     1       1.577   2.196  19.086  0.00  0.00    +0.000 A 
ATOM      9  C   UNL     1       1.475   3.593  19.085  0.00  0.00    +0.000 A 
ATOM     10  C   UNL     1       2.395   4.397  18.421  0.00  0.00    +0.000 A 
ATOM     11  N   UNL     1       2.263   5.738  18.435  0.00  0.00    +0.000 NA
ATOM     12  C   UNL     1       3.190   6.510  17.800  0.00  0.00    +0.000 A 
BRANCH   3  14
ATOM     13  O   UNL     1       6.298   7.224  17.047  0.00  0.00    +0.000 OA
ATOM     14  C   UNL     1       5.312   6.797  16.471  0.00  0.00    +0.000 C 
BRANCH  14  15
ATOM     15  O   UNL     1       5.087   7.032  15.159  0.00  0.00    +0.000 OA
ATOM     16  H   UNL     1       5.871   7.153  14.595  0.00  0.00    +0.000 HD
ENDBRANCH  14  15
ENDBRANCH   3  14
ENDBRANCH   1  12
BRANCH   2  17
ATOM     17  C   UNL     1       1.545   9.873  18.548  0.00  0.00    +0.000 A 
ATOM     18  C   UNL     1       2.367  10.893  18.136  0.00  0.00    +0.000 A 
ATOM     19  N   UNL     1       1.708  12.047  18.470  0.00  0.00    +0.000 N 
ATOM     20  N   UNL     1       2.170  13.294  18.194  0.00  0.00    +0.000 NA
ATOM     21  C   UNL     1       1.362  14.219  18.600  0.00  0.00    +0.000 A 
ATOM     22 CL   UNL     1       1.860  15.841  18.279  0.00  0.00    +0.000 Cl
ATOM     23  C   UNL     1       0.083  13.998  19.304  0.00  0.00    +0.000 A 
ATOM     24  C   UNL     1      -0.324  12.744  19.576  0.00  0.00    +0.000 A 
ATOM     25  C   UNL     1       0.524  11.682  19.104  0.00  0.00    +0.000 A 
ATOM     26  N   UNL     1       0.411  10.365  19.149  0.00  0.00    +0.000 NA
BRANCH  24  27
ATOM     27  N   UNL     1      -1.534  12.534  20.254  0.00  0.00    +0.000 N 
ATOM     28  C   UNL     1      -2.807  12.211  19.571  0.00  0.00    +0.000 C 
ATOM     29  C   UNL     1      -3.960  12.904  20.325  0.00  0.00    +0.000 C 
ATOM     30  O   UNL     1      -4.000  12.542  21.717  0.00  0.00    +0.000 OA
ATOM     31  C   UNL     1      -2.756  12.863  22.357  0.00  0.00    +0.000 C 
ATOM     32  C   UNL     1      -1.586  12.143  21.681  0.00  0.00    +0.000 C 
ENDBRANCH  24  27
ENDBRANCH   2  17
TORSDOF 5
ENDMDL
MODEL 4
REMARK VINA RESULT:      -8.7      2.965      9.373
REMARK  Name = 
REMARK  5 active torsions:
REMARK  status: ('A' for Active; 'I' for Inactive)
REMARK    1  A    between atoms: C_2  and  O_3
REMARK    2  A    between atoms: C_2  and  C_4
REMARK    3  A    between atoms: C_13  and  C_14
REMARK    4  A    between atoms: C_15  and  C_16
REMARK    5  A    between atoms: C_23  and  N_24
REMARK                            x       y       z     vdW  Elec       q    Type
REMARK                         _______ _______ _______ _____ _____    ______ ____
ROOT
ATOM      1  C   UNL     1       0.145   9.570  18.615  0.00  0.00    +0.000 C 
ATOM      2  C   UNL     1       1.370   9.249  19.069  0.00  0.00    +0.000 C 
ENDROOT
BRANCH   1  12
ATOM      3  C   UNL     1      -1.826  11.163  18.595  0.00  0.00    +0.000 A 
ATOM      4  C   UNL     1      -2.586  12.089  19.322  0.00  0.00    +0.000 A 
ATOM      5  C   UNL     1      -2.214  12.446  20.621  0.00  0.00    +0.000 A 
ATOM      6  C   UNL     1      -2.952  13.388  21.359  0.00  0.00    +0.000 A 
ATOM      7  C   UNL     1      -2.577  13.712  22.659  0.00  0.00    +0.000 A 
ATOM      8  C   UNL     1      -1.471  13.090  23.227  0.00  0.00    +0.000 A 
ATOM      9  C   UNL     1      -0.738  12.157  22.484  0.00  0.00    +0.000 A 
ATOM     10  C   UNL     1      -1.081  11.823  21.178  0.00  0.00    +0.000 A 
ATOM     11  N   UNL     1      -0.349  10.924  20.490  0.00  0.00    +0.000 NA
ATOM     12  C   UNL     1      -0.717  10.591  19.221  0.00  0.00    +0.000 A 
BRANCH   3  14
ATOM     13  O   UNL     1      -2.782   9.693  16.974  0.00  0.00    +0.000 OA
ATOM     14  C   UNL     1      -2.258  10.762  17.234  0.00  0.00    +0.000 C 
BRANCH  14  15
ATOM     15  O   UNL     1      -2.045  11.708  16.293  0.00  0.00    +0.000 OA
ATOM     16  H   UNL     1      -1.221  12.223  16.368  0.00  0.00    +0.000 HD
ENDBRANCH  14  15
ENDBRANCH   3  14
ENDBRANCH   1  12
BRANCH   2  17
ATOM     17  C   UNL     1       2.204   8.238  18.505  0.00  0.00    +0.000 A 
ATOM     18  C   UNL     1       3.168   8.424  17.546  0.00  0.00    +0.000 A 
ATOM     19  N   UNL     1       3.728   7.190  17.351  0.00  0.00    +0.000 N 
ATOM     20  N   UNL     1       4.760   6.948  16.501  0.00  0.00    +0.000 NA
ATOM     21  C   UNL     1       5.118   5.704  16.502  0.00  0.00    +0.000 A 
ATOM     22 CL   UNL     1       6.434   5.304  15.460  0.00  0.00    +0.000 Cl
ATOM     23  C   UNL     1       4.496   4.630  17.301  0.00  0.00    +0.000 A 
ATOM     24  C   UNL     1       3.461   4.912  18.114  0.00  0.00    +0.000 A 
ATOM     25  C   UNL     1       3.058   6.293  18.176  0.00  0.00    +0.000 A 
ATOM     26  N   UNL     1       2.136   6.920  18.888  0.00  0.00    +0.000 NA
BRANCH  24  27
ATOM     27  N   UNL     1       2.863   3.890  18.866  0.00  0.00    +0.000 N 
ATOM     28  C   UNL     1       1.844   2.965  18.322  0.00  0.00    +0.000 C 
ATOM     29  C   UNL     1       0.815   2.659  19.429  0.00  0.00    +0.000 C 
ATOM     30  O   UNL     1       1.429   2.130  20.617  0.00  0.00    +0.000 OA
ATOM     31  C   UNL     1       2.414   3.043  21.126  0.00  0.00    +0.000 C 
ATOM     32  C   UNL     1       3.496   3.325  20.080  0.00  0.00    +0.000 C 
ENDBRANCH  24  27
ENDBRANCH   2  17
TORSDOF 5
ENDMDL
MODEL 5
REMARK VINA RESULT:      -8.5      3.003      4.111
REMARK  Name = 
REMARK  5 active torsions:
REMARK  status: ('A' for Active; 'I' for Inactive)
REMARK    1  A    between atoms: C_2  and  O_3
REMARK    2  A    between atoms: C_2  and  C_4
REMARK    3  A    between atoms: C_13  and  C_14
REMARK    4  A    between atoms: C_15  and  C_16
REMARK    5  A    between atoms: C_23  and  N_24
REMARK                            x       y       z     vdW  Elec       q    Type
REMARK                         _______ _______ _______ _____ _____    ______ ____
ROOT
ATOM      1  C   UNL     1       2.973   8.047  18.167  0.00  0.00    +0.000 C 
ATOM      2  C   UNL     1       1.812   8.721  18.250  0.00  0.00    +0.000 C 
ENDROOT
BRANCH   1  12
ATOM      3  C   UNL     1       4.047   5.965  17.202  0.00  0.00    +0.000 A 
ATOM      4  C   UNL     1       4.047   4.564  17.159  0.00  0.00    +0.000 A 
ATOM      5  C   UNL     1       3.074   3.834  17.848  0.00  0.00    +0.000 A 
ATOM      6  C   UNL     1       3.044   2.430  17.801  0.00  0.00    +0.000 A 
ATOM      7  C   UNL     1       2.080   1.722  18.512  0.00  0.00    +0.000 A 
ATOM      8  C   UNL     1       1.150   2.416  19.279  0.00  0.00    +0.000 A 
ATOM      9  C   UNL     1       1.183   3.815  19.317  0.00  0.00    +0.000 A 
ATOM     10  C   UNL     1       2.126   4.549  18.605  0.00  0.00    +0.000 A 
ATOM     11  N   UNL     1       2.124   5.896  18.661  0.00  0.00    +0.000 NA
ATOM     12  C   UNL     1       3.073   6.596  17.977  0.00  0.00    +0.000 A 
BRANCH   3  14
ATOM     13  O   UNL     1       5.086   6.992  15.313  0.00  0.00    +0.000 OA
ATOM     14  C   UNL     1       5.111   6.723  16.501  0.00  0.00    +0.000 C 
BRANCH  14  15
ATOM     15  O   UNL     1       6.118   7.124  17.309  0.00  0.00    +0.000 OA
ATOM     16  H   UNL     1       5.890   7.298  18.240  0.00  0.00    +0.000 HD
ENDBRANCH  14  15
ENDBRANCH   3  14
ENDBRANCH   1  12
BRANCH   2  17
ATOM     17  C   UNL     1       1.704  10.127  18.463  0.00  0.00    +0.000 A 
ATOM     18  C   UNL     1       2.477  11.098  17.875  0.00  0.00    +0.000 A 
ATOM     19  N   UNL     1       1.986  12.287  18.346  0.00  0.00    +0.000 N 
ATOM     20  N   UNL     1       2.454  13.505  17.971  0.00  0.00    +0.000 NA
ATOM     21  C   UNL     1       1.820  14.475  18.548  0.00  0.00    +0.000 A 
ATOM     22 CL   UNL     1       2.337  16.066  18.120  0.00  0.00    +0.000 Cl
ATOM     23  C   UNL     1       0.720  14.326  19.523  0.00  0.00    +0.000 A 
ATOM     24  C   UNL     1       0.304  13.098  19.881  0.00  0.00    +0.000 A 
ATOM     25  C   UNL     1       0.954  11.990  19.231  0.00  0.00    +0.000 A 
ATOM     26  N   UNL     1       0.769  10.682  19.303  0.00  0.00    +0.000 NA
BRANCH  24  27
ATOM     27  N   UNL     1      -0.733  12.955  20.815  0.00  0.00    +0.000 N 
ATOM     28  C   UNL     1      -0.512  12.599  22.233  0.00  0.00    +0.000 C 
ATOM     29  C   UNL     1      -1.665  11.687  22.699  0.00  0.00    +0.000 C 
ATOM     30  O   UNL     1      -2.955  12.292  22.501  0.00  0.00    +0.000 OA
ATOM     31  C   UNL     1      -3.147  12.630  21.118  0.00  0.00    +0.000 C 
ATOM     32  C   UNL     1      -2.058  13.590  20.629  0.00  0.00    +0.000 C 
ENDBRANCH  24  27
ENDBRANCH   2  17
TORSDOF 5
ENDMDL
MODEL 6
REMARK VINA RESULT:      -8.5      3.167      9.295
REMARK  Name = 
REMARK  5 active torsions:
REMARK  status: ('A' for Active; 'I' for Inactive)
REMARK    1  A    between atoms: C_2  and  O_3
REMARK    2  A    between atoms: C_2  and  C_4
REMARK    3  A    between atoms: C_13  and  C_14
REMARK    4  A    between atoms: C_15  and  C_16
REMARK    5  A    between atoms: C_23  and  N_24
REMARK                            x       y       z     vdW  Elec       q    Type
REMARK                         _______ _______ _______ _____ _____    ______ ____
ROOT
ATOM      1  C   UNL     1       0.650   9.539  18.219  0.00  0.00    +0.000 C 
ATOM      2  C   UNL     1       1.828   9.118  18.713  0.00  0.00    +0.000 C 
ENDROOT
BRANCH   1  12
ATOM      3  C   UNL     1      -1.396  11.028  18.362  0.00  0.00    +0.000 A 
ATOM      4  C   UNL     1      -1.987  12.144  18.969  0.00  0.00    +0.000 A 
ATOM      5  C   UNL     1      -1.265  12.921  19.879  0.00  0.00    +0.000 A 
ATOM      6  C   UNL     1      -1.833  14.056  20.483  0.00  0.00    +0.000 A 
ATOM      7  C   UNL     1      -1.104  14.803  21.403  0.00  0.00    +0.000 A 
ATOM      8  C   UNL     1       0.190  14.411  21.729  0.00  0.00    +0.000 A 
ATOM      9  C   UNL     1       0.751  13.282  21.120  0.00  0.00    +0.000 A 
ATOM     10  C   UNL     1       0.051  12.526  20.186  0.00  0.00    +0.000 A 
ATOM     11  N   UNL     1       0.625  11.447  19.615  0.00  0.00    +0.000 NA
ATOM     12  C   UNL     1      -0.087  10.704  18.723  0.00  0.00    +0.000 A 
BRANCH   3  14
ATOM     13  O   UNL     1      -3.019   9.372  17.791  0.00  0.00    +0.000 OA
ATOM     14  C   UNL     1      -2.189  10.189  17.432  0.00  0.00    +0.000 C 
BRANCH  14  15
ATOM     15  O   UNL     1      -1.933  10.428  16.127  0.00  0.00    +0.000 OA
ATOM     16  H   UNL     1      -1.270   9.856  15.698  0.00  0.00    +0.000 HD
ENDBRANCH  14  15
ENDBRANCH   3  14
ENDBRANCH   1  12
BRANCH   2  17
ATOM     17  C   UNL     1       2.537   7.971  18.250  0.00  0.00    +0.000 A 
ATOM     18  C   UNL     1       3.466   7.944  17.239  0.00  0.00    +0.000 A 
ATOM     19  N   UNL     1       3.902   6.647  17.181  0.00  0.00    +0.000 N 
ATOM     20  N   UNL     1       4.864   6.205  16.330  0.00  0.00    +0.000 NA
ATOM     21  C   UNL     1       5.107   4.942  16.474  0.00  0.00    +0.000 A 
ATOM     22 CL   UNL     1       6.328   4.293  15.442  0.00  0.00    +0.000 Cl
ATOM     23  C   UNL     1       4.430   4.038  17.427  0.00  0.00    +0.000 A 
ATOM     24  C   UNL     1       3.466   4.516  18.236  0.00  0.00    +0.000 A 
ATOM     25  C   UNL     1       3.194   5.926  18.138  0.00  0.00    +0.000 A 
ATOM     26  N   UNL     1       2.369   6.722  18.799  0.00  0.00    +0.000 NA
BRANCH  24  27
ATOM     27  N   UNL     1       2.816   3.656  19.133  0.00  0.00    +0.000 N 
ATOM     28  C   UNL     1       1.403   3.242  18.989  0.00  0.00    +0.000 C 
ATOM     29  C   UNL     1       0.774   3.136  20.393  0.00  0.00    +0.000 C 
ATOM     30  O   UNL     1       1.503   2.241  21.252  0.00  0.00    +0.000 OA
ATOM     31  C   UNL     1       2.870   2.661  21.376  0.00  0.00    +0.000 C 
ATOM     32  C   UNL     1       3.556   2.718  20.008  0.00  0.00    +0.000 C 
ENDBRANCH  24  27
ENDBRANCH   2  17
TORSDOF 5
ENDMDL
MODEL 7
REMARK VINA RESULT:      -8.4      2.600      3.167
REMARK  Name = 
REMARK  5 active torsions:
REMARK  status: ('A' for Active; 'I' for Inactive)
REMARK    1  A    between atoms: C_2  and  O_3
REMARK    2  A    between atoms: C_2  and  C_4
REMARK    3  A    between atoms: C_13  and  C_14
REMARK    4  A    between atoms: C_15  and  C_16
REMARK    5  A    between atoms: C_23  and  N_24
REMARK                            x       y       z     vdW  Elec       q    Type
REMARK                         _______ _______ _______ _____ _____    ______ ____
ROOT
ATOM      1  C   UNL     1       2.105   7.523  19.725  0.00  0.00    +0.000 C 
ATOM      2  C   UNL     1       1.639   8.658  19.172  0.00  0.00    +0.000 C 
ENDROOT
BRANCH   1  12
ATOM      3  C   UNL     1       2.690   5.103  19.252  0.00  0.00    +0.000 A 
ATOM      4  C   UNL     1       3.371   4.209  18.417  0.00  0.00    +0.000 A 
ATOM      5  C   UNL     1       4.160   4.683  17.364  0.00  0.00    +0.000 A 
ATOM      6  C   UNL     1       4.868   3.803  16.527  0.00  0.00    +0.000 A 
ATOM      7  C   UNL     1       5.629   4.296  15.472  0.00  0.00    +0.000 A 
ATOM      8  C   UNL     1       5.678   5.667  15.246  0.00  0.00    +0.000 A 
ATOM      9  C   UNL     1       4.974   6.538  16.086  0.00  0.00    +0.000 A 
ATOM     10  C   UNL     1       4.217   6.075  17.157  0.00  0.00    +0.000 A 
ATOM     11  N   UNL     1       3.557   6.943  17.950  0.00  0.00    +0.000 NA
ATOM     12  C   UNL     1       2.798   6.468  18.978  0.00  0.00    +0.000 A 
BRANCH   3  14
ATOM     13  O   UNL     1       0.725   4.087  20.152  0.00  0.00    +0.000 OA
ATOM     14  C   UNL     1       1.823   4.583  20.337  0.00  0.00    +0.000 C 
BRANCH  14  15
ATOM     15  O   UNL     1       2.372   4.679  21.569  0.00  0.00    +0.000 OA
ATOM     16  H   UNL     1       3.169   5.233  21.651  0.00  0.00    +0.000 HD
ENDBRANCH  14  15
ENDBRANCH   3  14
ENDBRANCH   1  12
BRANCH   2  17
ATOM     17  C   UNL     1       0.939   9.677  19.884  0.00  0.00    +0.000 A 
ATOM     18  C   UNL     1       0.047   9.484  20.911  0.00  0.00    +0.000 A 
ATOM     19  N   UNL     1      -0.332  10.740  21.303  0.00  0.00    +0.000 N 
ATOM     20  N   UNL     1      -1.183  10.991  22.331  0.00  0.00    +0.000 NA
ATOM     21  C   UNL     1      -1.376  12.258  22.512  0.00  0.00    +0.000 A 
ATOM     22 CL   UNL     1      -2.436  12.675  23.810  0.00  0.00    +0.000 Cl
ATOM     23  C   UNL     1      -0.779  13.344  21.709  0.00  0.00    +0.000 A 
ATOM     24  C   UNL     1       0.042  13.046  20.685  0.00  0.00    +0.000 A 
ATOM     25  C   UNL     1       0.318  11.649  20.475  0.00  0.00    +0.000 A 
ATOM     26  N   UNL     1       1.099  11.016  19.616  0.00  0.00    +0.000 NA
BRANCH  24  27
ATOM     27  N   UNL     1       0.602  14.077  19.916  0.00  0.00    +0.000 N 
ATOM     28  C   UNL     1       2.054  14.356  19.859  0.00  0.00    +0.000 C 
ATOM     29  C   UNL     1       2.260  15.882  19.764  0.00  0.00    +0.000 C 
ATOM     30  O   UNL     1       1.565  16.458  18.643  0.00  0.00    +0.000 OA
ATOM     31  C   UNL     1       0.160  16.173  18.719  0.00  0.00    +0.000 C 
ATOM     32  C   UNL     1      -0.095  14.664  18.749  0.00  0.00    +0.000 C 
ENDBRANCH  24  27
ENDBRANCH   2  17
TORSDOF 5
ENDMDL
MODEL 8
REMARK VINA RESULT:      -8.4      3.102      3.922
REMARK  Name = 
REMARK  5 active torsions:
REMARK  status: ('A' for Active; 'I' for Inactive)
REMARK    1  A    between atoms: C_2  and  O_3
REMARK    2  A    between atoms: C_2  and  C_4
REMARK    3  A    between atoms: C_13  and  C_14
REMARK    4  A    between atoms: C_15  and  C_16
REMARK    5  A    between atoms: C_23  and  N_24
REMARK                            x       y       z     vdW  Elec       q    Type
REMARK                         _______ _______ _______ _____ _____    ______ ____
ROOT
ATOM      1  C   UNL     1       2.239   7.857  18.750  0.00  0.00    +0.000 C 
ATOM      2  C   UNL     1       2.108   8.994  18.043  0.00  0.00    +0.000 C 
ENDROOT
BRANCH   1  12
ATOM      3  C   UNL     1       2.926   5.421  18.875  0.00  0.00    +0.000 A 
ATOM      4  C   UNL     1       3.677   4.389  18.298  0.00  0.00    +0.000 A 
ATOM      5  C   UNL     1       4.503   4.643  17.199  0.00  0.00    +0.000 A 
ATOM      6  C   UNL     1       5.280   3.626  16.619  0.00  0.00    +0.000 A 
ATOM      7  C   UNL     1       6.078   3.895  15.511  0.00  0.00    +0.000 A 
ATOM      8  C   UNL     1       6.094   5.179  14.977  0.00  0.00    +0.000 A 
ATOM      9  C   UNL     1       5.321   6.188  15.562  0.00  0.00    +0.000 A 
ATOM     10  C   UNL     1       4.525   5.951  16.678  0.00  0.00    +0.000 A 
ATOM     11  N   UNL     1       3.798   6.948  17.221  0.00  0.00    +0.000 NA
ATOM     12  C   UNL     1       3.004   6.689  18.298  0.00  0.00    +0.000 A 
BRANCH   3  14
ATOM     13  O   UNL     1       0.978   4.505  19.910  0.00  0.00    +0.000 OA
ATOM     14  C   UNL     1       2.022   5.126  20.013  0.00  0.00    +0.000 C 
BRANCH  14  15
ATOM     15  O   UNL     1       2.472   5.587  21.202  0.00  0.00    +0.000 OA
ATOM     16  H   UNL     1       2.846   4.927  21.814  0.00  0.00    +0.000 HD
ENDBRANCH  14  15
ENDBRANCH   3  14
ENDBRANCH   1  12
BRANCH   2  17
ATOM     17  C   UNL     1       1.344  10.124  18.462  0.00  0.00    +0.000 A 
ATOM     18  C   UNL     1       0.029  10.113  18.857  0.00  0.00    +0.000 A 
ATOM     19  N   UNL     1      -0.257  11.407  19.203  0.00  0.00    +0.000 N 
ATOM     20  N   UNL     1      -1.456  11.817  19.691  0.00  0.00    +0.000 NA
ATOM     21  C   UNL     1      -1.474  13.084  19.952  0.00  0.00    +0.000 A 
ATOM     22 CL   UNL     1      -2.957  13.695  20.592  0.00  0.00    +0.000 Cl
ATOM     23  C   UNL     1      -0.353  14.023  19.743  0.00  0.00    +0.000 A 
ATOM     24  C   UNL     1       0.810  13.575  19.236  0.00  0.00    +0.000 A 
ATOM     25  C   UNL     1       0.888  12.162  18.971  0.00  0.00    +0.000 A 
ATOM     26  N   UNL     1       1.868  11.392  18.529  0.00  0.00    +0.000 NA
BRANCH  24  27
ATOM     27  N   UNL     1       1.872  14.468  19.028  0.00  0.00    +0.000 N 
ATOM     28  C   UNL     1       1.683  15.890  18.664  0.00  0.00    +0.000 C 
ATOM     29  C   UNL     1       2.803  16.302  17.687  0.00  0.00    +0.000 C 
ATOM     30  O   UNL     1       4.115  16.064  18.227  0.00  0.00    +0.000 OA
ATOM     31  C   UNL     1       4.274  14.679  18.573  0.00  0.00    +0.000 C 
ATOM     32  C   UNL     1       3.221  14.241  19.594  0.00  0.00    +0.000 C 
ENDBRANCH  24  27
ENDBRANCH   2  17
TORSDOF 5
ENDMDL
MODEL 9
REMARK VINA RESULT:      -8.4      0.698      1.104
REMARK  Name = 
REMARK  5 active torsions:
REMARK  status: ('A' for Active; 'I' for Inactive)
REMARK    1  A    between atoms: C_2  and  O_3
REMARK    2  A    between atoms: C_2  and  C_4
REMARK    3  A    between atoms: C_13  and  C_14
REMARK    4  A    between atoms: C_15  and  C_16
REMARK    5  A    between atoms: C_23  and  N_24
REMARK                            x       y       z     vdW  Elec       q    Type
REMARK                         _______ _______ _______ _____ _____    ______ ____
ROOT
ATOM      1  C   UNL     1       2.182   7.659  19.079  0.00  0.00    +0.000 C 
ATOM      2  C   UNL     1       1.762   8.720  18.367  0.00  0.00    +0.000 C 
ENDROOT
BRANCH   1  12
ATOM      3  C   UNL     1       2.866   5.221  18.972  0.00  0.00    +0.000 A 
ATOM      4  C   UNL     1       3.614   4.247  18.298  0.00  0.00    +0.000 A 
ATOM      5  C   UNL     1       4.436   4.603  17.224  0.00  0.00    +0.000 A 
ATOM      6  C   UNL     1       5.211   3.644  16.548  0.00  0.00    +0.000 A 
ATOM      7  C   UNL     1       6.005   4.016  15.468  0.00  0.00    +0.000 A 
ATOM      8  C   UNL     1       6.021   5.344  15.057  0.00  0.00    +0.000 A 
ATOM      9  C   UNL     1       5.251   6.294  15.738  0.00  0.00    +0.000 A 
ATOM     10  C   UNL     1       4.458   5.954  16.829  0.00  0.00    +0.000 A 
ATOM     11  N   UNL     1       3.734   6.896  17.465  0.00  0.00    +0.000 NA
ATOM     12  C   UNL     1       2.944   6.538  18.516  0.00  0.00    +0.000 A 
BRANCH   3  14
ATOM     13  O   UNL     1       0.900   4.250  19.920  0.00  0.00    +0.000 OA
ATOM     14  C   UNL     1       1.965   4.821  20.080  0.00  0.00    +0.000 C 
BRANCH  14  15
ATOM     15  O   UNL     1       2.444   5.122  21.308  0.00  0.00    +0.000 OA
ATOM     16  H   UNL     1       2.501   6.067  21.537  0.00  0.00    +0.000 HD
ENDBRANCH  14  15
ENDBRANCH   3  14
ENDBRANCH   1  12
BRANCH   2  17
ATOM     17  C   UNL     1       0.997   9.800  18.898  0.00  0.00    +0.000 A 
ATOM     18  C   UNL     1       1.411  10.695  19.853  0.00  0.00    +0.000 A 
ATOM     19  N   UNL     1       0.366  11.566  20.012  0.00  0.00    +0.000 N 
ATOM     20  N   UNL     1       0.388  12.637  20.847  0.00  0.00    +0.000 NA
ATOM     21  C   UNL     1      -0.716  13.312  20.812  0.00  0.00    +0.000 A 
ATOM     22 CL   UNL     1      -0.774  14.703  21.832  0.00  0.00    +0.000 Cl
ATOM     23  C   UNL     1      -1.899  12.985  19.991  0.00  0.00    +0.000 A 
ATOM     24  C   UNL     1      -1.884  11.900  19.195  0.00  0.00    +0.000 A 
ATOM     25  C   UNL     1      -0.659  11.144  19.171  0.00  0.00    +0.000 A 
ATOM     26  N   UNL     1      -0.284  10.079  18.484  0.00  0.00    +0.000 NA
BRANCH  24  27
ATOM     27  N   UNL     1      -3.012  11.583  18.423  0.00  0.00    +0.000 N 
ATOM     28  C   UNL     1      -2.987  10.622  17.298  0.00  0.00    +0.000 C 
ATOM     29  C   UNL     1      -3.935  11.132  16.193  0.00  0.00    +0.000 C 
ATOM     30  O   UNL     1      -5.273  11.346  16.677  0.00  0.00    +0.000 OA
ATOM     31  C   UNL     1      -5.272  12.280  17.768  0.00  0.00    +0.000 C 
ATOM     32  C   UNL     1      -4.393  11.783  18.918  0.00  0.00    +0.000 C 
ENDBRANCH  24  27
ENDBRANCH   2  17
TORSDOF 5
ENDMDL
