MODEL 1
REMARK VINA RESULT:      -7.6      0.000      0.000
REMARK  Name = 
REMARK  7 active torsions:
REMARK  status: ('A' for Active; 'I' for Inactive)
REMARK    1  A    between atoms: C_1  and  C_2
REMARK    2  A    between atoms: C_2  and  C_3
REMARK    3  A    between atoms: C_3  and  C_4
REMARK    4  A    between atoms: C_4  and  C_5
REMARK    5  A    between atoms: N_15  and  C_16
REMARK    6  A    between atoms: C_19  and  O_20
REMARK    7  A    between atoms: O_20  and  C_21
REMARK                            x       y       z     vdW  Elec       q    Type
REMARK                         _______ _______ _______ _____ _____    ______ ____
ROOT
ATOM      1  C   UNL     1       3.159   5.387  19.315  0.00  0.00    +0.000 C 
ATOM      2  N   UNL     1       2.696   6.201  20.461  0.00  0.00    +0.000 N 
ATOM      3  C   UNL     1       1.925   7.333  20.191  0.00  0.00    +0.000 A 
ATOM      4  C   UNL     1       1.120   7.896  21.189  0.00  0.00    +0.000 A 
ATOM      5  C   UNL     1       0.417   9.085  20.962  0.00  0.00    +0.000 A 
ATOM      6  C   UNL     1       0.535   9.747  19.743  0.00  0.00    +0.000 A 
ATOM      7  C   UNL     1       1.357   9.219  18.751  0.00  0.00    +0.000 A 
ATOM      8  C   UNL     1       2.049   8.020  18.981  0.00  0.00    +0.000 A 
ATOM      9  C   UNL     1       2.993   7.508  17.971  0.00  0.00    +0.000 C 
ATOM     10  O   UNL     1       3.167   8.158  16.942  0.00  0.00    +0.000 OA
ATOM     11  N   UNL     1       3.681   6.335  18.301  0.00  0.00    +0.000 N 
ATOM     12  H   UNL     1       2.332   5.651  21.232  0.00  0.00    +0.000 HD
ENDROOT
BRANCH  11  13
ATOM     13  C   UNL     1       4.703   5.939  17.407  0.00  0.00    +0.000 A 
ATOM     14  C   UNL     1       5.947   6.564  17.507  0.00  0.00    +0.000 A 
ATOM     15  C   UNL     1       6.959   6.246  16.603  0.00  0.00    +0.000 A 
ATOM     16  C   UNL     1       6.738   5.309  15.592  0.00  0.00    +0.000 A 
ATOM     17  C   UNL     1       5.483   4.706  15.473  0.00  0.00    +0.000 A 
ATOM     18  C   UNL     1       4.459   5.029  16.375  0.00  0.00    +0.000 A 
BRANCH  16  19
ATOM     19  O   UNL     1       7.805   5.106  14.760  0.00  0.00    +0.000 OA
ATOM     20  C   UNL     1       7.504   4.932  13.382  0.00  0.00    +0.000 C 
ENDBRANCH  16  19
ENDBRANCH  11  13
BRANCH   1  22
ATOM     21  C   UNL     1       4.350   3.007  19.418  0.00  0.00    +0.000 C 
ATOM     22  C   UNL     1       4.253   4.442  19.933  0.00  0.00    +0.000 C 
ENDBRANCH   1  22
BRANCH   1  23
ATOM     23  C   UNL     1       1.946   4.572  18.758  0.00  0.00    +0.000 C 
ATOM     24  C   UNL     1       1.045   3.926  19.814  0.00  0.00    +0.000 C 
ENDBRANCH   1  23
TORSDOF 4
ENDMDL
MODEL 2
REMARK VINA RESULT:      -7.5      0.164      1.019
REMARK  Name = 
REMARK  7 active torsions:
REMARK  status: ('A' for Active; 'I' for Inactive)
REMARK    1  A    between atoms: C_1  and  C_2
REMARK    2  A    between atoms: C_2  and  C_3
REMARK    3  A    between atoms: C_3  and  C_4
REMARK    4  A    between atoms: C_4  and  C_5
REMARK    5  A    between atoms: N_15  and  C_16
REMARK    6  A    between atoms: C_19  and  O_20
REMARK    7  A    between atoms: O_20  and  C_21
REMARK                            x       y       z     vdW  Elec       q    Type
REMARK                         _______ _______ _______ _____ _____    ______ ____
ROOT
ATOM      1  C   UNL     1       3.156   5.464  19.317  0.00  0.00    +0.000 C 
ATOM      2  N   UNL     1       2.657   6.235  20.478  0.00  0.00    +0.000 N 
ATOM      3  C   UNL     1       1.871   7.360  20.229  0.00  0.00    +0.000 A 
ATOM      4  C   UNL     1       1.038   7.877  21.229  0.00  0.00    +0.000 A 
ATOM      5  C   UNL     1       0.317   9.059  21.026  0.00  0.00    +0.000 A 
ATOM      6  C   UNL     1       0.443   9.761  19.830  0.00  0.00    +0.000 A 
ATOM      7  C   UNL     1       1.292   9.278  18.837  0.00  0.00    +0.000 A 
ATOM      8  C   UNL     1       2.002   8.086  19.043  0.00  0.00    +0.000 A 
ATOM      9  C   UNL     1       2.973   7.622  18.035  0.00  0.00    +0.000 C 
ATOM     10  O   UNL     1       3.152   8.307  17.029  0.00  0.00    +0.000 OA
ATOM     11  N   UNL     1       3.677   6.452  18.341  0.00  0.00    +0.000 N 
ATOM     12  H   UNL     1       2.291   5.655  21.226  0.00  0.00    +0.000 HD
ENDROOT
BRANCH  11  13
ATOM     13  C   UNL     1       4.721   6.102  17.454  0.00  0.00    +0.000 A 
ATOM     14  C   UNL     1       4.441   5.200  16.426  0.00  0.00    +0.000 A 
ATOM     15  C   UNL     1       5.459   4.782  15.571  0.00  0.00    +0.000 A 
ATOM     16  C   UNL     1       6.762   5.255  15.736  0.00  0.00    +0.000 A 
ATOM     17  C   UNL     1       7.049   6.134  16.784  0.00  0.00    +0.000 A 
ATOM     18  C   UNL     1       6.029   6.550  17.652  0.00  0.00    +0.000 A 
BRANCH  16  19
ATOM     19  O   UNL     1       7.669   4.750  14.846  0.00  0.00    +0.000 OA
ATOM     20  C   UNL     1       7.265   4.722  13.483  0.00  0.00    +0.000 C 
ENDBRANCH  16  19
ENDBRANCH  11  13
BRANCH   1  22
ATOM     21  C   UNL     1       4.378   3.099  19.380  0.00  0.00    +0.000 C 
ATOM     22  C   UNL     1       4.256   4.521  19.925  0.00  0.00    +0.000 C 
ENDBRANCH   1  22
BRANCH   1  23
ATOM     23  C   UNL     1       1.967   4.644  18.713  0.00  0.00    +0.000 C 
ATOM     24  C   UNL     1       1.078   3.927  19.732  0.00  0.00    +0.000 C 
ENDBRANCH   1  23
TORSDOF 4
ENDMDL
MODEL 3
REMARK VINA RESULT:      -6.9      0.981      1.073
REMARK  Name = 
REMARK  7 active torsions:
REMARK  status: ('A' for Active; 'I' for Inactive)
REMARK    1  A    between atoms: C_1  and  C_2
REMARK    2  A    between atoms: C_2  and  C_3
REMARK    3  A    between atoms: C_3  and  C_4
REMARK    4  A    between atoms: C_4  and  C_5
REMARK    5  A    between atoms: N_15  and  C_16
REMARK    6  A    between atoms: C_19  and  O_20
REMARK    7  A    between atoms: O_20  and  C_21
REMARK                            x       y       z     vdW  Elec       q    Type
REMARK                         _______ _______ _______ _____ _____    ______ ____
ROOT
ATOM      1  C   UNL     1       3.299   4.437  18.559  0.00  0.00    +0.000 C 
ATOM      2  N   UNL     1       2.870   4.912  19.894  0.00  0.00    +0.000 N 
ATOM      3  C   UNL     1       2.225   6.147  19.973  0.00  0.00    +0.000 A 
ATOM      4  C   UNL     1       1.438   6.464  21.088  0.00  0.00    +0.000 A 
ATOM      5  C   UNL     1       0.864   7.732  21.227  0.00  0.00    +0.000 A 
ATOM      6  C   UNL     1       1.095   8.715  20.269  0.00  0.00    +0.000 A 
ATOM      7  C   UNL     1       1.902   8.428  19.171  0.00  0.00    +0.000 A 
ATOM      8  C   UNL     1       2.464   7.150  19.032  0.00  0.00    +0.000 A 
ATOM      9  C   UNL     1       3.395   6.870  17.923  0.00  0.00    +0.000 C 
ATOM     10  O   UNL     1       3.673   7.779  17.142  0.00  0.00    +0.000 OA
ATOM     11  N   UNL     1       3.951   5.587  17.886  0.00  0.00    +0.000 N 
ATOM     12  H   UNL     1       2.423   4.196  20.457  0.00  0.00    +0.000 HD
ENDROOT
BRANCH  11  13
ATOM     13  C   UNL     1       4.966   5.374  16.924  0.00  0.00    +0.000 A 
ATOM     14  C   UNL     1       6.236   5.895  17.177  0.00  0.00    +0.000 A 
ATOM     15  C   UNL     1       7.245   5.760  16.225  0.00  0.00    +0.000 A 
ATOM     16  C   UNL     1       6.994   5.113  15.013  0.00  0.00    +0.000 A 
ATOM     17  C   UNL     1       5.714   4.619  14.747  0.00  0.00    +0.000 A 
ATOM     18  C   UNL     1       4.694   4.760  15.699  0.00  0.00    +0.000 A 
BRANCH  16  19
ATOM     19  O   UNL     1       8.061   5.070  14.159  0.00  0.00    +0.000 OA
ATOM     20  C   UNL     1       7.767   5.215  12.776  0.00  0.00    +0.000 C 
ENDBRANCH  16  19
ENDBRANCH  11  13
BRANCH   1  22
ATOM     21  C   UNL     1       4.146   2.536  20.219  0.00  0.00    +0.000 C 
ATOM     22  C   UNL     1       4.269   3.241  18.870  0.00  0.00    +0.000 C 
ENDBRANCH   1  22
BRANCH   1  23
ATOM     23  C   UNL     1       2.035   3.961  17.768  0.00  0.00    +0.000 C 
ATOM     24  C   UNL     1       1.115   2.994  18.518  0.00  0.00    +0.000 C 
ENDBRANCH   1  23
TORSDOF 4
ENDMDL
MODEL 4
REMARK VINA RESULT:      -6.9      1.478      6.189
REMARK  Name = 
REMARK  7 active torsions:
REMARK  status: ('A' for Active; 'I' for Inactive)
REMARK    1  A    between atoms: C_1  and  C_2
REMARK    2  A    between atoms: C_2  and  C_3
REMARK    3  A    between atoms: C_3  and  C_4
REMARK    4  A    between atoms: C_4  and  C_5
REMARK    5  A    between atoms: N_15  and  C_16
REMARK    6  A    between atoms: C_19  and  O_20
REMARK    7  A    between atoms: O_20  and  C_21
REMARK                            x       y       z     vdW  Elec       q    Type
REMARK                         _______ _______ _______ _____ _____    ______ ____
ROOT
ATOM      1  C   UNL     1       2.984   4.709  18.319  0.00  0.00    +0.000 C 
ATOM      2  N   UNL     1       3.411   3.968  17.111  0.00  0.00    +0.000 N 
ATOM      3  C   UNL     1       4.645   4.293  16.546  0.00  0.00    +0.000 A 
ATOM      4  C   UNL     1       5.293   3.390  15.693  0.00  0.00    +0.000 A 
ATOM      5  C   UNL     1       6.482   3.739  15.044  0.00  0.00    +0.000 A 
ATOM      6  C   UNL     1       7.026   5.010  15.212  0.00  0.00    +0.000 A 
ATOM      7  C   UNL     1       6.377   5.932  16.030  0.00  0.00    +0.000 A 
ATOM      8  C   UNL     1       5.192   5.571  16.687  0.00  0.00    +0.000 A 
ATOM      9  C   UNL     1       4.452   6.572  17.478  0.00  0.00    +0.000 C 
ATOM     10  O   UNL     1       4.888   7.720  17.532  0.00  0.00    +0.000 OA
ATOM     11  N   UNL     1       3.252   6.143  18.058  0.00  0.00    +0.000 N 
ATOM     12  H   UNL     1       3.255   2.968  17.169  0.00  0.00    +0.000 HD
ENDROOT
BRANCH  11  13
ATOM     13  C   UNL     1       2.465   7.145  18.672  0.00  0.00    +0.000 A 
ATOM     14  C   UNL     1       1.980   8.185  17.878  0.00  0.00    +0.000 A 
ATOM     15  C   UNL     1       1.254   9.223  18.458  0.00  0.00    +0.000 A 
ATOM     16  C   UNL     1       1.010   9.236  19.833  0.00  0.00    +0.000 A 
ATOM     17  C   UNL     1       1.522   8.210  20.633  0.00  0.00    +0.000 A 
ATOM     18  C   UNL     1       2.260   7.168  20.054  0.00  0.00    +0.000 A 
BRANCH  16  19
ATOM     19  O   UNL     1       0.307  10.321  20.277  0.00  0.00    +0.000 OA
ATOM     20  C   UNL     1      -0.852  10.669  19.531  0.00  0.00    +0.000 C 
ENDBRANCH  16  19
ENDBRANCH  11  13
BRANCH   1  22
ATOM     21  C   UNL     1       0.966   3.800  19.800  0.00  0.00    +0.000 C 
ATOM     22  C   UNL     1       1.459   4.357  18.466  0.00  0.00    +0.000 C 
ENDBRANCH   1  22
BRANCH   1  23
ATOM     23  C   UNL     1       3.812   4.191  19.542  0.00  0.00    +0.000 C 
ATOM     24  C   UNL     1       4.257   2.728  19.463  0.00  0.00    +0.000 C 
ENDBRANCH   1  23
TORSDOF 4
ENDMDL
MODEL 5
REMARK VINA RESULT:      -6.7      1.487      6.238
REMARK  Name = 
REMARK  7 active torsions:
REMARK  status: ('A' for Active; 'I' for Inactive)
REMARK    1  A    between atoms: C_1  and  C_2
REMARK    2  A    between atoms: C_2  and  C_3
REMARK    3  A    between atoms: C_3  and  C_4
REMARK    4  A    between atoms: C_4  and  C_5
REMARK    5  A    between atoms: N_15  and  C_16
REMARK    6  A    between atoms: C_19  and  O_20
REMARK    7  A    between atoms: O_20  and  C_21
REMARK                            x       y       z     vdW  Elec       q    Type
REMARK                         _______ _______ _______ _____ _____    ______ ____
ROOT
ATOM      1  C   UNL     1       3.009   4.798  18.339  0.00  0.00    +0.000 C 
ATOM      2  N   UNL     1       3.405   4.032  17.136  0.00  0.00    +0.000 N 
ATOM      3  C   UNL     1       4.641   4.320  16.554  0.00  0.00    +0.000 A 
ATOM      4  C   UNL     1       5.257   3.390  15.706  0.00  0.00    +0.000 A 
ATOM      5  C   UNL     1       6.448   3.702  15.041  0.00  0.00    +0.000 A 
ATOM      6  C   UNL     1       7.024   4.961  15.186  0.00  0.00    +0.000 A 
ATOM      7  C   UNL     1       6.406   5.908  15.999  0.00  0.00    +0.000 A 
ATOM      8  C   UNL     1       5.220   5.585  16.674  0.00  0.00    +0.000 A 
ATOM      9  C   UNL     1       4.513   6.614  17.458  0.00  0.00    +0.000 C 
ATOM     10  O   UNL     1       4.977   7.752  17.493  0.00  0.00    +0.000 OA
ATOM     11  N   UNL     1       3.310   6.222  18.056  0.00  0.00    +0.000 N 
ATOM     12  H   UNL     1       3.225   3.036  17.208  0.00  0.00    +0.000 HD
ENDROOT
BRANCH  11  13
ATOM     13  C   UNL     1       2.553   7.250  18.666  0.00  0.00    +0.000 A 
ATOM     14  C   UNL     1       2.305   7.164  20.037  0.00  0.00    +0.000 A 
ATOM     15  C   UNL     1       1.511   8.123  20.662  0.00  0.00    +0.000 A 
ATOM     16  C   UNL     1       0.953   9.171  19.926  0.00  0.00    +0.000 A 
ATOM     17  C   UNL     1       1.176   9.240  18.548  0.00  0.00    +0.000 A 
ATOM     18  C   UNL     1       1.968   8.272  17.914  0.00  0.00    +0.000 A 
BRANCH  16  19
ATOM     19  O   UNL     1       0.177  10.029  20.655  0.00  0.00    +0.000 OA
ATOM     20  C   UNL     1       0.055   9.745  22.042  0.00  0.00    +0.000 C 
ENDBRANCH  16  19
ENDBRANCH  11  13
BRANCH   1  22
ATOM     21  C   UNL     1       1.005   3.831  19.802  0.00  0.00    +0.000 C 
ATOM     22  C   UNL     1       1.478   4.486  18.506  0.00  0.00    +0.000 C 
ENDBRANCH   1  22
BRANCH   1  23
ATOM     23  C   UNL     1       3.837   4.276  19.559  0.00  0.00    +0.000 C 
ATOM     24  C   UNL     1       4.309   2.823  19.461  0.00  0.00    +0.000 C 
ENDBRANCH   1  23
TORSDOF 4
ENDMDL
MODEL 6
REMARK VINA RESULT:      -6.6      1.125      1.595
REMARK  Name = 
REMARK  7 active torsions:
REMARK  status: ('A' for Active; 'I' for Inactive)
REMARK    1  A    between atoms: C_1  and  C_2
REMARK    2  A    between atoms: C_2  and  C_3
REMARK    3  A    between atoms: C_3  and  C_4
REMARK    4  A    between atoms: C_4  and  C_5
REMARK    5  A    between atoms: N_15  and  C_16
REMARK    6  A    between atoms: C_19  and  O_20
REMARK    7  A    between atoms: O_20  and  C_21
REMARK                            x       y       z     vdW  Elec       q    Type
REMARK                         _______ _______ _______ _____ _____    ______ ____
ROOT
ATOM      1  C   UNL     1       3.326   4.378  18.436  0.00  0.00    +0.000 C 
ATOM      2  N   UNL     1       2.975   4.858  19.791  0.00  0.00    +0.000 N 
ATOM      3  C   UNL     1       2.344   6.097  19.904  0.00  0.00    +0.000 A 
ATOM      4  C   UNL     1       1.622   6.421  21.060  0.00  0.00    +0.000 A 
ATOM      5  C   UNL     1       1.065   7.693  21.228  0.00  0.00    +0.000 A 
ATOM      6  C   UNL     1       1.249   8.673  20.257  0.00  0.00    +0.000 A 
ATOM      7  C   UNL     1       1.992   8.379  19.116  0.00  0.00    +0.000 A 
ATOM      8  C   UNL     1       2.537   7.097  18.948  0.00  0.00    +0.000 A 
ATOM      9  C   UNL     1       3.402   6.809  17.790  0.00  0.00    +0.000 C 
ATOM     10  O   UNL     1       3.643   7.715  16.993  0.00  0.00    +0.000 OA
ATOM     11  N   UNL     1       3.948   5.522  17.726  0.00  0.00    +0.000 N 
ATOM     12  H   UNL     1       2.556   4.146  20.380  0.00  0.00    +0.000 HD
ENDROOT
BRANCH  11  13
ATOM     13  C   UNL     1       4.906   5.300  16.709  0.00  0.00    +0.000 A 
ATOM     14  C   UNL     1       4.503   4.620  15.558  0.00  0.00    +0.000 A 
ATOM     15  C   UNL     1       5.433   4.327  14.562  0.00  0.00    +0.000 A 
ATOM     16  C   UNL     1       6.770   4.704  14.708  0.00  0.00    +0.000 A 
ATOM     17  C   UNL     1       7.179   5.358  15.873  0.00  0.00    +0.000 A 
ATOM     18  C   UNL     1       6.248   5.647  16.881  0.00  0.00    +0.000 A 
BRANCH  16  19
ATOM     19  O   UNL     1       7.581   4.337  13.670  0.00  0.00    +0.000 OA
ATOM     20  C   UNL     1       6.930   3.950  12.467  0.00  0.00    +0.000 C 
ENDBRANCH  16  19
ENDBRANCH  11  13
BRANCH   1  22
ATOM     21  C   UNL     1       4.292   2.510  20.069  0.00  0.00    +0.000 C 
ATOM     22  C   UNL     1       4.304   3.175  18.695  0.00  0.00    +0.000 C 
ENDBRANCH   1  22
BRANCH   1  23
ATOM     23  C   UNL     1       2.018   3.908  17.717  0.00  0.00    +0.000 C 
ATOM     24  C   UNL     1       1.147   2.929  18.509  0.00  0.00    +0.000 C 
ENDBRANCH   1  23
TORSDOF 4
ENDMDL
MODEL 7
REMARK VINA RESULT:      -6.5      2.493      4.254
REMARK  Name = 
REMARK  7 active torsions:
REMARK  status: ('A' for Active; 'I' for Inactive)
REMARK    1  A    between atoms: C_1  and  C_2
REMARK    2  A    between atoms: C_2  and  C_3
REMARK    3  A    between atoms: C_3  and  C_4
REMARK    4  A    between atoms: C_4  and  C_5
REMARK    5  A    between atoms: N_15  and  C_16
REMARK    6  A    between atoms: C_19  and  O_20
REMARK    7  A    between atoms: O_20  and  C_21
REMARK                            x       y       z     vdW  Elec       q    Type
REMARK                         _______ _______ _______ _____ _____    ______ ____
ROOT
ATOM      1  C   UNL     1       4.840   5.641  18.408  0.00  0.00    +0.000 C 
ATOM      2  N   UNL     1       3.613   5.782  19.223  0.00  0.00    +0.000 N 
ATOM      3  C   UNL     1       3.069   4.630  19.793  0.00  0.00    +0.000 A 
ATOM      4  C   UNL     1       2.194   4.725  20.883  0.00  0.00    +0.000 A 
ATOM      5  C   UNL     1       1.567   3.588  21.403  0.00  0.00    +0.000 A 
ATOM      6  C   UNL     1       1.779   2.341  20.822  0.00  0.00    +0.000 A 
ATOM      7  C   UNL     1       2.621   2.233  19.717  0.00  0.00    +0.000 A 
ATOM      8  C   UNL     1       3.256   3.376  19.208  0.00  0.00    +0.000 A 
ATOM      9  C   UNL     1       4.071   3.283  17.983  0.00  0.00    +0.000 C 
ATOM     10  O   UNL     1       4.166   2.194  17.418  0.00  0.00    +0.000 OA
ATOM     11  N   UNL     1       4.627   4.478  17.513  0.00  0.00    +0.000 N 
ATOM     12  H   UNL     1       3.637   6.567  19.866  0.00  0.00    +0.000 HD
ENDROOT
BRANCH  11  13
ATOM     13  C   UNL     1       5.266   4.416  16.253  0.00  0.00    +0.000 A 
ATOM     14  C   UNL     1       4.474   4.230  15.118  0.00  0.00    +0.000 A 
ATOM     15  C   UNL     1       5.072   4.100  13.866  0.00  0.00    +0.000 A 
ATOM     16  C   UNL     1       6.462   4.148  13.736  0.00  0.00    +0.000 A 
ATOM     17  C   UNL     1       7.256   4.303  14.875  0.00  0.00    +0.000 A 
ATOM     18  C   UNL     1       6.658   4.425  16.138  0.00  0.00    +0.000 A 
BRANCH  16  19
ATOM     19  O   UNL     1       6.920   3.985  12.458  0.00  0.00    +0.000 OA
ATOM     20  C   UNL     1       6.415   2.863  11.746  0.00  0.00    +0.000 C 
ENDBRANCH  16  19
ENDBRANCH  11  13
BRANCH   1  22
ATOM     21  C   UNL     1       3.689   7.814  17.386  0.00  0.00    +0.000 C 
ATOM     22  C   UNL     1       4.963   7.016  17.656  0.00  0.00    +0.000 C 
ENDBRANCH   1  22
BRANCH   1  23
ATOM     23  C   UNL     1       6.053   5.402  19.368  0.00  0.00    +0.000 C 
ATOM     24  C   UNL     1       7.367   6.066  18.946  0.00  0.00    +0.000 C 
ENDBRANCH   1  23
TORSDOF 4
ENDMDL
MODEL 8
REMARK VINA RESULT:      -6.5      2.507      4.132
REMARK  Name = 
REMARK  7 active torsions:
REMARK  status: ('A' for Active; 'I' for Inactive)
REMARK    1  A    between atoms: C_1  and  C_2
REMARK    2  A    between atoms: C_2  and  C_3
REMARK    3  A    between atoms: C_3  and  C_4
REMARK    4  A    between atoms: C_4  and  C_5
REMARK    5  A    between atoms: N_15  and  C_16
REMARK    6  A    between atoms: C_19  and  O_20
REMARK    7  A    between atoms: O_20  and  C_21
REMARK                            x       y       z     vdW  Elec       q    Type
REMARK                         _______ _______ _______ _____ _____    ______ ____
ROOT
ATOM      1  C   UNL     1       4.869   5.560  18.459  0.00  0.00    +0.000 C 
ATOM      2  N   UNL     1       3.660   5.736  19.295  0.00  0.00    +0.000 N 
ATOM      3  C   UNL     1       3.098   4.600  19.880  0.00  0.00    +0.000 A 
ATOM      4  C   UNL     1       2.245   4.722  20.985  0.00  0.00    +0.000 A 
ATOM      5  C   UNL     1       1.599   3.604  21.522  0.00  0.00    +0.000 A 
ATOM      6  C   UNL     1       1.770   2.349  20.943  0.00  0.00    +0.000 A 
ATOM      7  C   UNL     1       2.589   2.215  19.825  0.00  0.00    +0.000 A 
ATOM      8  C   UNL     1       3.243   3.339  19.298  0.00  0.00    +0.000 A 
ATOM      9  C   UNL     1       4.034   3.220  18.060  0.00  0.00    +0.000 C 
ATOM     10  O   UNL     1       4.092   2.127  17.499  0.00  0.00    +0.000 OA
ATOM     11  N   UNL     1       4.611   4.399  17.574  0.00  0.00    +0.000 N 
ATOM     12  H   UNL     1       3.715   6.523  19.933  0.00  0.00    +0.000 HD
ENDROOT
BRANCH  11  13
ATOM     13  C   UNL     1       5.226   4.314  16.303  0.00  0.00    +0.000 A 
ATOM     14  C   UNL     1       6.620   4.366  16.239  0.00  0.00    +0.000 A 
ATOM     15  C   UNL     1       7.260   4.349  15.001  0.00  0.00    +0.000 A 
ATOM     16  C   UNL     1       6.518   4.288  13.820  0.00  0.00    +0.000 A 
ATOM     17  C   UNL     1       5.122   4.268  13.883  0.00  0.00    +0.000 A 
ATOM     18  C   UNL     1       4.473   4.293  15.127  0.00  0.00    +0.000 A 
BRANCH  16  19
ATOM     19  O   UNL     1       7.266   4.301  12.675  0.00  0.00    +0.000 OA
ATOM     20  C   UNL     1       6.961   3.301  11.712  0.00  0.00    +0.000 C 
ENDBRANCH  16  19
ENDBRANCH  11  13
BRANCH   1  22
ATOM     21  C   UNL     1       3.747   7.728  17.394  0.00  0.00    +0.000 C 
ATOM     22  C   UNL     1       5.012   6.928  17.698  0.00  0.00    +0.000 C 
ENDBRANCH   1  22
BRANCH   1  23
ATOM     23  C   UNL     1       6.092   5.296  19.398  0.00  0.00    +0.000 C 
ATOM     24  C   UNL     1       7.400   5.974  18.982  0.00  0.00    +0.000 C 
ENDBRANCH   1  23
TORSDOF 4
ENDMDL
MODEL 9
REMARK VINA RESULT:      -6.4      3.149      6.892
REMARK  Name = 
REMARK  7 active torsions:
REMARK  status: ('A' for Active; 'I' for Inactive)
REMARK    1  A    between atoms: C_1  and  C_2
REMARK    2  A    between atoms: C_2  and  C_3
REMARK    3  A    between atoms: C_3  and  C_4
REMARK    4  A    between atoms: C_4  and  C_5
REMARK    5  A    between atoms: N_15  and  C_16
REMARK    6  A    between atoms: C_19  and  O_20
REMARK    7  A    between atoms: O_20  and  C_21
REMARK                            x       y       z     vdW  Elec       q    Type
REMARK                         _______ _______ _______ _____ _____    ______ ____
ROOT
ATOM      1  C   UNL     1       6.735   5.166  17.330  0.00  0.00    +0.000 C 
ATOM      2  N   UNL     1       7.568   4.753  16.178  0.00  0.00    +0.000 N 
ATOM      3  C   UNL     1       6.941   4.591  14.942  0.00  0.00    +0.000 A 
ATOM      4  C   UNL     1       7.691   4.619  13.759  0.00  0.00    +0.000 A 
ATOM      5  C   UNL     1       7.092   4.362  12.521  0.00  0.00    +0.000 A 
ATOM      6  C   UNL     1       5.739   4.041  12.449  0.00  0.00    +0.000 A 
ATOM      7  C   UNL     1       4.986   3.977  13.618  0.00  0.00    +0.000 A 
ATOM      8  C   UNL     1       5.590   4.248  14.855  0.00  0.00    +0.000 A 
ATOM      9  C   UNL     1       4.821   4.088  16.103  0.00  0.00    +0.000 C 
ATOM     10  O   UNL     1       3.655   3.702  16.032  0.00  0.00    +0.000 OA
ATOM     11  N   UNL     1       5.513   4.327  17.295  0.00  0.00    +0.000 N 
ATOM     12  H   UNL     1       8.449   5.252  16.111  0.00  0.00    +0.000 HD
ENDROOT
BRANCH  11  13
ATOM     13  C   UNL     1       4.823   4.013  18.490  0.00  0.00    +0.000 A 
ATOM     14  C   UNL     1       4.918   2.711  18.985  0.00  0.00    +0.000 A 
ATOM     15  C   UNL     1       4.203   2.347  20.124  0.00  0.00    +0.000 A 
ATOM     16  C   UNL     1       3.385   3.274  20.774  0.00  0.00    +0.000 A 
ATOM     17  C   UNL     1       3.266   4.568  20.261  0.00  0.00    +0.000 A 
ATOM     18  C   UNL     1       3.978   4.936  19.110  0.00  0.00    +0.000 A 
BRANCH  16  19
ATOM     19  O   UNL     1       2.722   2.782  21.864  0.00  0.00    +0.000 OA
ATOM     20  C   UNL     1       1.308   2.682  21.750  0.00  0.00    +0.000 C 
ENDBRANCH  16  19
ENDBRANCH  11  13
BRANCH   1  22
ATOM     21  C   UNL     1       7.489   5.812  19.801  0.00  0.00    +0.000 C 
ATOM     22  C   UNL     1       7.654   4.910  18.579  0.00  0.00    +0.000 C 
ENDBRANCH   1  22
BRANCH   1  23
ATOM     23  C   UNL     1       6.386   6.684  17.176  0.00  0.00    +0.000 C 
ATOM     24  C   UNL     1       7.577   7.643  17.236  0.00  0.00    +0.000 C 
ENDBRANCH   1  23
TORSDOF 4
ENDMDL
