MODEL 1
REMARK VINA RESULT:      -8.8      0.000      0.000
REMARK  Name = 
REMARK  3 active torsions:
REMARK  status: ('A' for Active; 'I' for Inactive)
REMARK    1  A    between atoms: C_4  and  N_5
REMARK    2  A    between atoms: N_9  and  C_10
REMARK    3  A    between atoms: C_13  and  C_14
REMARK                            x       y       z     vdW  Elec       q    Type
REMARK                         _______ _______ _______ _____ _____    ______ ____
ROOT
ATOM      1  N   UNL     1      -2.862  14.398  21.009  0.00  0.00    +0.000 N 
ATOM      2  C   UNL     1      -2.402  13.208  20.430  0.00  0.00    +0.000 A 
ATOM      3  N   UNL     1      -1.201  12.775  20.798  0.00  0.00    +0.000 NA
ATOM      4  C   UNL     1      -0.822  11.628  20.243  0.00  0.00    +0.000 A 
ATOM      5  N   UNL     1       0.444  11.142  20.590  0.00  0.00    +0.000 N 
ATOM      6  N   UNL     1      -1.556  10.958  19.362  0.00  0.00    +0.000 NA
ATOM      7  C   UNL     1      -2.724  11.470  19.016  0.00  0.00    +0.000 A 
ATOM      8  N   UNL     1      -3.523  10.780  18.135  0.00  0.00    +0.000 N 
ATOM      9  C   UNL     1      -3.034   9.576  17.461  0.00  0.00    +0.000 C 
ATOM     10  C   UNL     1      -2.830   9.837  15.961  0.00  0.00    +0.000 C 
ATOM     11  O   UNL     1      -4.012  10.388  15.355  0.00  0.00    +0.000 OA
ATOM     12  C   UNL     1      -4.355  11.637  15.980  0.00  0.00    +0.000 C 
ATOM     13  C   UNL     1      -4.646  11.455  17.479  0.00  0.00    +0.000 C 
ATOM     14  N   UNL     1      -3.170  12.600  19.534  0.00  0.00    +0.000 NA
ATOM     15  H   UNL     1      -2.237  14.669  21.757  0.00  0.00    +0.000 HD
ATOM     16  H   UNL     1       0.984  11.827  21.095  0.00  0.00    +0.000 HD
ENDROOT
BRANCH   1  20
ATOM     17  C   UNL     1      -6.888  15.502  21.653  0.00  0.00    +0.000 A 
ATOM     18  C   UNL     1      -6.324  14.484  22.418  0.00  0.00    +0.000 A 
ATOM     19  C   UNL     1      -4.992  14.115  22.215  0.00  0.00    +0.000 A 
ATOM     20  C   UNL     1      -4.208  14.747  21.241  0.00  0.00    +0.000 A 
ATOM     21  C   UNL     1      -4.776  15.800  20.511  0.00  0.00    +0.000 A 
ATOM     22  C   UNL     1      -6.113  16.163  20.703  0.00  0.00    +0.000 A 
ENDBRANCH   1  20
BRANCH   5  23
ATOM     23  C   UNL     1       1.058   9.926  20.262  0.00  0.00    +0.000 A 
ATOM     24  C   UNL     1       1.511   9.697  18.957  0.00  0.00    +0.000 A 
ATOM     25  C   UNL     1       2.005   8.441  18.571  0.00  0.00    +0.000 A 
ATOM     26  C   UNL     1       2.060   7.376  19.481  0.00  0.00    +0.000 A 
ATOM     27  C   UNL     1       1.637   7.611  20.792  0.00  0.00    +0.000 A 
ATOM     28  C   UNL     1       1.139   8.863  21.171  0.00  0.00    +0.000 A 
BRANCH  26  29
ATOM     29  C   UNL     1       2.482   6.045  19.042  0.00  0.00    +0.000 A 
ATOM     30  N   UNL     1       2.099   5.357  17.979  0.00  0.00    +0.000 NA
ATOM     31  C   UNL     1       2.689   4.130  18.157  0.00  0.00    +0.000 A 
ATOM     32  C   UNL     1       2.620   2.953  17.399  0.00  0.00    +0.000 A 
ATOM     33  C   UNL     1       3.310   1.822  17.865  0.00  0.00    +0.000 A 
ATOM     34  C   UNL     1       4.064   1.869  19.045  0.00  0.00    +0.000 A 
ATOM     35  C   UNL     1       4.157   3.043  19.804  0.00  0.00    +0.000 A 
ATOM     36  C   UNL     1       3.444   4.132  19.318  0.00  0.00    +0.000 A 
ATOM     37  O   UNL     1       3.330   5.366  19.884  0.00  0.00    +0.000 OA
ENDBRANCH  26  29
ENDBRANCH   5  23
TORSDOF 3
ENDMDL
MODEL 2
REMARK VINA RESULT:      -8.7      0.681      1.067
REMARK  Name = 
REMARK  3 active torsions:
REMARK  status: ('A' for Active; 'I' for Inactive)
REMARK    1  A    between atoms: C_4  and  N_5
REMARK    2  A    between atoms: N_9  and  C_10
REMARK    3  A    between atoms: C_13  and  C_14
REMARK                            x       y       z     vdW  Elec       q    Type
REMARK                         _______ _______ _______ _____ _____    ______ ____
ROOT
ATOM      1  N   UNL     1      -3.219  14.429  21.031  0.00  0.00    +0.000 N 
ATOM      2  C   UNL     1      -2.693  13.258  20.468  0.00  0.00    +0.000 A 
ATOM      3  N   UNL     1      -1.495  12.864  20.887  0.00  0.00    +0.000 NA
ATOM      4  C   UNL     1      -1.054  11.733  20.346  0.00  0.00    +0.000 A 
ATOM      5  N   UNL     1       0.211  11.288  20.746  0.00  0.00    +0.000 N 
ATOM      6  N   UNL     1      -1.726  11.043  19.431  0.00  0.00    +0.000 NA
ATOM      7  C   UNL     1      -2.894  11.516  19.035  0.00  0.00    +0.000 A 
ATOM      8  N   UNL     1      -3.629  10.805  18.118  0.00  0.00    +0.000 N 
ATOM      9  C   UNL     1      -3.071   9.621  17.461  0.00  0.00    +0.000 C 
ATOM     10  C   UNL     1      -2.810   9.896  15.973  0.00  0.00    +0.000 C 
ATOM     11  O   UNL     1      -3.982  10.410  15.317  0.00  0.00    +0.000 OA
ATOM     12  C   UNL     1      -4.395  11.643  15.931  0.00  0.00    +0.000 C 
ATOM     13  C   UNL     1      -4.745  11.444  17.415  0.00  0.00    +0.000 C 
ATOM     14  N   UNL     1      -3.400  12.628  19.537  0.00  0.00    +0.000 NA
ATOM     15  H   UNL     1      -2.637  14.717  21.805  0.00  0.00    +0.000 HD
ATOM     16  H   UNL     1       0.705  11.989  21.277  0.00  0.00    +0.000 HD
ENDROOT
BRANCH   1  20
ATOM     17  C   UNL     1      -7.316  15.282  21.604  0.00  0.00    +0.000 A 
ATOM     18  C   UNL     1      -6.620  15.915  20.577  0.00  0.00    +0.000 A 
ATOM     19  C   UNL     1      -5.265  15.636  20.378  0.00  0.00    +0.000 A 
ATOM     20  C   UNL     1      -4.584  14.731  21.204  0.00  0.00    +0.000 A 
ATOM     21  C   UNL     1      -5.309  14.070  22.203  0.00  0.00    +0.000 A 
ATOM     22  C   UNL     1      -6.662  14.356  22.414  0.00  0.00    +0.000 A 
ENDBRANCH   1  20
BRANCH   5  23
ATOM     23  C   UNL     1       0.880  10.095  20.442  0.00  0.00    +0.000 A 
ATOM     24  C   UNL     1       1.309   9.845  19.132  0.00  0.00    +0.000 A 
ATOM     25  C   UNL     1       1.858   8.603  18.774  0.00  0.00    +0.000 A 
ATOM     26  C   UNL     1       1.995   7.575  19.718  0.00  0.00    +0.000 A 
ATOM     27  C   UNL     1       1.596   7.834  21.032  0.00  0.00    +0.000 A 
ATOM     28  C   UNL     1       1.042   9.070  21.383  0.00  0.00    +0.000 A 
BRANCH  26  29
ATOM     29  C   UNL     1       2.475   6.254  19.312  0.00  0.00    +0.000 A 
ATOM     30  N   UNL     1       3.322   5.933  18.348  0.00  0.00    +0.000 NA
ATOM     31  C   UNL     1       3.278   4.562  18.318  0.00  0.00    +0.000 A 
ATOM     32  C   UNL     1       3.910   3.635  17.479  0.00  0.00    +0.000 A 
ATOM     33  C   UNL     1       3.630   2.271  17.666  0.00  0.00    +0.000 A 
ATOM     34  C   UNL     1       2.757   1.843  18.674  0.00  0.00    +0.000 A 
ATOM     35  C   UNL     1       2.130   2.756  19.532  0.00  0.00    +0.000 A 
ATOM     36  C   UNL     1       2.420   4.095  19.301  0.00  0.00    +0.000 A 
ATOM     37  O   UNL     1       1.913   5.177  19.955  0.00  0.00    +0.000 OA
ENDBRANCH  26  29
ENDBRANCH   5  23
TORSDOF 3
ENDMDL
MODEL 3
REMARK VINA RESULT:      -8.4      2.984      3.702
REMARK  Name = 
REMARK  3 active torsions:
REMARK  status: ('A' for Active; 'I' for Inactive)
REMARK    1  A    between atoms: C_4  and  N_5
REMARK    2  A    between atoms: N_9  and  C_10
REMARK    3  A    between atoms: C_13  and  C_14
REMARK                            x       y       z     vdW  Elec       q    Type
REMARK                         _______ _______ _______ _____ _____    ______ ____
ROOT
ATOM      1  N   UNL     1      -2.542  12.823  23.617  0.00  0.00    +0.000 N 
ATOM      2  C   UNL     1      -1.707  12.388  22.578  0.00  0.00    +0.000 A 
ATOM      3  N   UNL     1      -1.235  11.148  22.653  0.00  0.00    +0.000 NA
ATOM      4  C   UNL     1      -0.472  10.774  21.631  0.00  0.00    +0.000 A 
ATOM      5  N   UNL     1       0.060   9.481  21.676  0.00  0.00    +0.000 N 
ATOM      6  N   UNL     1      -0.165  11.568  20.612  0.00  0.00    +0.000 NA
ATOM      7  C   UNL     1      -0.641  12.800  20.624  0.00  0.00    +0.000 A 
ATOM      8  N   UNL     1      -0.371  13.633  19.564  0.00  0.00    +0.000 N 
ATOM      9  C   UNL     1       0.557  13.228  18.507  0.00  0.00    +0.000 C 
ATOM     10  C   UNL     1       1.846  14.062  18.566  0.00  0.00    +0.000 C 
ATOM     11  O   UNL     1       1.565  15.472  18.567  0.00  0.00    +0.000 OA
ATOM     12  C   UNL     1       0.759  15.817  19.707  0.00  0.00    +0.000 C 
ATOM     13  C   UNL     1      -0.588  15.077  19.690  0.00  0.00    +0.000 C 
ATOM     14  N   UNL     1      -1.414  13.238  21.601  0.00  0.00    +0.000 NA
ATOM     15  H   UNL     1      -2.777  12.037  24.207  0.00  0.00    +0.000 HD
ATOM     16  H   UNL     1      -0.068   9.053  22.581  0.00  0.00    +0.000 HD
ENDROOT
BRANCH   1  20
ATOM     17  C   UNL     1      -5.581  15.745  23.357  0.00  0.00    +0.000 A 
ATOM     18  C   UNL     1      -5.763  14.509  22.743  0.00  0.00    +0.000 A 
ATOM     19  C   UNL     1      -4.765  13.534  22.827  0.00  0.00    +0.000 A 
ATOM     20  C   UNL     1      -3.569  13.783  23.515  0.00  0.00    +0.000 A 
ATOM     21  C   UNL     1      -3.420  15.015  24.164  0.00  0.00    +0.000 A 
ATOM     22  C   UNL     1      -4.412  15.997  24.071  0.00  0.00    +0.000 A 
ENDBRANCH   1  20
BRANCH   5  23
ATOM     23  C   UNL     1       0.792   8.777  20.710  0.00  0.00    +0.000 A 
ATOM     24  C   UNL     1       1.308   7.510  21.005  0.00  0.00    +0.000 A 
ATOM     25  C   UNL     1       2.156   6.845  20.105  0.00  0.00    +0.000 A 
ATOM     26  C   UNL     1       2.513   7.431  18.882  0.00  0.00    +0.000 A 
ATOM     27  C   UNL     1       1.975   8.684  18.573  0.00  0.00    +0.000 A 
ATOM     28  C   UNL     1       1.136   9.345  19.476  0.00  0.00    +0.000 A 
BRANCH  26  29
ATOM     29  C   UNL     1       3.476   6.775  17.998  0.00  0.00    +0.000 A 
ATOM     30  N   UNL     1       4.231   7.302  17.047  0.00  0.00    +0.000 NA
ATOM     31  C   UNL     1       4.809   6.211  16.448  0.00  0.00    +0.000 A 
ATOM     32  C   UNL     1       5.667   6.109  15.345  0.00  0.00    +0.000 A 
ATOM     33  C   UNL     1       6.065   4.827  14.930  0.00  0.00    +0.000 A 
ATOM     34  C   UNL     1       5.633   3.680  15.607  0.00  0.00    +0.000 A 
ATOM     35  C   UNL     1       4.789   3.766  16.722  0.00  0.00    +0.000 A 
ATOM     36  C   UNL     1       4.405   5.051  17.088  0.00  0.00    +0.000 A 
ATOM     37  O   UNL     1       3.561   5.407  18.096  0.00  0.00    +0.000 OA
ENDBRANCH  26  29
ENDBRANCH   5  23
TORSDOF 3
ENDMDL
MODEL 4
REMARK VINA RESULT:      -8.4      3.091      3.766
REMARK  Name = 
REMARK  3 active torsions:
REMARK  status: ('A' for Active; 'I' for Inactive)
REMARK    1  A    between atoms: C_4  and  N_5
REMARK    2  A    between atoms: N_9  and  C_10
REMARK    3  A    between atoms: C_13  and  C_14
REMARK                            x       y       z     vdW  Elec       q    Type
REMARK                         _______ _______ _______ _____ _____    ______ ____
ROOT
ATOM      1  N   UNL     1      -2.311  12.391  23.864  0.00  0.00    +0.000 N 
ATOM      2  C   UNL     1      -1.529  11.962  22.782  0.00  0.00    +0.000 A 
ATOM      3  N   UNL     1      -1.034  10.730  22.838  0.00  0.00    +0.000 NA
ATOM      4  C   UNL     1      -0.325  10.360  21.777  0.00  0.00    +0.000 A 
ATOM      5  N   UNL     1       0.230   9.075  21.800  0.00  0.00    +0.000 N 
ATOM      6  N   UNL     1      -0.088  11.151  20.737  0.00  0.00    +0.000 NA
ATOM      7  C   UNL     1      -0.582  12.376  20.768  0.00  0.00    +0.000 A 
ATOM      8  N   UNL     1      -0.386  13.206  19.690  0.00  0.00    +0.000 N 
ATOM      9  C   UNL     1       0.488  12.808  18.584  0.00  0.00    +0.000 C 
ATOM     10  C   UNL     1       1.765  13.661  18.565  0.00  0.00    +0.000 C 
ATOM     11  O   UNL     1       1.462  15.067  18.573  0.00  0.00    +0.000 OA
ATOM     12  C   UNL     1       0.717  15.408  19.755  0.00  0.00    +0.000 C 
ATOM     13  C   UNL     1      -0.617  14.647  19.819  0.00  0.00    +0.000 C 
ATOM     14  N   UNL     1      -1.305  12.809  21.785  0.00  0.00    +0.000 NA
ATOM     15  H   UNL     1      -2.500  11.606  24.472  0.00  0.00    +0.000 HD
ATOM     16  H   UNL     1       0.159   8.652  22.712  0.00  0.00    +0.000 HD
ENDROOT
BRANCH   1  20
ATOM     17  C   UNL     1      -5.403  15.267  23.754  0.00  0.00    +0.000 A 
ATOM     18  C   UNL     1      -5.630  13.994  23.236  0.00  0.00    +0.000 A 
ATOM     19  C   UNL     1      -4.614  13.036  23.271  0.00  0.00    +0.000 A 
ATOM     20  C   UNL     1      -3.357  13.334  23.814  0.00  0.00    +0.000 A 
ATOM     21  C   UNL     1      -3.159  14.604  24.372  0.00  0.00    +0.000 A 
ATOM     22  C   UNL     1      -4.170  15.570  24.327  0.00  0.00    +0.000 A 
ENDBRANCH   1  20
BRANCH   5  23
ATOM     23  C   UNL     1       0.916   8.377  20.798  0.00  0.00    +0.000 A 
ATOM     24  C   UNL     1       1.322   7.055  21.016  0.00  0.00    +0.000 A 
ATOM     25  C   UNL     1       2.127   6.380  20.084  0.00  0.00    +0.000 A 
ATOM     26  C   UNL     1       2.550   7.011  18.905  0.00  0.00    +0.000 A 
ATOM     27  C   UNL     1       2.120   8.320  18.671  0.00  0.00    +0.000 A 
ATOM     28  C   UNL     1       1.324   8.991  19.606  0.00  0.00    +0.000 A 
BRANCH  26  29
ATOM     29  C   UNL     1       3.470   6.335  17.991  0.00  0.00    +0.000 A 
ATOM     30  N   UNL     1       3.366   5.139  17.434  0.00  0.00    +0.000 NA
ATOM     31  C   UNL     1       4.575   4.964  16.809  0.00  0.00    +0.000 A 
ATOM     32  C   UNL     1       5.097   3.879  16.093  0.00  0.00    +0.000 A 
ATOM     33  C   UNL     1       6.408   3.978  15.599  0.00  0.00    +0.000 A 
ATOM     34  C   UNL     1       7.171   5.135  15.798  0.00  0.00    +0.000 A 
ATOM     35  C   UNL     1       6.657   6.236  16.496  0.00  0.00    +0.000 A 
ATOM     36  C   UNL     1       5.365   6.089  16.983  0.00  0.00    +0.000 A 
ATOM     37  O   UNL     1       4.654   6.982  17.728  0.00  0.00    +0.000 OA
ENDBRANCH  26  29
ENDBRANCH   5  23
TORSDOF 3
ENDMDL
MODEL 5
REMARK VINA RESULT:      -8.4      1.973      2.463
REMARK  Name = 
REMARK  3 active torsions:
REMARK  status: ('A' for Active; 'I' for Inactive)
REMARK    1  A    between atoms: C_4  and  N_5
REMARK    2  A    between atoms: N_9  and  C_10
REMARK    3  A    between atoms: C_13  and  C_14
REMARK                            x       y       z     vdW  Elec       q    Type
REMARK                         _______ _______ _______ _____ _____    ______ ____
ROOT
ATOM      1  N   UNL     1      -3.400  13.507  21.235  0.00  0.00    +0.000 N 
ATOM      2  C   UNL     1      -2.814  12.540  20.406  0.00  0.00    +0.000 A 
ATOM      3  N   UNL     1      -1.570  12.167  20.689  0.00  0.00    +0.000 NA
ATOM      4  C   UNL     1      -1.070  11.228  19.893  0.00  0.00    +0.000 A 
ATOM      5  N   UNL     1       0.244  10.816  20.143  0.00  0.00    +0.000 N 
ATOM      6  N   UNL     1      -1.730  10.704  18.866  0.00  0.00    +0.000 NA
ATOM      7  C   UNL     1      -2.950  11.151  18.624  0.00  0.00    +0.000 A 
ATOM      8  N   UNL     1      -3.672  10.601  17.592  0.00  0.00    +0.000 N 
ATOM      9  C   UNL     1      -3.057   9.646  16.668  0.00  0.00    +0.000 C 
ATOM     10  C   UNL     1      -2.891  10.267  15.273  0.00  0.00    +0.000 C 
ATOM     11  O   UNL     1      -4.130  10.812  14.787  0.00  0.00    +0.000 OA
ATOM     12  C   UNL     1      -4.606  11.837  15.676  0.00  0.00    +0.000 C 
ATOM     13  C   UNL     1      -4.867  11.282  17.086  0.00  0.00    +0.000 C 
ATOM     14  N   UNL     1      -3.515  12.075  19.379  0.00  0.00    +0.000 NA
ATOM     15  H   UNL     1      -2.805  13.664  22.037  0.00  0.00    +0.000 HD
ATOM     16  H   UNL     1       0.708  11.421  20.803  0.00  0.00    +0.000 HD
ENDROOT
BRANCH   1  20
ATOM     17  C   UNL     1      -7.519  13.851  22.105  0.00  0.00    +0.000 A 
ATOM     18  C   UNL     1      -6.903  14.813  21.309  0.00  0.00    +0.000 A 
ATOM     19  C   UNL     1      -5.541  14.706  21.013  0.00  0.00    +0.000 A 
ATOM     20  C   UNL     1      -4.775  13.644  21.513  0.00  0.00    +0.000 A 
ATOM     21  C   UNL     1      -5.419  12.661  22.274  0.00  0.00    +0.000 A 
ATOM     22  C   UNL     1      -6.779  12.773  22.584  0.00  0.00    +0.000 A 
ENDBRANCH   1  20
BRANCH   5  23
ATOM     23  C   UNL     1       0.988   9.784  19.557  0.00  0.00    +0.000 A 
ATOM     24  C   UNL     1       1.364   8.670  20.318  0.00  0.00    +0.000 A 
ATOM     25  C   UNL     1       2.222   7.690  19.793  0.00  0.00    +0.000 A 
ATOM     26  C   UNL     1       2.729   7.796  18.490  0.00  0.00    +0.000 A 
ATOM     27  C   UNL     1       2.329   8.892  17.718  0.00  0.00    +0.000 A 
ATOM     28  C   UNL     1       1.480   9.869  18.248  0.00  0.00    +0.000 A 
BRANCH  26  29
ATOM     29  C   UNL     1       3.700   6.824  17.989  0.00  0.00    +0.000 A 
ATOM     30  N   UNL     1       4.419   5.941  18.662  0.00  0.00    +0.000 NA
ATOM     31  C   UNL     1       5.261   5.416  17.713  0.00  0.00    +0.000 A 
ATOM     32  C   UNL     1       6.295   4.476  17.813  0.00  0.00    +0.000 A 
ATOM     33  C   UNL     1       7.024   4.165  16.653  0.00  0.00    +0.000 A 
ATOM     34  C   UNL     1       6.719   4.763  15.424  0.00  0.00    +0.000 A 
ATOM     35  C   UNL     1       5.677   5.692  15.304  0.00  0.00    +0.000 A 
ATOM     36  C   UNL     1       4.994   5.984  16.478  0.00  0.00    +0.000 A 
ATOM     37  O   UNL     1       3.979   6.878  16.644  0.00  0.00    +0.000 OA
ENDBRANCH  26  29
ENDBRANCH   5  23
TORSDOF 3
ENDMDL
MODEL 6
REMARK VINA RESULT:      -8.4      1.790      2.294
REMARK  Name = 
REMARK  3 active torsions:
REMARK  status: ('A' for Active; 'I' for Inactive)
REMARK    1  A    between atoms: C_4  and  N_5
REMARK    2  A    between atoms: N_9  and  C_10
REMARK    3  A    between atoms: C_13  and  C_14
REMARK                            x       y       z     vdW  Elec       q    Type
REMARK                         _______ _______ _______ _____ _____    ______ ____
ROOT
ATOM      1  N   UNL     1      -2.972  14.057  22.228  0.00  0.00    +0.000 N 
ATOM      2  C   UNL     1      -2.600  13.058  21.318  0.00  0.00    +0.000 A 
ATOM      3  N   UNL     1      -1.346  12.621  21.371  0.00  0.00    +0.000 NA
ATOM      4  C   UNL     1      -1.051  11.654  20.508  0.00  0.00    +0.000 A 
ATOM      5  N   UNL     1       0.263  11.174  20.517  0.00  0.00    +0.000 N 
ATOM      6  N   UNL     1      -1.916  11.162  19.629  0.00  0.00    +0.000 NA
ATOM      7  C   UNL     1      -3.135  11.672  19.610  0.00  0.00    +0.000 A 
ATOM      8  N   UNL     1      -4.063  11.157  18.736  0.00  0.00    +0.000 N 
ATOM      9  C   UNL     1      -3.679  10.168  17.727  0.00  0.00    +0.000 C 
ATOM     10  C   UNL     1      -3.743  10.775  16.318  0.00  0.00    +0.000 C 
ATOM     11  O   UNL     1      -5.021  11.382  16.061  0.00  0.00    +0.000 OA
ATOM     12  C   UNL     1      -5.271  12.434  17.010  0.00  0.00    +0.000 C 
ATOM     13  C   UNL     1      -5.294  11.899  18.451  0.00  0.00    +0.000 C 
ATOM     14  N   UNL     1      -3.502  12.627  20.444  0.00  0.00    +0.000 NA
ATOM     15  H   UNL     1      -2.232  14.186  22.904  0.00  0.00    +0.000 HD
ATOM     16  H   UNL     1       0.872  11.756  21.073  0.00  0.00    +0.000 HD
ENDROOT
BRANCH   1  20
ATOM     17  C   UNL     1      -6.843  14.616  23.825  0.00  0.00    +0.000 A 
ATOM     18  C   UNL     1      -6.226  15.659  23.139  0.00  0.00    +0.000 A 
ATOM     19  C   UNL     1      -4.947  15.482  22.604  0.00  0.00    +0.000 A 
ATOM     20  C   UNL     1      -4.263  14.268  22.753  0.00  0.00    +0.000 A 
ATOM     21  C   UNL     1      -4.915  13.214  23.406  0.00  0.00    +0.000 A 
ATOM     22  C   UNL     1      -6.190  13.392  23.954  0.00  0.00    +0.000 A 
ENDBRANCH   1  20
BRANCH   5  23
ATOM     23  C   UNL     1       0.832  10.101  19.817  0.00  0.00    +0.000 A 
ATOM     24  C   UNL     1       1.141   8.911  20.487  0.00  0.00    +0.000 A 
ATOM     25  C   UNL     1       1.833   7.874  19.840  0.00  0.00    +0.000 A 
ATOM     26  C   UNL     1       2.237   7.999  18.504  0.00  0.00    +0.000 A 
ATOM     27  C   UNL     1       1.902   9.175  17.825  0.00  0.00    +0.000 A 
ATOM     28  C   UNL     1       1.219  10.208  18.475  0.00  0.00    +0.000 A 
BRANCH  26  29
ATOM     29  C   UNL     1       3.045   6.957  17.871  0.00  0.00    +0.000 A 
ATOM     30  N   UNL     1       2.910   5.642  17.937  0.00  0.00    +0.000 NA
ATOM     31  C   UNL     1       4.025   5.168  17.291  0.00  0.00    +0.000 A 
ATOM     32  C   UNL     1       4.483   3.862  17.076  0.00  0.00    +0.000 A 
ATOM     33  C   UNL     1       5.706   3.689  16.408  0.00  0.00    +0.000 A 
ATOM     34  C   UNL     1       6.443   4.788  15.950  0.00  0.00    +0.000 A 
ATOM     35  C   UNL     1       5.990   6.100  16.141  0.00  0.00    +0.000 A 
ATOM     36  C   UNL     1       4.786   6.227  16.823  0.00  0.00    +0.000 A 
ATOM     37  O   UNL     1       4.153   7.380  17.177  0.00  0.00    +0.000 OA
ENDBRANCH  26  29
ENDBRANCH   5  23
TORSDOF 3
ENDMDL
MODEL 7
REMARK VINA RESULT:      -8.3      3.308      4.107
REMARK  Name = 
REMARK  3 active torsions:
REMARK  status: ('A' for Active; 'I' for Inactive)
REMARK    1  A    between atoms: C_4  and  N_5
REMARK    2  A    between atoms: N_9  and  C_10
REMARK    3  A    between atoms: C_13  and  C_14
REMARK                            x       y       z     vdW  Elec       q    Type
REMARK                         _______ _______ _______ _____ _____    ______ ____
ROOT
ATOM      1  N   UNL     1      -1.593  13.306  23.497  0.00  0.00    +0.000 N 
ATOM      2  C   UNL     1      -0.830  12.732  22.470  0.00  0.00    +0.000 A 
ATOM      3  N   UNL     1      -0.576  11.430  22.553  0.00  0.00    +0.000 NA
ATOM      4  C   UNL     1       0.126  10.928  21.542  0.00  0.00    +0.000 A 
ATOM      5  N   UNL     1       0.431   9.564  21.596  0.00  0.00    +0.000 N 
ATOM      6  N   UNL     1       0.577  11.655  20.526  0.00  0.00    +0.000 NA
ATOM      7  C   UNL     1       0.317  12.951  20.531  0.00  0.00    +0.000 A 
ATOM      8  N   UNL     1       0.739  13.722  19.474  0.00  0.00    +0.000 N 
ATOM      9  C   UNL     1       1.599  13.162  18.430  0.00  0.00    +0.000 C 
ATOM     10  C   UNL     1       3.010  13.765  18.507  0.00  0.00    +0.000 C 
ATOM     11  O   UNL     1       2.972  15.203  18.503  0.00  0.00    +0.000 OA
ATOM     12  C   UNL     1       2.222  15.683  19.631  0.00  0.00    +0.000 C 
ATOM     13  C   UNL     1       0.769  15.182  19.596  0.00  0.00    +0.000 C 
ATOM     14  N   UNL     1      -0.383  13.517  21.497  0.00  0.00    +0.000 NA
ATOM     15  H   UNL     1      -1.966  12.573  24.085  0.00  0.00    +0.000 HD
ATOM     16  H   UNL     1       0.219   9.167  22.499  0.00  0.00    +0.000 HD
ENDROOT
BRANCH   1  20
ATOM     17  C   UNL     1      -4.183  16.619  23.105  0.00  0.00    +0.000 A 
ATOM     18  C   UNL     1      -2.947  16.783  23.726  0.00  0.00    +0.000 A 
ATOM     19  C   UNL     1      -2.082  15.694  23.856  0.00  0.00    +0.000 A 
ATOM     20  C   UNL     1      -2.441  14.425  23.380  0.00  0.00    +0.000 A 
ATOM     21  C   UNL     1      -3.667  14.287  22.718  0.00  0.00    +0.000 A 
ATOM     22  C   UNL     1      -4.541  15.373  22.597  0.00  0.00    +0.000 A 
ENDBRANCH   1  20
BRANCH   5  23
ATOM     23  C   UNL     1       1.045   8.743  20.640  0.00  0.00    +0.000 A 
ATOM     24  C   UNL     1       1.496   7.467  20.997  0.00  0.00    +0.000 A 
ATOM     25  C   UNL     1       2.234   6.682  20.097  0.00  0.00    +0.000 A 
ATOM     26  C   UNL     1       2.543   7.152  18.812  0.00  0.00    +0.000 A 
ATOM     27  C   UNL     1       2.067   8.414  18.445  0.00  0.00    +0.000 A 
ATOM     28  C   UNL     1       1.338   9.196  19.347  0.00  0.00    +0.000 A 
BRANCH  26  29
ATOM     29  C   UNL     1       3.397   6.368  17.920  0.00  0.00    +0.000 A 
ATOM     30  N   UNL     1       3.305   5.092  17.584  0.00  0.00    +0.000 NA
ATOM     31  C   UNL     1       4.447   4.863  16.859  0.00  0.00    +0.000 A 
ATOM     32  C   UNL     1       4.952   3.694  16.275  0.00  0.00    +0.000 A 
ATOM     33  C   UNL     1       6.193   3.761  15.621  0.00  0.00    +0.000 A 
ATOM     34  C   UNL     1       6.902   4.966  15.535  0.00  0.00    +0.000 A 
ATOM     35  C   UNL     1       6.402   6.147  16.098  0.00  0.00    +0.000 A 
ATOM     36  C   UNL     1       5.182   6.033  16.752  0.00  0.00    +0.000 A 
ATOM     37  O   UNL     1       4.504   7.009  17.417  0.00  0.00    +0.000 OA
ENDBRANCH  26  29
ENDBRANCH   5  23
TORSDOF 3
ENDMDL
MODEL 8
REMARK VINA RESULT:      -8.3      3.292      4.600
REMARK  Name = 
REMARK  3 active torsions:
REMARK  status: ('A' for Active; 'I' for Inactive)
REMARK    1  A    between atoms: C_4  and  N_5
REMARK    2  A    between atoms: N_9  and  C_10
REMARK    3  A    between atoms: C_13  and  C_14
REMARK                            x       y       z     vdW  Elec       q    Type
REMARK                         _______ _______ _______ _____ _____    ______ ____
ROOT
ATOM      1  N   UNL     1      -2.741  13.559  23.850  0.00  0.00    +0.000 N 
ATOM      2  C   UNL     1      -1.668  13.073  23.090  0.00  0.00    +0.000 A 
ATOM      3  N   UNL     1      -1.575  11.757  22.938  0.00  0.00    +0.000 NA
ATOM      4  C   UNL     1      -0.559  11.348  22.185  0.00  0.00    +0.000 A 
ATOM      5  N   UNL     1      -0.412   9.967  22.011  0.00  0.00    +0.000 N 
ATOM      6  N   UNL     1       0.329  12.170  21.637  0.00  0.00    +0.000 NA
ATOM      7  C   UNL     1       0.193  13.465  21.863  0.00  0.00    +0.000 A 
ATOM      8  N   UNL     1       1.075  14.342  21.278  0.00  0.00    +0.000 N 
ATOM      9  C   UNL     1       2.244  13.856  20.542  0.00  0.00    +0.000 C 
ATOM     10  C   UNL     1       3.538  14.179  21.304  0.00  0.00    +0.000 C 
ATOM     11  O   UNL     1       3.619  15.574  21.643  0.00  0.00    +0.000 OA
ATOM     12  C   UNL     1       2.508  15.948  22.476  0.00  0.00    +0.000 C 
ATOM     13  C   UNL     1       1.166  15.723  21.760  0.00  0.00    +0.000 C 
ATOM     14  N   UNL     1      -0.798  13.943  22.592  0.00  0.00    +0.000 NA
ATOM     15  H   UNL     1      -3.381  12.802  24.047  0.00  0.00    +0.000 HD
ATOM     16  H   UNL     1      -1.010   9.445  22.633  0.00  0.00    +0.000 HD
ENDROOT
BRANCH   1  20
ATOM     17  C   UNL     1      -4.617  17.324  23.465  0.00  0.00    +0.000 A 
ATOM     18  C   UNL     1      -4.675  16.417  22.411  0.00  0.00    +0.000 A 
ATOM     19  C   UNL     1      -4.061  15.167  22.531  0.00  0.00    +0.000 A 
ATOM     20  C   UNL     1      -3.373  14.810  23.698  0.00  0.00    +0.000 A 
ATOM     21  C   UNL     1      -3.362  15.716  24.766  0.00  0.00    +0.000 A 
ATOM     22  C   UNL     1      -3.965  16.972  24.645  0.00  0.00    +0.000 A 
ENDBRANCH   1  20
BRANCH   5  23
ATOM     23  C   UNL     1       0.477   9.255  21.195  0.00  0.00    +0.000 A 
ATOM     24  C   UNL     1       0.712   9.675  19.880  0.00  0.00    +0.000 A 
ATOM     25  C   UNL     1       1.491   8.904  19.001  0.00  0.00    +0.000 A 
ATOM     26  C   UNL     1       2.056   7.689  19.414  0.00  0.00    +0.000 A 
ATOM     27  C   UNL     1       1.847   7.284  20.735  0.00  0.00    +0.000 A 
ATOM     28  C   UNL     1       1.065   8.052  21.605  0.00  0.00    +0.000 A 
BRANCH  26  29
ATOM     29  C   UNL     1       2.780   6.847  18.462  0.00  0.00    +0.000 A 
ATOM     30  N   UNL     1       2.782   5.529  18.348  0.00  0.00    +0.000 NA
ATOM     31  C   UNL     1       3.750   5.285  17.405  0.00  0.00    +0.000 A 
ATOM     32  C   UNL     1       4.258   4.085  16.891  0.00  0.00    +0.000 A 
ATOM     33  C   UNL     1       5.298   4.154  15.950  0.00  0.00    +0.000 A 
ATOM     34  C   UNL     1       5.805   5.387  15.519  0.00  0.00    +0.000 A 
ATOM     35  C   UNL     1       5.295   6.596  16.010  0.00  0.00    +0.000 A 
ATOM     36  C   UNL     1       4.281   6.482  16.953  0.00  0.00    +0.000 A 
ATOM     37  O   UNL     1       3.650   7.492  17.615  0.00  0.00    +0.000 OA
ENDBRANCH  26  29
ENDBRANCH   5  23
TORSDOF 3
ENDMDL
MODEL 9
REMARK VINA RESULT:      -8.3      1.622      2.171
REMARK  Name = 
REMARK  3 active torsions:
REMARK  status: ('A' for Active; 'I' for Inactive)
REMARK    1  A    between atoms: C_4  and  N_5
REMARK    2  A    between atoms: N_9  and  C_10
REMARK    3  A    between atoms: C_13  and  C_14
REMARK                            x       y       z     vdW  Elec       q    Type
REMARK                         _______ _______ _______ _____ _____    ______ ____
ROOT
ATOM      1  N   UNL     1      -3.210  13.936  22.147  0.00  0.00    +0.000 N 
ATOM      2  C   UNL     1      -2.758  12.971  21.236  0.00  0.00    +0.000 A 
ATOM      3  N   UNL     1      -1.491  12.584  21.335  0.00  0.00    +0.000 NA
ATOM      4  C   UNL     1      -1.119  11.648  20.468  0.00  0.00    +0.000 A 
ATOM      5  N   UNL     1       0.213  11.222  20.525  0.00  0.00    +0.000 N 
ATOM      6  N   UNL     1      -1.925  11.138  19.543  0.00  0.00    +0.000 NA
ATOM      7  C   UNL     1      -3.162  11.599  19.481  0.00  0.00    +0.000 A 
ATOM      8  N   UNL     1      -4.030  11.064  18.559  0.00  0.00    +0.000 N 
ATOM      9  C   UNL     1      -3.563  10.111  17.550  0.00  0.00    +0.000 C 
ATOM     10  C   UNL     1      -3.593  10.744  16.150  0.00  0.00    +0.000 C 
ATOM     11  O   UNL     1      -4.883  11.303  15.850  0.00  0.00    +0.000 OA
ATOM     12  C   UNL     1      -5.216  12.325  16.806  0.00  0.00    +0.000 C 
ATOM     13  C   UNL     1      -5.278  11.760  18.235  0.00  0.00    +0.000 C 
ATOM     14  N   UNL     1      -3.604  12.521  20.317  0.00  0.00    +0.000 NA
ATOM     15  H   UNL     1      -2.504  14.080  22.857  0.00  0.00    +0.000 HD
ATOM     16  H   UNL     1       0.772  11.817  21.116  0.00  0.00    +0.000 HD
ENDROOT
BRANCH   1  20
ATOM     17  C   UNL     1      -7.156  14.312  23.606  0.00  0.00    +0.000 A 
ATOM     18  C   UNL     1      -6.683  15.221  22.664  0.00  0.00    +0.000 A 
ATOM     19  C   UNL     1      -5.380  15.102  22.172  0.00  0.00    +0.000 A 
ATOM     20  C   UNL     1      -4.529  14.083  22.621  0.00  0.00    +0.000 A 
ATOM     21  C   UNL     1      -5.035  13.149  23.535  0.00  0.00    +0.000 A 
ATOM     22  C   UNL     1      -6.334  13.273  24.038  0.00  0.00    +0.000 A 
ENDBRANCH   1  20
BRANCH   5  23
ATOM     23  C   UNL     1       0.854  10.188  19.830  0.00  0.00    +0.000 A 
ATOM     24  C   UNL     1       1.140   8.980  20.477  0.00  0.00    +0.000 A 
ATOM     25  C   UNL     1       1.901   7.982  19.847  0.00  0.00    +0.000 A 
ATOM     26  C   UNL     1       2.398   8.165  18.549  0.00  0.00    +0.000 A 
ATOM     27  C   UNL     1       2.088   9.359  17.890  0.00  0.00    +0.000 A 
ATOM     28  C   UNL     1       1.336  10.352  18.525  0.00  0.00    +0.000 A 
BRANCH  26  29
ATOM     29  C   UNL     1       3.273   7.163  17.940  0.00  0.00    +0.000 A 
ATOM     30  N   UNL     1       4.260   7.330  17.075  0.00  0.00    +0.000 NA
ATOM     31  C   UNL     1       4.615   6.049  16.735  0.00  0.00    +0.000 A 
ATOM     32  C   UNL     1       5.561   5.564  15.822  0.00  0.00    +0.000 A 
ATOM     33  C   UNL     1       5.670   4.174  15.655  0.00  0.00    +0.000 A 
ATOM     34  C   UNL     1       4.871   3.291  16.391  0.00  0.00    +0.000 A 
ATOM     35  C   UNL     1       3.933   3.759  17.321  0.00  0.00    +0.000 A 
ATOM     36  C   UNL     1       3.844   5.141  17.442  0.00  0.00    +0.000 A 
ATOM     37  O   UNL     1       2.990   5.849  18.231  0.00  0.00    +0.000 OA
ENDBRANCH  26  29
ENDBRANCH   5  23
TORSDOF 3
ENDMDL
