MODEL 1
REMARK VINA RESULT:      -7.7      0.000      0.000
REMARK  Name = 
REMARK  10 active torsions:
REMARK  status: ('A' for Active; 'I' for Inactive)
REMARK    1  A    between atoms: C_1  and  C_2
REMARK    2  A    between atoms: C_2  and  O_3
REMARK    3  A    between atoms: O_3  and  C_4
REMARK    4  A    between atoms: C_9  and  N_10
REMARK    5  A    between atoms: C_11  and  C_13
REMARK    6  A    between atoms: C_13  and  C_14
REMARK    7  A    between atoms: C_14  and  N_15
REMARK    8  A    between atoms: C_14  and  C_26
REMARK    9  A    between atoms: N_15  and  S_16
REMARK   10  A    between atoms: S_16  and  C_19
REMARK                            x       y       z     vdW  Elec       q    Type
REMARK                         _______ _______ _______ _____ _____    ______ ____
ROOT
ATOM      1  C   UNL     1       0.669   9.529  19.633  0.00  0.00    +0.000 C 
ENDROOT
BRANCH   1   2
ATOM      2  C   UNL     1       0.007  10.679  18.939  0.00  0.00    +0.000 A 
ATOM      3  C   UNL     1      -1.271  10.864  18.444  0.00  0.00    +0.000 A 
ATOM      4  C   UNL     1      -1.344  12.209  18.012  0.00  0.00    +0.000 A 
ATOM      5  C   UNL     1      -0.096  12.746  18.224  0.00  0.00    +0.000 A 
ATOM      6  O   UNL     1       0.731  11.824  18.779  0.00  0.00    +0.000 OA
ENDBRANCH   1   2
BRANCH   1   7
ATOM      7  N   UNL     1       1.106   9.970  20.971  0.00  0.00    +0.000 NA
ATOM      8  H   UNL     1       1.506  10.917  20.983  0.00  0.00    +0.000 HD
BRANCH   7   9
ATOM      9  S   UNL     1       0.166   9.771  22.347  0.00  0.00    +0.000 S 
ATOM     10  O   UNL     1      -0.776   8.718  22.015  0.00  0.00    +0.000 OA
ATOM     11  O   UNL     1       1.025   9.663  23.496  0.00  0.00    +0.000 OA
BRANCH   9  12
ATOM     12  C   UNL     1      -0.811  11.253  22.509  0.00  0.00    +0.000 A 
ATOM     13  C   UNL     1      -2.010  11.244  23.232  0.00  0.00    +0.000 A 
ATOM     14  C   UNL     1      -2.696  12.450  23.438  0.00  0.00    +0.000 A 
ATOM     15  C   UNL     1      -2.176  13.645  22.934  0.00  0.00    +0.000 A 
ATOM     16 CL   UNL     1      -3.007  15.126  23.204  0.00  0.00    +0.000 Cl
ATOM     17  C   UNL     1      -0.978  13.650  22.224  0.00  0.00    +0.000 A 
ATOM     18  C   UNL     1      -0.293  12.454  22.013  0.00  0.00    +0.000 A 
ENDBRANCH   9  12
ENDBRANCH   7   9
ENDBRANCH   1   7
BRANCH   1  19
ATOM     19  C   UNL     1       1.734   8.822  18.785  0.00  0.00    +0.000 C 
BRANCH  19  21
ATOM     20  N   UNL     1       2.881   6.699  18.505  0.00  0.00    +0.000 N 
ATOM     21  C   UNL     1       2.149   7.487  19.372  0.00  0.00    +0.000 C 
ATOM     22  O   UNL     1       1.850   7.139  20.510  0.00  0.00    +0.000 OA
ATOM     23  H   UNL     1       3.197   7.113  17.638  0.00  0.00    +0.000 HD
BRANCH  20  29
ATOM     24  C   UNL     1       6.687   4.366  16.334  0.00  0.00    +0.000 C 
ATOM     25  O   UNL     1       7.853   4.585  16.635  0.00  0.00    +0.000 OA
ATOM     26  N   UNL     1       5.596   4.817  17.063  0.00  0.00    +0.000 N 
ATOM     27  C   UNL     1       5.817   5.707  18.197  0.00  0.00    +0.000 C 
ATOM     28  C   UNL     1       4.847   5.414  19.338  0.00  0.00    +0.000 C 
ATOM     29  C   UNL     1       3.388   5.372  18.863  0.00  0.00    +0.000 C 
ATOM     30  C   UNL     1       3.250   4.401  17.686  0.00  0.00    +0.000 C 
ATOM     31  C   UNL     1       4.229   4.720  16.562  0.00  0.00    +0.000 C 
BRANCH  24  32
ATOM     32  O   UNL     1       6.310   3.650  15.241  0.00  0.00    +0.000 OA
BRANCH  32  34
ATOM     33  C   UNL     1       5.799   3.590  12.880  0.00  0.00    +0.000 C 
ATOM     34  C   UNL     1       6.676   4.189  13.963  0.00  0.00    +0.000 C 
ENDBRANCH  32  34
ENDBRANCH  24  32
ENDBRANCH  20  29
ENDBRANCH  19  21
ENDBRANCH   1  19
TORSDOF 9
ENDMDL
MODEL 2
REMARK VINA RESULT:      -7.5      4.240     10.361
REMARK  Name = 
REMARK  10 active torsions:
REMARK  status: ('A' for Active; 'I' for Inactive)
REMARK    1  A    between atoms: C_1  and  C_2
REMARK    2  A    between atoms: C_2  and  O_3
REMARK    3  A    between atoms: O_3  and  C_4
REMARK    4  A    between atoms: C_9  and  N_10
REMARK    5  A    between atoms: C_11  and  C_13
REMARK    6  A    between atoms: C_13  and  C_14
REMARK    7  A    between atoms: C_14  and  N_15
REMARK    8  A    between atoms: C_14  and  C_26
REMARK    9  A    between atoms: N_15  and  S_16
REMARK   10  A    between atoms: S_16  and  C_19
REMARK                            x       y       z     vdW  Elec       q    Type
REMARK                         _______ _______ _______ _____ _____    ______ ____
ROOT
ATOM      1  C   UNL     1       2.011   5.547  18.983  0.00  0.00    +0.000 C 
ENDROOT
BRANCH   1   2
ATOM      2  C   UNL     1       1.765   4.437  19.957  0.00  0.00    +0.000 A 
ATOM      3  C   UNL     1       1.016   3.277  19.885  0.00  0.00    +0.000 A 
ATOM      4  C   UNL     1       1.275   2.557  21.075  0.00  0.00    +0.000 A 
ATOM      5  C   UNL     1       2.124   3.342  21.819  0.00  0.00    +0.000 A 
ATOM      6  O   UNL     1       2.422   4.486  21.153  0.00  0.00    +0.000 OA
ENDBRANCH   1   2
BRANCH   1   7
ATOM      7  N   UNL     1       2.947   5.069  17.947  0.00  0.00    +0.000 NA
ATOM      8  H   UNL     1       3.060   5.720  17.160  0.00  0.00    +0.000 HD
BRANCH   7   9
ATOM      9  S   UNL     1       4.446   4.406  18.310  0.00  0.00    +0.000 S 
ATOM     10  O   UNL     1       5.067   5.347  19.223  0.00  0.00    +0.000 OA
ATOM     11  O   UNL     1       4.277   3.023  18.669  0.00  0.00    +0.000 OA
BRANCH   9  12
ATOM     12  C   UNL     1       5.409   4.487  16.812  0.00  0.00    +0.000 A 
ATOM     13  C   UNL     1       4.809   4.282  15.564  0.00  0.00    +0.000 A 
ATOM     14  C   UNL     1       5.569   4.466  14.399  0.00  0.00    +0.000 A 
ATOM     15  C   UNL     1       6.905   4.863  14.492  0.00  0.00    +0.000 A 
ATOM     16 CL   UNL     1       7.831   5.108  13.063  0.00  0.00    +0.000 Cl
ATOM     17  C   UNL     1       7.495   5.074  15.736  0.00  0.00    +0.000 A 
ATOM     18  C   UNL     1       6.746   4.890  16.898  0.00  0.00    +0.000 A 
ENDBRANCH   9  12
ENDBRANCH   7   9
ENDBRANCH   1   7
BRANCH   1  19
ATOM     19  C   UNL     1       2.376   6.883  19.642  0.00  0.00    +0.000 C 
BRANCH  19  21
ATOM     20  N   UNL     1       1.408   9.068  19.207  0.00  0.00    +0.000 N 
ATOM     21  C   UNL     1       2.204   8.059  18.701  0.00  0.00    +0.000 C 
ATOM     22  O   UNL     1       2.717   8.100  17.587  0.00  0.00    +0.000 OA
ATOM     23  H   UNL     1       1.135   9.016  20.180  0.00  0.00    +0.000 HD
BRANCH  20  29
ATOM     24  C   UNL     1      -1.786  12.593  20.626  0.00  0.00    +0.000 C 
ATOM     25  O   UNL     1      -1.486  13.474  21.422  0.00  0.00    +0.000 OA
ATOM     26  N   UNL     1      -0.872  11.736  20.032  0.00  0.00    +0.000 N 
ATOM     27  C   UNL     1       0.525  11.785  20.448  0.00  0.00    +0.000 C 
ATOM     28  C   UNL     1       1.470  11.559  19.271  0.00  0.00    +0.000 C 
ATOM     29  C   UNL     1       1.109  10.299  18.471  0.00  0.00    +0.000 C 
ATOM     30  C   UNL     1      -0.367  10.344  18.063  0.00  0.00    +0.000 C 
ATOM     31  C   UNL     1      -1.285  10.568  19.259  0.00  0.00    +0.000 C 
BRANCH  24  32
ATOM     32  O   UNL     1      -3.060  12.341  20.223  0.00  0.00    +0.000 OA
BRANCH  32  34
ATOM     33  C   UNL     1      -5.186  12.684  21.317  0.00  0.00    +0.000 C 
ATOM     34  C   UNL     1      -4.045  13.329  20.554  0.00  0.00    +0.000 C 
ENDBRANCH  32  34
ENDBRANCH  24  32
ENDBRANCH  20  29
ENDBRANCH  19  21
ENDBRANCH   1  19
TORSDOF 9
ENDMDL
MODEL 3
REMARK VINA RESULT:      -7.4      1.113      1.538
REMARK  Name = 
REMARK  10 active torsions:
REMARK  status: ('A' for Active; 'I' for Inactive)
REMARK    1  A    between atoms: C_1  and  C_2
REMARK    2  A    between atoms: C_2  and  O_3
REMARK    3  A    between atoms: O_3  and  C_4
REMARK    4  A    between atoms: C_9  and  N_10
REMARK    5  A    between atoms: C_11  and  C_13
REMARK    6  A    between atoms: C_13  and  C_14
REMARK    7  A    between atoms: C_14  and  N_15
REMARK    8  A    between atoms: C_14  and  C_26
REMARK    9  A    between atoms: N_15  and  S_16
REMARK   10  A    between atoms: S_16  and  C_19
REMARK                            x       y       z     vdW  Elec       q    Type
REMARK                         _______ _______ _______ _____ _____    ______ ____
ROOT
ATOM      1  C   UNL     1       0.632   9.269  19.056  0.00  0.00    +0.000 C 
ENDROOT
BRANCH   1   2
ATOM      2  C   UNL     1      -0.401  10.132  18.399  0.00  0.00    +0.000 A 
ATOM      3  C   UNL     1      -0.680  11.484  18.480  0.00  0.00    +0.000 A 
ATOM      4  C   UNL     1      -1.692  11.742  17.526  0.00  0.00    +0.000 A 
ATOM      5  C   UNL     1      -2.002  10.529  16.959  0.00  0.00    +0.000 A 
ATOM      6  O   UNL     1      -1.229   9.546  17.487  0.00  0.00    +0.000 OA
ENDBRANCH   1   2
BRANCH   1   7
ATOM      7  N   UNL     1       1.158   9.977  20.238  0.00  0.00    +0.000 NA
ATOM      8  H   UNL     1       1.261  10.990  20.101  0.00  0.00    +0.000 HD
BRANCH   7   9
ATOM      9  S   UNL     1       0.584   9.706  21.792  0.00  0.00    +0.000 S 
ATOM     10  O   UNL     1      -0.390   8.639  21.657  0.00  0.00    +0.000 OA
ATOM     11  O   UNL     1       1.698   9.584  22.694  0.00  0.00    +0.000 OA
BRANCH   9  12
ATOM     12  C   UNL     1      -0.353  11.154  22.243  0.00  0.00    +0.000 A 
ATOM     13  C   UNL     1      -0.045  12.404  21.696  0.00  0.00    +0.000 A 
ATOM     14  C   UNL     1      -0.871  13.501  21.982  0.00  0.00    +0.000 A 
ATOM     15  C   UNL     1      -1.995  13.336  22.794  0.00  0.00    +0.000 A 
ATOM     16 CL   UNL     1      -3.020  14.677  23.128  0.00  0.00    +0.000 Cl
ATOM     17  C   UNL     1      -2.303  12.088  23.330  0.00  0.00    +0.000 A 
ATOM     18  C   UNL     1      -1.484  10.994  23.052  0.00  0.00    +0.000 A 
ENDBRANCH   9  12
ENDBRANCH   7   9
ENDBRANCH   1   7
BRANCH   1  19
ATOM     19  C   UNL     1       1.686   8.716  18.089  0.00  0.00    +0.000 C 
BRANCH  19  21
ATOM     20  N   UNL     1       3.488   7.102  17.872  0.00  0.00    +0.000 N 
ATOM     21  C   UNL     1       2.469   7.562  18.683  0.00  0.00    +0.000 C 
ATOM     22  O   UNL     1       2.208   7.077  19.779  0.00  0.00    +0.000 OA
ATOM     23  H   UNL     1       3.721   7.641  17.048  0.00  0.00    +0.000 HD
BRANCH  20  29
ATOM     24  C   UNL     1       6.704   4.813  14.862  0.00  0.00    +0.000 C 
ATOM     25  O   UNL     1       7.820   5.258  14.628  0.00  0.00    +0.000 OA
ATOM     26  N   UNL     1       5.869   5.289  15.862  0.00  0.00    +0.000 N 
ATOM     27  C   UNL     1       6.270   6.468  16.622  0.00  0.00    +0.000 C 
ATOM     28  C   UNL     1       5.857   6.359  18.088  0.00  0.00    +0.000 C 
ATOM     29  C   UNL     1       4.374   5.997  18.247  0.00  0.00    +0.000 C 
ATOM     30  C   UNL     1       4.052   4.741  17.432  0.00  0.00    +0.000 C 
ATOM     31  C   UNL     1       4.473   4.881  15.974  0.00  0.00    +0.000 C 
BRANCH  24  32
ATOM     32  O   UNL     1       6.137   3.790  14.168  0.00  0.00    +0.000 OA
BRANCH  32  34
ATOM     33  C   UNL     1       5.224   3.248  11.999  0.00  0.00    +0.000 C 
ATOM     34  C   UNL     1       6.443   3.717  12.769  0.00  0.00    +0.000 C 
ENDBRANCH  32  34
ENDBRANCH  24  32
ENDBRANCH  20  29
ENDBRANCH  19  21
ENDBRANCH   1  19
TORSDOF 9
ENDMDL
MODEL 4
REMARK VINA RESULT:      -7.4      4.298     10.420
REMARK  Name = 
REMARK  10 active torsions:
REMARK  status: ('A' for Active; 'I' for Inactive)
REMARK    1  A    between atoms: C_1  and  C_2
REMARK    2  A    between atoms: C_2  and  O_3
REMARK    3  A    between atoms: O_3  and  C_4
REMARK    4  A    between atoms: C_9  and  N_10
REMARK    5  A    between atoms: C_11  and  C_13
REMARK    6  A    between atoms: C_13  and  C_14
REMARK    7  A    between atoms: C_14  and  N_15
REMARK    8  A    between atoms: C_14  and  C_26
REMARK    9  A    between atoms: N_15  and  S_16
REMARK   10  A    between atoms: S_16  and  C_19
REMARK                            x       y       z     vdW  Elec       q    Type
REMARK                         _______ _______ _______ _____ _____    ______ ____
ROOT
ATOM      1  C   UNL     1       2.576   5.755  19.365  0.00  0.00    +0.000 C 
ENDROOT
BRANCH   1   2
ATOM      2  C   UNL     1       2.052   4.640  20.216  0.00  0.00    +0.000 A 
ATOM      3  C   UNL     1       0.955   3.806  20.094  0.00  0.00    +0.000 A 
ATOM      4  C   UNL     1       1.052   2.860  21.142  0.00  0.00    +0.000 A 
ATOM      5  C   UNL     1       2.170   3.204  21.864  0.00  0.00    +0.000 A 
ATOM      6  O   UNL     1       2.778   4.285  21.315  0.00  0.00    +0.000 OA
ENDBRANCH   1   2
BRANCH   1   7
ATOM      7  N   UNL     1       3.988   5.480  19.040  0.00  0.00    +0.000 NA
ATOM      8  H   UNL     1       4.642   5.736  19.790  0.00  0.00    +0.000 HD
BRANCH   7   9
ATOM      9  S   UNL     1       4.500   4.033  18.359  0.00  0.00    +0.000 S 
ATOM     10  O   UNL     1       5.469   3.494  19.295  0.00  0.00    +0.000 OA
ATOM     11  O   UNL     1       3.351   3.267  17.957  0.00  0.00    +0.000 OA
BRANCH   9  12
ATOM     12  C   UNL     1       5.431   4.464  16.901  0.00  0.00    +0.000 A 
ATOM     13  C   UNL     1       6.765   4.876  17.001  0.00  0.00    +0.000 A 
ATOM     14  C   UNL     1       7.504   5.098  15.829  0.00  0.00    +0.000 A 
ATOM     15  C   UNL     1       6.911   4.894  14.580  0.00  0.00    +0.000 A 
ATOM     16 CL   UNL     1       7.824   5.146  13.144  0.00  0.00    +0.000 Cl
ATOM     17  C   UNL     1       5.587   4.476  14.487  0.00  0.00    +0.000 A 
ATOM     18  C   UNL     1       4.846   4.256  15.648  0.00  0.00    +0.000 A 
ENDBRANCH   9  12
ENDBRANCH   7   9
ENDBRANCH   1   7
BRANCH   1  19
ATOM     19  C   UNL     1       2.283   7.154  19.924  0.00  0.00    +0.000 C 
BRANCH  19  21
ATOM     20  N   UNL     1       1.187   9.184  19.166  0.00  0.00    +0.000 N 
ATOM     21  C   UNL     1       2.079   8.184  18.831  0.00  0.00    +0.000 C 
ATOM     22  O   UNL     1       2.647   8.123  17.746  0.00  0.00    +0.000 OA
ATOM     23  H   UNL     1       0.866   9.235  20.124  0.00  0.00    +0.000 HD
BRANCH  20  29
ATOM     24  C   UNL     1      -1.864  12.955  20.223  0.00  0.00    +0.000 C 
ATOM     25  O   UNL     1      -1.497  13.947  20.840  0.00  0.00    +0.000 OA
ATOM     26  N   UNL     1      -1.004  11.994  19.711  0.00  0.00    +0.000 N 
ATOM     27  C   UNL     1       0.420  12.083  20.008  0.00  0.00    +0.000 C 
ATOM     28  C   UNL     1       1.271  11.650  18.816  0.00  0.00    +0.000 C 
ATOM     29  C   UNL     1       0.841  10.285  18.263  0.00  0.00    +0.000 C 
ATOM     30  C   UNL     1      -0.661  10.292  17.964  0.00  0.00    +0.000 C 
ATOM     31  C   UNL     1      -1.484  10.725  19.172  0.00  0.00    +0.000 C 
BRANCH  24  32
ATOM     32  O   UNL     1      -3.167  12.665  19.963  0.00  0.00    +0.000 OA
BRANCH  32  34
ATOM     33  C   UNL     1      -5.421  12.454  20.804  0.00  0.00    +0.000 C 
ATOM     34  C   UNL     1      -4.143  13.269  20.822  0.00  0.00    +0.000 C 
ENDBRANCH  32  34
ENDBRANCH  24  32
ENDBRANCH  20  29
ENDBRANCH  19  21
ENDBRANCH   1  19
TORSDOF 9
ENDMDL
MODEL 5
REMARK VINA RESULT:      -7.0      4.123     10.043
REMARK  Name = 
REMARK  10 active torsions:
REMARK  status: ('A' for Active; 'I' for Inactive)
REMARK    1  A    between atoms: C_1  and  C_2
REMARK    2  A    between atoms: C_2  and  O_3
REMARK    3  A    between atoms: O_3  and  C_4
REMARK    4  A    between atoms: C_9  and  N_10
REMARK    5  A    between atoms: C_11  and  C_13
REMARK    6  A    between atoms: C_13  and  C_14
REMARK    7  A    between atoms: C_14  and  N_15
REMARK    8  A    between atoms: C_14  and  C_26
REMARK    9  A    between atoms: N_15  and  S_16
REMARK   10  A    between atoms: S_16  and  C_19
REMARK                            x       y       z     vdW  Elec       q    Type
REMARK                         _______ _______ _______ _____ _____    ______ ____
ROOT
ATOM      1  C   UNL     1       3.331   6.039  18.237  0.00  0.00    +0.000 C 
ENDROOT
BRANCH   1   2
ATOM      2  C   UNL     1       2.281   5.002  18.490  0.00  0.00    +0.000 A 
ATOM      3  C   UNL     1       1.467   4.269  17.646  0.00  0.00    +0.000 A 
ATOM      4  C   UNL     1       0.768   3.348  18.462  0.00  0.00    +0.000 A 
ATOM      5  C   UNL     1       1.160   3.608  19.754  0.00  0.00    +0.000 A 
ATOM      6  O   UNL     1       2.072   4.613  19.781  0.00  0.00    +0.000 OA
ENDBRANCH   1   2
BRANCH   1   7
ATOM      7  N   UNL     1       4.376   5.918  19.271  0.00  0.00    +0.000 NA
ATOM      8  H   UNL     1       4.012   5.941  20.232  0.00  0.00    +0.000 HD
BRANCH   7   9
ATOM      9  S   UNL     1       5.603   4.775  19.195  0.00  0.00    +0.000 S 
ATOM     10  O   UNL     1       6.763   5.423  19.778  0.00  0.00    +0.000 OA
ATOM     11  O   UNL     1       5.117   3.522  19.708  0.00  0.00    +0.000 OA
BRANCH   9  12
ATOM     12  C   UNL     1       5.991   4.566  17.467  0.00  0.00    +0.000 A 
ATOM     13  C   UNL     1       5.146   3.832  16.628  0.00  0.00    +0.000 A 
ATOM     14  C   UNL     1       5.418   3.782  15.253  0.00  0.00    +0.000 A 
ATOM     15  C   UNL     1       6.515   4.472  14.733  0.00  0.00    +0.000 A 
ATOM     16 CL   UNL     1       6.837   4.429  13.043  0.00  0.00    +0.000 Cl
ATOM     17  C   UNL     1       7.348   5.209  15.571  0.00  0.00    +0.000 A 
ATOM     18  C   UNL     1       7.085   5.260  16.939  0.00  0.00    +0.000 A 
ENDBRANCH   9  12
ENDBRANCH   7   9
ENDBRANCH   1   7
BRANCH   1  19
ATOM     19  C   UNL     1       2.770   7.450  18.022  0.00  0.00    +0.000 C 
BRANCH  19  21
ATOM     20  N   UNL     1       1.183   9.035  18.955  0.00  0.00    +0.000 N 
ATOM     21  C   UNL     1       2.008   7.962  19.229  0.00  0.00    +0.000 C 
ATOM     22  O   UNL     1       2.127   7.471  20.347  0.00  0.00    +0.000 OA
ATOM     23  H   UNL     1       1.041   9.291  17.986  0.00  0.00    +0.000 HD
BRANCH  20  29
ATOM     24  C   UNL     1       0.257  13.903  19.259  0.00  0.00    +0.000 C 
ATOM     25  O   UNL     1      -0.615  14.451  18.596  0.00  0.00    +0.000 OA
ATOM     26  N   UNL     1       0.396  12.528  19.377  0.00  0.00    +0.000 N 
ATOM     27  C   UNL     1      -0.461  11.655  18.583  0.00  0.00    +0.000 C 
ATOM     28  C   UNL     1      -0.861  10.403  19.359  0.00  0.00    +0.000 C 
ATOM     29  C   UNL     1       0.352   9.687  19.970  0.00  0.00    +0.000 C 
ATOM     30  C   UNL     1       1.179  10.675  20.798  0.00  0.00    +0.000 C 
ATOM     31  C   UNL     1       1.565  11.912  19.996  0.00  0.00    +0.000 C 
BRANCH  24  32
ATOM     32  O   UNL     1       1.204  14.574  19.965  0.00  0.00    +0.000 OA
BRANCH  32  34
ATOM     33  C   UNL     1       0.275  14.685  22.192  0.00  0.00    +0.000 C 
ATOM     34  C   UNL     1       0.733  15.472  20.979  0.00  0.00    +0.000 C 
ENDBRANCH  32  34
ENDBRANCH  24  32
ENDBRANCH  20  29
ENDBRANCH  19  21
ENDBRANCH   1  19
TORSDOF 9
ENDMDL
MODEL 6
REMARK VINA RESULT:      -7.0      4.159     10.516
REMARK  Name = 
REMARK  10 active torsions:
REMARK  status: ('A' for Active; 'I' for Inactive)
REMARK    1  A    between atoms: C_1  and  C_2
REMARK    2  A    between atoms: C_2  and  O_3
REMARK    3  A    between atoms: O_3  and  C_4
REMARK    4  A    between atoms: C_9  and  N_10
REMARK    5  A    between atoms: C_11  and  C_13
REMARK    6  A    between atoms: C_13  and  C_14
REMARK    7  A    between atoms: C_14  and  N_15
REMARK    8  A    between atoms: C_14  and  C_26
REMARK    9  A    between atoms: N_15  and  S_16
REMARK   10  A    between atoms: S_16  and  C_19
REMARK                            x       y       z     vdW  Elec       q    Type
REMARK                         _______ _______ _______ _____ _____    ______ ____
ROOT
ATOM      1  C   UNL     1       2.375   5.793  19.187  0.00  0.00    +0.000 C 
ENDROOT
BRANCH   1   2
ATOM      2  C   UNL     1       1.957   4.677  20.093  0.00  0.00    +0.000 A 
ATOM      3  C   UNL     1       0.919   3.764  20.036  0.00  0.00    +0.000 A 
ATOM      4  C   UNL     1       1.115   2.867  21.113  0.00  0.00    +0.000 A 
ATOM      5  C   UNL     1       2.226   3.315  21.787  0.00  0.00    +0.000 A 
ATOM      6  O   UNL     1       2.739   4.415  21.180  0.00  0.00    +0.000 OA
ENDBRANCH   1   2
BRANCH   1   7
ATOM      7  N   UNL     1       3.646   5.425  18.537  0.00  0.00    +0.000 NA
ATOM      8  H   UNL     1       4.477   5.636  19.104  0.00  0.00    +0.000 HD
BRANCH   7   9
ATOM      9  S   UNL     1       3.884   3.948  17.775  0.00  0.00    +0.000 S 
ATOM     10  O   UNL     1       4.554   3.116  18.757  0.00  0.00    +0.000 OA
ATOM     11  O   UNL     1       2.653   3.528  17.162  0.00  0.00    +0.000 OA
BRANCH   9  12
ATOM     12  C   UNL     1       5.088   4.232  16.490  0.00  0.00    +0.000 A 
ATOM     13  C   UNL     1       4.768   4.001  15.147  0.00  0.00    +0.000 A 
ATOM     14  C   UNL     1       5.696   4.342  14.152  0.00  0.00    +0.000 A 
ATOM     15  C   UNL     1       6.919   4.918  14.506  0.00  0.00    +0.000 A 
ATOM     16 CL   UNL     1       8.049   5.356  13.285  0.00  0.00    +0.000 Cl
ATOM     17  C   UNL     1       7.228   5.155  15.843  0.00  0.00    +0.000 A 
ATOM     18  C   UNL     1       6.311   4.815  16.837  0.00  0.00    +0.000 A 
ENDBRANCH   9  12
ENDBRANCH   7   9
ENDBRANCH   1   7
BRANCH   1  19
ATOM     19  C   UNL     1       2.344   7.176  19.851  0.00  0.00    +0.000 C 
BRANCH  19  21
ATOM     20  N   UNL     1       1.136   9.252  19.487  0.00  0.00    +0.000 N 
ATOM     21  C   UNL     1       1.903   8.267  18.895  0.00  0.00    +0.000 C 
ATOM     22  O   UNL     1       2.193   8.264  17.703  0.00  0.00    +0.000 OA
ATOM     23  H   UNL     1       1.056   9.251  20.495  0.00  0.00    +0.000 HD
BRANCH  20  29
ATOM     24  C   UNL     1      -0.324  13.550  21.497  0.00  0.00    +0.000 C 
ATOM     25  O   UNL     1       0.461  14.446  21.779  0.00  0.00    +0.000 OA
ATOM     26  N   UNL     1       0.004  12.440  20.732  0.00  0.00    +0.000 N 
ATOM     27  C   UNL     1       1.389  12.242  20.322  0.00  0.00    +0.000 C 
ATOM     28  C   UNL     1       1.481  11.654  18.917  0.00  0.00    +0.000 C 
ATOM     29  C   UNL     1       0.605  10.404  18.753  0.00  0.00    +0.000 C 
ATOM     30  C   UNL     1      -0.831  10.711  19.189  0.00  0.00    +0.000 C 
ATOM     31  C   UNL     1      -0.890  11.294  20.596  0.00  0.00    +0.000 C 
BRANCH  24  32
ATOM     32  O   UNL     1      -1.622  13.527  21.900  0.00  0.00    +0.000 OA
BRANCH  32  34
ATOM     33  C   UNL     1      -2.637  14.163  23.998  0.00  0.00    +0.000 C 
ATOM     34  C   UNL     1      -2.073  14.646  22.675  0.00  0.00    +0.000 C 
ENDBRANCH  32  34
ENDBRANCH  24  32
ENDBRANCH  20  29
ENDBRANCH  19  21
ENDBRANCH   1  19
TORSDOF 9
ENDMDL
MODEL 7
REMARK VINA RESULT:      -7.0      4.160     10.235
REMARK  Name = 
REMARK  10 active torsions:
REMARK  status: ('A' for Active; 'I' for Inactive)
REMARK    1  A    between atoms: C_1  and  C_2
REMARK    2  A    between atoms: C_2  and  O_3
REMARK    3  A    between atoms: O_3  and  C_4
REMARK    4  A    between atoms: C_9  and  N_10
REMARK    5  A    between atoms: C_11  and  C_13
REMARK    6  A    between atoms: C_13  and  C_14
REMARK    7  A    between atoms: C_14  and  N_15
REMARK    8  A    between atoms: C_14  and  C_26
REMARK    9  A    between atoms: N_15  and  S_16
REMARK   10  A    between atoms: S_16  and  C_19
REMARK                            x       y       z     vdW  Elec       q    Type
REMARK                         _______ _______ _______ _____ _____    ______ ____
ROOT
ATOM      1  C   UNL     1       3.125   5.693  18.427  0.00  0.00    +0.000 C 
ENDROOT
BRANCH   1   2
ATOM      2  C   UNL     1       2.182   4.565  18.709  0.00  0.00    +0.000 A 
ATOM      3  C   UNL     1       1.354   3.812  17.897  0.00  0.00    +0.000 A 
ATOM      4  C   UNL     1       0.800   2.800  18.716  0.00  0.00    +0.000 A 
ATOM      5  C   UNL     1       1.282   3.028  19.983  0.00  0.00    +0.000 A 
ATOM      6  O   UNL     1       2.115   4.099  19.990  0.00  0.00    +0.000 OA
ENDBRANCH   1   2
BRANCH   1   7
ATOM      7  N   UNL     1       4.244   5.627  19.386  0.00  0.00    +0.000 NA
ATOM      8  H   UNL     1       3.945   5.537  20.365  0.00  0.00    +0.000 HD
BRANCH   7   9
ATOM      9  S   UNL     1       5.588   4.649  19.150  0.00  0.00    +0.000 S 
ATOM     10  O   UNL     1       6.698   5.382  19.729  0.00  0.00    +0.000 OA
ATOM     11  O   UNL     1       5.280   3.310  19.575  0.00  0.00    +0.000 OA
BRANCH   9  12
ATOM     12  C   UNL     1       5.894   4.629  17.393  0.00  0.00    +0.000 A 
ATOM     13  C   UNL     1       7.003   5.290  16.853  0.00  0.00    +0.000 A 
ATOM     14  C   UNL     1       7.279   5.160  15.484  0.00  0.00    +0.000 A 
ATOM     15  C   UNL     1       6.459   4.367  14.678  0.00  0.00    +0.000 A 
ATOM     16 CL   UNL     1       6.810   4.191  13.003  0.00  0.00    +0.000 Cl
ATOM     17  C   UNL     1       5.362   3.704  15.222  0.00  0.00    +0.000 A 
ATOM     18  C   UNL     1       5.080   3.831  16.582  0.00  0.00    +0.000 A 
ENDBRANCH   9  12
ENDBRANCH   7   9
ENDBRANCH   1   7
BRANCH   1  19
ATOM     19  C   UNL     1       2.439   7.060  18.301  0.00  0.00    +0.000 C 
BRANCH  19  21
ATOM     20  N   UNL     1       1.531   8.909  19.587  0.00  0.00    +0.000 N 
ATOM     21  C   UNL     1       1.982   7.605  19.640  0.00  0.00    +0.000 C 
ATOM     22  O   UNL     1       2.023   6.947  20.674  0.00  0.00    +0.000 OA
ATOM     23  H   UNL     1       1.405   9.333  18.677  0.00  0.00    +0.000 HD
BRANCH  20  29
ATOM     24  C   UNL     1      -1.598  12.763  19.515  0.00  0.00    +0.000 C 
ATOM     25  O   UNL     1      -2.812  12.625  19.440  0.00  0.00    +0.000 OA
ATOM     26  N   UNL     1      -0.711  11.727  19.768  0.00  0.00    +0.000 N 
ATOM     27  C   UNL     1      -1.214  10.360  19.838  0.00  0.00    +0.000 C 
ATOM     28  C   UNL     1      -0.486   9.547  20.905  0.00  0.00    +0.000 C 
ATOM     29  C   UNL     1       1.040   9.636  20.761  0.00  0.00    +0.000 C 
ATOM     30  C   UNL     1       1.476  11.103  20.715  0.00  0.00    +0.000 C 
ATOM     31  C   UNL     1       0.735  11.887  19.639  0.00  0.00    +0.000 C 
BRANCH  24  32
ATOM     32  O   UNL     1      -0.960  13.954  19.358  0.00  0.00    +0.000 OA
BRANCH  32  34
ATOM     33  C   UNL     1      -1.113  16.338  19.716  0.00  0.00    +0.000 C 
ATOM     34  C   UNL     1      -1.232  14.962  20.341  0.00  0.00    +0.000 C 
ENDBRANCH  32  34
ENDBRANCH  24  32
ENDBRANCH  20  29
ENDBRANCH  19  21
ENDBRANCH   1  19
TORSDOF 9
ENDMDL
MODEL 8
REMARK VINA RESULT:      -6.9      4.268     10.042
REMARK  Name = 
REMARK  10 active torsions:
REMARK  status: ('A' for Active; 'I' for Inactive)
REMARK    1  A    between atoms: C_1  and  C_2
REMARK    2  A    between atoms: C_2  and  O_3
REMARK    3  A    between atoms: O_3  and  C_4
REMARK    4  A    between atoms: C_9  and  N_10
REMARK    5  A    between atoms: C_11  and  C_13
REMARK    6  A    between atoms: C_13  and  C_14
REMARK    7  A    between atoms: C_14  and  N_15
REMARK    8  A    between atoms: C_14  and  C_26
REMARK    9  A    between atoms: N_15  and  S_16
REMARK   10  A    between atoms: S_16  and  C_19
REMARK                            x       y       z     vdW  Elec       q    Type
REMARK                         _______ _______ _______ _____ _____    ______ ____
ROOT
ATOM      1  C   UNL     1       3.370   6.124  18.134  0.00  0.00    +0.000 C 
ENDROOT
BRANCH   1   2
ATOM      2  C   UNL     1       2.350   5.067  18.424  0.00  0.00    +0.000 A 
ATOM      3  C   UNL     1       1.468   4.371  17.617  0.00  0.00    +0.000 A 
ATOM      4  C   UNL     1       0.845   3.406  18.443  0.00  0.00    +0.000 A 
ATOM      5  C   UNL     1       1.346   3.605  19.708  0.00  0.00    +0.000 A 
ATOM      6  O   UNL     1       2.254   4.613  19.707  0.00  0.00    +0.000 OA
ENDBRANCH   1   2
BRANCH   1   7
ATOM      7  N   UNL     1       4.459   6.015  19.123  0.00  0.00    +0.000 NA
ATOM      8  H   UNL     1       4.130   5.943  20.094  0.00  0.00    +0.000 HD
BRANCH   7   9
ATOM      9  S   UNL     1       5.767   4.982  18.928  0.00  0.00    +0.000 S 
ATOM     10  O   UNL     1       6.921   5.740  19.374  0.00  0.00    +0.000 OA
ATOM     11  O   UNL     1       5.451   3.703  19.505  0.00  0.00    +0.000 OA
BRANCH   9  12
ATOM     12  C   UNL     1       5.985   4.771  17.171  0.00  0.00    +0.000 A 
ATOM     13  C   UNL     1       7.010   5.439  16.492  0.00  0.00    +0.000 A 
ATOM     14  C   UNL     1       7.227   5.164  15.133  0.00  0.00    +0.000 A 
ATOM     15  C   UNL     1       6.431   4.222  14.476  0.00  0.00    +0.000 A 
ATOM     16 CL   UNL     1       6.709   3.870  12.815  0.00  0.00    +0.000 Cl
ATOM     17  C   UNL     1       5.418   3.554  15.158  0.00  0.00    +0.000 A 
ATOM     18  C   UNL     1       5.196   3.825  16.508  0.00  0.00    +0.000 A 
ENDBRANCH   9  12
ENDBRANCH   7   9
ENDBRANCH   1   7
BRANCH   1  19
ATOM     19  C   UNL     1       2.777   7.526  17.949  0.00  0.00    +0.000 C 
BRANCH  19  21
ATOM     20  N   UNL     1       1.191   9.078  18.937  0.00  0.00    +0.000 N 
ATOM     21  C   UNL     1       2.026   8.003  19.176  0.00  0.00    +0.000 C 
ATOM     22  O   UNL     1       2.160   7.487  20.281  0.00  0.00    +0.000 OA
ATOM     23  H   UNL     1       1.037   9.357  17.977  0.00  0.00    +0.000 HD
BRANCH  20  29
ATOM     24  C   UNL     1       0.199  13.925  19.339  0.00  0.00    +0.000 C 
ATOM     25  O   UNL     1      -0.691  14.472  18.700  0.00  0.00    +0.000 OA
ATOM     26  N   UNL     1       0.360  12.551  19.432  0.00  0.00    +0.000 N 
ATOM     27  C   UNL     1      -0.497  11.679  18.637  0.00  0.00    +0.000 C 
ATOM     28  C   UNL     1      -0.866  10.408  19.398  0.00  0.00    +0.000 C 
ATOM     29  C   UNL     1       0.367   9.700  19.977  0.00  0.00    +0.000 C 
ATOM     30  C   UNL     1       1.193  10.686  20.808  0.00  0.00    +0.000 C 
ATOM     31  C   UNL     1       1.548  11.942  20.022  0.00  0.00    +0.000 C 
BRANCH  24  32
ATOM     32  O   UNL     1       1.148  14.599  20.042  0.00  0.00    +0.000 OA
BRANCH  32  34
ATOM     33  C   UNL     1       3.305  15.687  20.027  0.00  0.00    +0.000 C 
ATOM     34  C   UNL     1       1.993  15.483  19.294  0.00  0.00    +0.000 C 
ENDBRANCH  32  34
ENDBRANCH  24  32
ENDBRANCH  20  29
ENDBRANCH  19  21
ENDBRANCH   1  19
TORSDOF 9
ENDMDL
MODEL 9
REMARK VINA RESULT:      -6.9      1.362      1.628
REMARK  Name = 
REMARK  10 active torsions:
REMARK  status: ('A' for Active; 'I' for Inactive)
REMARK    1  A    between atoms: C_1  and  C_2
REMARK    2  A    between atoms: C_2  and  O_3
REMARK    3  A    between atoms: O_3  and  C_4
REMARK    4  A    between atoms: C_9  and  N_10
REMARK    5  A    between atoms: C_11  and  C_13
REMARK    6  A    between atoms: C_13  and  C_14
REMARK    7  A    between atoms: C_14  and  N_15
REMARK    8  A    between atoms: C_14  and  C_26
REMARK    9  A    between atoms: N_15  and  S_16
REMARK   10  A    between atoms: S_16  and  C_19
REMARK                            x       y       z     vdW  Elec       q    Type
REMARK                         _______ _______ _______ _____ _____    ______ ____
ROOT
ATOM      1  C   UNL     1       0.627   9.850  19.142  0.00  0.00    +0.000 C 
ENDROOT
BRANCH   1   2
ATOM      2  C   UNL     1      -0.698   9.905  18.446  0.00  0.00    +0.000 A 
ATOM      3  C   UNL     1      -1.972  10.217  18.884  0.00  0.00    +0.000 A 
ATOM      4  C   UNL     1      -2.800  10.223  17.736  0.00  0.00    +0.000 A 
ATOM      5  C   UNL     1      -1.993   9.867  16.681  0.00  0.00    +0.000 A 
ATOM      6  O   UNL     1      -0.719   9.666  17.103  0.00  0.00    +0.000 OA
ENDBRANCH   1   2
BRANCH   1   7
ATOM      7  N   UNL     1       0.997  11.213  19.567  0.00  0.00    +0.000 NA
ATOM      8  H   UNL     1       0.554  11.954  19.009  0.00  0.00    +0.000 HD
BRANCH   7   9
ATOM      9  S   UNL     1       1.008  11.694  21.175  0.00  0.00    +0.000 S 
ATOM     10  O   UNL     1       1.315  10.492  21.929  0.00  0.00    +0.000 OA
ATOM     11  O   UNL     1       1.812  12.879  21.309  0.00  0.00    +0.000 OA
BRANCH   9  12
ATOM     12  C   UNL     1      -0.676  12.102  21.592  0.00  0.00    +0.000 A 
ATOM     13  C   UNL     1      -1.276  11.577  22.742  0.00  0.00    +0.000 A 
ATOM     14  C   UNL     1      -2.561  12.006  23.103  0.00  0.00    +0.000 A 
ATOM     15  C   UNL     1      -3.224  12.958  22.325  0.00  0.00    +0.000 A 
ATOM     16 CL   UNL     1      -4.792  13.500  22.778  0.00  0.00    +0.000 Cl
ATOM     17  C   UNL     1      -2.620  13.484  21.186  0.00  0.00    +0.000 A 
ATOM     18  C   UNL     1      -1.343  13.059  20.820  0.00  0.00    +0.000 A 
ENDBRANCH   9  12
ENDBRANCH   7   9
ENDBRANCH   1   7
BRANCH   1  19
ATOM     19  C   UNL     1       1.704   9.080  18.366  0.00  0.00    +0.000 C 
BRANCH  19  21
ATOM     20  N   UNL     1       2.821   6.926  18.265  0.00  0.00    +0.000 N 
ATOM     21  C   UNL     1       2.127   7.807  19.072  0.00  0.00    +0.000 C 
ATOM     22  O   UNL     1       1.865   7.580  20.248  0.00  0.00    +0.000 OA
ATOM     23  H   UNL     1       3.112   7.246  17.350  0.00  0.00    +0.000 HD
BRANCH  20  29
ATOM     24  C   UNL     1       6.605   4.394  16.285  0.00  0.00    +0.000 C 
ATOM     25  O   UNL     1       7.774   4.636  16.555  0.00  0.00    +0.000 OA
ATOM     26  N   UNL     1       5.521   4.913  16.978  0.00  0.00    +0.000 N 
ATOM     27  C   UNL     1       5.753   5.902  18.024  0.00  0.00    +0.000 C 
ATOM     28  C   UNL     1       4.792   5.717  19.196  0.00  0.00    +0.000 C 
ATOM     29  C   UNL     1       3.329   5.635  18.738  0.00  0.00    +0.000 C 
ATOM     30  C   UNL     1       3.179   4.562  17.656  0.00  0.00    +0.000 C 
ATOM     31  C   UNL     1       4.149   4.775  16.500  0.00  0.00    +0.000 C 
BRANCH  24  32
ATOM     32  O   UNL     1       6.217   3.583  15.265  0.00  0.00    +0.000 OA
BRANCH  32  34
ATOM     33  C   UNL     1       6.263   3.281  12.869  0.00  0.00    +0.000 C 
ATOM     34  C   UNL     1       5.929   4.219  14.013  0.00  0.00    +0.000 C 
ENDBRANCH  32  34
ENDBRANCH  24  32
ENDBRANCH  20  29
ENDBRANCH  19  21
ENDBRANCH   1  19
TORSDOF 9
ENDMDL
