MODEL 1
REMARK VINA RESULT:      -6.2      0.000      0.000
REMARK  Name = 
REMARK  6 active torsions:
REMARK  status: ('A' for Active; 'I' for Inactive)
REMARK    1  A    between atoms: C_1  and  C_2
REMARK    2  A    between atoms: N_4  and  C_5
REMARK    3  A    between atoms: C_7  and  O_8
REMARK    4  A    between atoms: C_9  and  O_10
REMARK    5  A    between atoms: C_11  and  O_12
REMARK    6  A    between atoms: C_13  and  O_14
REMARK                            x       y       z     vdW  Elec       q    Type
REMARK                         _______ _______ _______ _____ _____    ______ ____
ROOT
ATOM      1  C   UNL     1       4.200   4.533  18.040  0.00  0.00    +0.000 C 
ATOM      2  C   UNL     1       4.088   5.770  17.139  0.00  0.00    +0.000 C 
ATOM      3  C   UNL     1       5.206   5.861  16.108  0.00  0.00    +0.000 C 
ATOM      4  C   UNL     1       6.601   5.695  16.732  0.00  0.00    +0.000 C 
ATOM      5  C   UNL     1       6.675   4.380  17.532  0.00  0.00    +0.000 C 
ATOM      6  C   UNL     1       5.617   4.370  18.645  0.00  0.00    +0.000 C 
ENDROOT
BRANCH   1  10
ATOM      7  C   UNL     1       1.005   3.926  20.048  0.00  0.00    +0.000 C 
ATOM      8  C   UNL     1       1.896   3.919  18.847  0.00  0.00    +0.000 C 
ATOM      9  O   UNL     1       1.543   3.448  17.764  0.00  0.00    +0.000 OA
ATOM     10  N   UNL     1       3.134   4.485  19.048  0.00  0.00    +0.000 N 
ATOM     11  H   UNL     1       3.304   4.938  19.940  0.00  0.00    +0.000 HD
ENDBRANCH   1  10
BRANCH   3  12
ATOM     12  O   UNL     1       5.071   7.123  15.449  0.00  0.00    +0.000 OA
ATOM     13  H   UNL     1       4.567   7.713  16.040  0.00  0.00    +0.000 HD
ENDBRANCH   3  12
BRANCH   4  14
ATOM     14  O   UNL     1       7.567   5.718  15.670  0.00  0.00    +0.000 OA
ATOM     15  H   UNL     1       7.653   4.807  15.330  0.00  0.00    +0.000 HD
ENDBRANCH   4  14
BRANCH   5  16
ATOM     16  O   UNL     1       7.980   4.258  18.115  0.00  0.00    +0.000 OA
ATOM     17  H   UNL     1       8.311   5.179  18.197  0.00  0.00    +0.000 HD
ENDBRANCH   5  16
BRANCH   6  18
ATOM     18  O   UNL     1       5.993   5.412  19.553  0.00  0.00    +0.000 OA
ATOM     19  H   UNL     1       6.951   5.603  19.450  0.00  0.00    +0.000 HD
ENDBRANCH   6  18
TORSDOF 5
ENDMDL
MODEL 2
REMARK VINA RESULT:      -6.0      2.038      5.479
REMARK  Name = 
REMARK  6 active torsions:
REMARK  status: ('A' for Active; 'I' for Inactive)
REMARK    1  A    between atoms: C_1  and  C_2
REMARK    2  A    between atoms: N_4  and  C_5
REMARK    3  A    between atoms: C_7  and  O_8
REMARK    4  A    between atoms: C_9  and  O_10
REMARK    5  A    between atoms: C_11  and  O_12
REMARK    6  A    between atoms: C_13  and  O_14
REMARK                            x       y       z     vdW  Elec       q    Type
REMARK                         _______ _______ _______ _____ _____    ______ ____
ROOT
ATOM      1  C   UNL     1       4.183   3.844  18.434  0.00  0.00    +0.000 C 
ATOM      2  C   UNL     1       3.594   5.010  19.239  0.00  0.00    +0.000 C 
ATOM      3  C   UNL     1       2.655   4.555  20.349  0.00  0.00    +0.000 C 
ATOM      4  C   UNL     1       1.589   3.564  19.853  0.00  0.00    +0.000 C 
ATOM      5  C   UNL     1       2.257   2.367  19.152  0.00  0.00    +0.000 C 
ATOM      6  C   UNL     1       3.098   2.845  17.960  0.00  0.00    +0.000 C 
ENDROOT
BRANCH   1  10
ATOM      7  C   UNL     1       7.095   4.921  16.206  0.00  0.00    +0.000 C 
ATOM      8  C   UNL     1       6.409   4.521  17.473  0.00  0.00    +0.000 C 
ATOM      9  O   UNL     1       7.010   4.401  18.541  0.00  0.00    +0.000 OA
ATOM     10  N   UNL     1       5.055   4.307  17.348  0.00  0.00    +0.000 N 
ATOM     11  H   UNL     1       4.626   4.526  16.455  0.00  0.00    +0.000 HD
ENDBRANCH   1  10
BRANCH   3  12
ATOM     12  O   UNL     1       2.062   5.730  20.909  0.00  0.00    +0.000 OA
ATOM     13  H   UNL     1       1.812   6.316  20.171  0.00  0.00    +0.000 HD
ENDBRANCH   3  12
BRANCH   4  14
ATOM     14  O   UNL     1       0.815   3.143  20.987  0.00  0.00    +0.000 OA
ATOM     15  H   UNL     1       1.352   3.303  21.786  0.00  0.00    +0.000 HD
ENDBRANCH   4  14
BRANCH   5  16
ATOM     16  O   UNL     1       1.241   1.467  18.687  0.00  0.00    +0.000 OA
ATOM     17  H   UNL     1       1.215   0.744  19.351  0.00  0.00    +0.000 HD
ENDBRANCH   5  16
BRANCH   6  18
ATOM     18  O   UNL     1       2.167   3.392  17.018  0.00  0.00    +0.000 OA
ATOM     19  H   UNL     1       1.389   3.750  17.500  0.00  0.00    +0.000 HD
ENDBRANCH   6  18
TORSDOF 5
ENDMDL
MODEL 3
REMARK VINA RESULT:      -6.0      2.353      5.405
REMARK  Name = 
REMARK  6 active torsions:
REMARK  status: ('A' for Active; 'I' for Inactive)
REMARK    1  A    between atoms: C_1  and  C_2
REMARK    2  A    between atoms: N_4  and  C_5
REMARK    3  A    between atoms: C_7  and  O_8
REMARK    4  A    between atoms: C_9  and  O_10
REMARK    5  A    between atoms: C_11  and  O_12
REMARK    6  A    between atoms: C_13  and  O_14
REMARK                            x       y       z     vdW  Elec       q    Type
REMARK                         _______ _______ _______ _____ _____    ______ ____
ROOT
ATOM      1  C   UNL     1       4.384   4.583  19.156  0.00  0.00    +0.000 C 
ATOM      2  C   UNL     1       3.332   5.539  19.732  0.00  0.00    +0.000 C 
ATOM      3  C   UNL     1       2.241   4.822  20.518  0.00  0.00    +0.000 C 
ATOM      4  C   UNL     1       1.627   3.647  19.739  0.00  0.00    +0.000 C 
ATOM      5  C   UNL     1       2.730   2.672  19.286  0.00  0.00    +0.000 C 
ATOM      6  C   UNL     1       3.749   3.395  18.392  0.00  0.00    +0.000 C 
ENDROOT
BRANCH   1  10
ATOM      7  C   UNL     1       7.553   6.253  17.821  0.00  0.00    +0.000 C 
ATOM      8  C   UNL     1       6.668   5.592  18.829  0.00  0.00    +0.000 C 
ATOM      9  O   UNL     1       7.042   5.344  19.977  0.00  0.00    +0.000 OA
ATOM     10  N   UNL     1       5.405   5.292  18.373  0.00  0.00    +0.000 N 
ATOM     11  H   UNL     1       5.149   5.622  17.448  0.00  0.00    +0.000 HD
ENDBRANCH   1  10
BRANCH   3  12
ATOM     12  O   UNL     1       1.255   5.800  20.859  0.00  0.00    +0.000 OA
ATOM     13  H   UNL     1       1.714   6.547  21.285  0.00  0.00    +0.000 HD
ENDBRANCH   3  12
BRANCH   4  14
ATOM     14  O   UNL     1       0.674   2.999  20.596  0.00  0.00    +0.000 OA
ATOM     15  H   UNL     1       0.078   3.687  20.947  0.00  0.00    +0.000 HD
ENDBRANCH   4  14
BRANCH   5  16
ATOM     16  O   UNL     1       2.133   1.595  18.550  0.00  0.00    +0.000 OA
ATOM     17  H   UNL     1       2.855   0.941  18.422  0.00  0.00    +0.000 HD
ENDBRANCH   5  16
BRANCH   6  18
ATOM     18  O   UNL     1       3.035   3.770  17.208  0.00  0.00    +0.000 OA
ATOM     19  H   UNL     1       3.148   3.072  16.526  0.00  0.00    +0.000 HD
ENDBRANCH   6  18
TORSDOF 5
ENDMDL
MODEL 4
REMARK VINA RESULT:      -6.0      1.455      1.578
REMARK  Name = 
REMARK  6 active torsions:
REMARK  status: ('A' for Active; 'I' for Inactive)
REMARK    1  A    between atoms: C_1  and  C_2
REMARK    2  A    between atoms: N_4  and  C_5
REMARK    3  A    between atoms: C_7  and  O_8
REMARK    4  A    between atoms: C_9  and  O_10
REMARK    5  A    between atoms: C_11  and  O_12
REMARK    6  A    between atoms: C_13  and  O_14
REMARK                            x       y       z     vdW  Elec       q    Type
REMARK                         _______ _______ _______ _____ _____    ______ ____
ROOT
ATOM      1  C   UNL     1       3.789   5.174  17.614  0.00  0.00    +0.000 C 
ATOM      2  C   UNL     1       4.724   6.368  17.844  0.00  0.00    +0.000 C 
ATOM      3  C   UNL     1       5.698   6.594  16.694  0.00  0.00    +0.000 C 
ATOM      4  C   UNL     1       6.445   5.312  16.291  0.00  0.00    +0.000 C 
ATOM      5  C   UNL     1       5.442   4.188  15.970  0.00  0.00    +0.000 C 
ATOM      6  C   UNL     1       4.555   3.897  17.190  0.00  0.00    +0.000 C 
ENDROOT
BRANCH   1  10
ATOM      7  C   UNL     1       0.999   4.089  19.990  0.00  0.00    +0.000 C 
ATOM      8  C   UNL     1       1.711   4.238  18.684  0.00  0.00    +0.000 C 
ATOM      9  O   UNL     1       1.275   3.762  17.634  0.00  0.00    +0.000 OA
ATOM     10  N   UNL     1       2.885   4.954  18.750  0.00  0.00    +0.000 N 
ATOM     11  H   UNL     1       3.117   5.394  19.633  0.00  0.00    +0.000 HD
ENDBRANCH   1  10
BRANCH   3  12
ATOM     12  O   UNL     1       6.603   7.624  17.102  0.00  0.00    +0.000 OA
ATOM     13  H   UNL     1       7.182   7.252  17.793  0.00  0.00    +0.000 HD
ENDBRANCH   3  12
BRANCH   4  14
ATOM     14  O   UNL     1       7.270   5.618  15.157  0.00  0.00    +0.000 OA
ATOM     15  H   UNL     1       7.896   6.317  15.427  0.00  0.00    +0.000 HD
ENDBRANCH   4  14
BRANCH   5  16
ATOM     16  O   UNL     1       6.164   3.001  15.613  0.00  0.00    +0.000 OA
ATOM     17  H   UNL     1       7.105   3.280  15.561  0.00  0.00    +0.000 HD
ENDBRANCH   5  16
BRANCH   6  18
ATOM     18  O   UNL     1       5.432   3.375  18.196  0.00  0.00    +0.000 OA
ATOM     19  H   UNL     1       6.253   3.914  18.223  0.00  0.00    +0.000 HD
ENDBRANCH   6  18
TORSDOF 5
ENDMDL
MODEL 5
REMARK VINA RESULT:      -5.9      2.303      4.786
REMARK  Name = 
REMARK  6 active torsions:
REMARK  status: ('A' for Active; 'I' for Inactive)
REMARK    1  A    between atoms: C_1  and  C_2
REMARK    2  A    between atoms: N_4  and  C_5
REMARK    3  A    between atoms: C_7  and  O_8
REMARK    4  A    between atoms: C_9  and  O_10
REMARK    5  A    between atoms: C_11  and  O_12
REMARK    6  A    between atoms: C_13  and  O_14
REMARK                            x       y       z     vdW  Elec       q    Type
REMARK                         _______ _______ _______ _____ _____    ______ ____
ROOT
ATOM      1  C   UNL     1       4.440   4.737  18.411  0.00  0.00    +0.000 C 
ATOM      2  C   UNL     1       3.095   5.059  17.749  0.00  0.00    +0.000 C 
ATOM      3  C   UNL     1       2.002   4.056  18.098  0.00  0.00    +0.000 C 
ATOM      4  C   UNL     1       2.445   2.600  17.884  0.00  0.00    +0.000 C 
ATOM      5  C   UNL     1       3.743   2.317  18.666  0.00  0.00    +0.000 C 
ATOM      6  C   UNL     1       4.863   3.261  18.204  0.00  0.00    +0.000 C 
ENDROOT
BRANCH   1  10
ATOM      7  C   UNL     1       7.603   6.860  18.102  0.00  0.00    +0.000 C 
ATOM      8  C   UNL     1       6.661   5.881  18.725  0.00  0.00    +0.000 C 
ATOM      9  O   UNL     1       6.917   5.295  19.779  0.00  0.00    +0.000 OA
ATOM     10  N   UNL     1       5.487   5.695  18.032  0.00  0.00    +0.000 N 
ATOM     11  H   UNL     1       5.315   6.291  17.230  0.00  0.00    +0.000 HD
ENDBRANCH   1  10
BRANCH   3  12
ATOM     12  O   UNL     1       0.860   4.382  17.300  0.00  0.00    +0.000 OA
ATOM     13  H   UNL     1       0.955   5.308  17.011  0.00  0.00    +0.000 HD
ENDBRANCH   3  12
BRANCH   4  14
ATOM     14  O   UNL     1       1.376   1.744  18.316  0.00  0.00    +0.000 OA
ATOM     15  H   UNL     1       0.557   2.056  17.885  0.00  0.00    +0.000 HD
ENDBRANCH   4  14
BRANCH   5  16
ATOM     16  O   UNL     1       4.142   0.958  18.437  0.00  0.00    +0.000 OA
ATOM     17  H   UNL     1       4.507   0.651  19.295  0.00  0.00    +0.000 HD
ENDBRANCH   5  16
BRANCH   6  18
ATOM     18  O   UNL     1       5.132   2.912  16.840  0.00  0.00    +0.000 OA
ATOM     19  H   UNL     1       6.104   2.868  16.702  0.00  0.00    +0.000 HD
ENDBRANCH   6  18
TORSDOF 5
ENDMDL
MODEL 6
REMARK VINA RESULT:      -5.9      1.242      1.242
REMARK  Name = 
REMARK  6 active torsions:
REMARK  status: ('A' for Active; 'I' for Inactive)
REMARK    1  A    between atoms: C_1  and  C_2
REMARK    2  A    between atoms: N_4  and  C_5
REMARK    3  A    between atoms: C_7  and  O_8
REMARK    4  A    between atoms: C_9  and  O_10
REMARK    5  A    between atoms: C_11  and  O_12
REMARK    6  A    between atoms: C_13  and  O_14
REMARK                            x       y       z     vdW  Elec       q    Type
REMARK                         _______ _______ _______ _____ _____    ______ ____
ROOT
ATOM      1  C   UNL     1       4.480   4.044  17.763  0.00  0.00    +0.000 C 
ATOM      2  C   UNL     1       4.210   5.209  16.802  0.00  0.00    +0.000 C 
ATOM      3  C   UNL     1       5.465   5.702  16.093  0.00  0.00    +0.000 C 
ATOM      4  C   UNL     1       6.623   5.979  17.065  0.00  0.00    +0.000 C 
ATOM      5  C   UNL     1       6.911   4.731  17.922  0.00  0.00    +0.000 C 
ATOM      6  C   UNL     1       5.662   4.331  18.721  0.00  0.00    +0.000 C 
ENDROOT
BRANCH   1  10
ATOM      7  C   UNL     1       1.675   2.108  19.492  0.00  0.00    +0.000 C 
ATOM      8  C   UNL     1       2.927   2.297  18.696  0.00  0.00    +0.000 C 
ATOM      9  O   UNL     1       3.596   1.349  18.280  0.00  0.00    +0.000 OA
ATOM     10  N   UNL     1       3.263   3.610  18.461  0.00  0.00    +0.000 N 
ATOM     11  H   UNL     1       2.604   4.323  18.753  0.00  0.00    +0.000 HD
ENDBRANCH   1  10
BRANCH   3  12
ATOM     12  O   UNL     1       5.102   6.875  15.358  0.00  0.00    +0.000 OA
ATOM     13  H   UNL     1       4.172   6.775  15.082  0.00  0.00    +0.000 HD
ENDBRANCH   3  12
BRANCH   4  14
ATOM     14  O   UNL     1       7.771   6.359  16.290  0.00  0.00    +0.000 OA
ATOM     15  H   UNL     1       7.581   7.228  15.889  0.00  0.00    +0.000 HD
ENDBRANCH   4  14
BRANCH   5  16
ATOM     16  O   UNL     1       7.984   5.022  18.829  0.00  0.00    +0.000 OA
ATOM     17  H   UNL     1       8.744   4.490  18.506  0.00  0.00    +0.000 HD
ENDBRANCH   5  16
BRANCH   6  18
ATOM     18  O   UNL     1       5.426   5.403  19.642  0.00  0.00    +0.000 OA
ATOM     19  H   UNL     1       5.982   5.273  20.442  0.00  0.00    +0.000 HD
ENDBRANCH   6  18
TORSDOF 5
ENDMDL
MODEL 7
REMARK VINA RESULT:      -5.9      2.097      5.253
REMARK  Name = 
REMARK  6 active torsions:
REMARK  status: ('A' for Active; 'I' for Inactive)
REMARK    1  A    between atoms: C_1  and  C_2
REMARK    2  A    between atoms: N_4  and  C_5
REMARK    3  A    between atoms: C_7  and  O_8
REMARK    4  A    between atoms: C_9  and  O_10
REMARK    5  A    between atoms: C_11  and  O_12
REMARK    6  A    between atoms: C_13  and  O_14
REMARK                            x       y       z     vdW  Elec       q    Type
REMARK                         _______ _______ _______ _____ _____    ______ ____
ROOT
ATOM      1  C   UNL     1       4.552   3.541  19.298  0.00  0.00    +0.000 C 
ATOM      2  C   UNL     1       3.932   4.877  19.726  0.00  0.00    +0.000 C 
ATOM      3  C   UNL     1       2.588   4.714  20.425  0.00  0.00    +0.000 C 
ATOM      4  C   UNL     1       1.615   3.823  19.636  0.00  0.00    +0.000 C 
ATOM      5  C   UNL     1       2.264   2.458  19.337  0.00  0.00    +0.000 C 
ATOM      6  C   UNL     1       3.554   2.646  18.523  0.00  0.00    +0.000 C 
ENDROOT
BRANCH   1  10
ATOM      7  C   UNL     1       7.429   4.653  17.040  0.00  0.00    +0.000 C 
ATOM      8  C   UNL     1       6.022   4.588  17.543  0.00  0.00    +0.000 C 
ATOM      9  O   UNL     1       5.111   5.254  17.047  0.00  0.00    +0.000 OA
ATOM     10  N   UNL     1       5.829   3.723  18.595  0.00  0.00    +0.000 N 
ATOM     11  H   UNL     1       6.611   3.142  18.875  0.00  0.00    +0.000 HD
ENDBRANCH   1  10
BRANCH   3  12
ATOM     12  O   UNL     1       2.055   6.027  20.626  0.00  0.00    +0.000 OA
ATOM     13  H   UNL     1       2.083   6.492  19.769  0.00  0.00    +0.000 HD
ENDBRANCH   3  12
BRANCH   4  14
ATOM     14  O   UNL     1       0.419   3.674  20.417  0.00  0.00    +0.000 OA
ATOM     15  H   UNL     1      -0.325   4.014  19.884  0.00  0.00    +0.000 HD
ENDBRANCH   4  14
BRANCH   5  16
ATOM     16  O   UNL     1       1.343   1.654  18.588  0.00  0.00    +0.000 OA
ATOM     17  H   UNL     1       1.641   1.724  17.655  0.00  0.00    +0.000 HD
ENDBRANCH   5  16
BRANCH   6  18
ATOM     18  O   UNL     1       3.144   3.181  17.258  0.00  0.00    +0.000 OA
ATOM     19  H   UNL     1       3.490   4.096  17.164  0.00  0.00    +0.000 HD
ENDBRANCH   6  18
TORSDOF 5
ENDMDL
MODEL 8
REMARK VINA RESULT:      -5.9      2.333      5.306
REMARK  Name = 
REMARK  6 active torsions:
REMARK  status: ('A' for Active; 'I' for Inactive)
REMARK    1  A    between atoms: C_1  and  C_2
REMARK    2  A    between atoms: N_4  and  C_5
REMARK    3  A    between atoms: C_7  and  O_8
REMARK    4  A    between atoms: C_9  and  O_10
REMARK    5  A    between atoms: C_11  and  O_12
REMARK    6  A    between atoms: C_13  and  O_14
REMARK                            x       y       z     vdW  Elec       q    Type
REMARK                         _______ _______ _______ _____ _____    ______ ____
ROOT
ATOM      1  C   UNL     1       4.270   4.157  18.839  0.00  0.00    +0.000 C 
ATOM      2  C   UNL     1       3.072   3.977  17.898  0.00  0.00    +0.000 C 
ATOM      3  C   UNL     1       1.738   3.934  18.633  0.00  0.00    +0.000 C 
ATOM      4  C   UNL     1       1.739   2.939  19.805  0.00  0.00    +0.000 C 
ATOM      5  C   UNL     1       2.904   3.247  20.766  0.00  0.00    +0.000 C 
ATOM      6  C   UNL     1       4.246   3.161  20.024  0.00  0.00    +0.000 C 
ENDROOT
BRANCH   1  10
ATOM      7  C   UNL     1       7.895   4.549  17.690  0.00  0.00    +0.000 C 
ATOM      8  C   UNL     1       6.704   4.743  18.574  0.00  0.00    +0.000 C 
ATOM      9  O   UNL     1       6.759   5.382  19.627  0.00  0.00    +0.000 OA
ATOM     10  N   UNL     1       5.547   4.159  18.113  0.00  0.00    +0.000 N 
ATOM     11  H   UNL     1       5.569   3.739  17.190  0.00  0.00    +0.000 HD
ENDBRANCH   1  10
BRANCH   3  12
ATOM     12  O   UNL     1       0.734   3.608  17.667  0.00  0.00    +0.000 OA
ATOM     13  H   UNL     1      -0.135   3.772  18.077  0.00  0.00    +0.000 HD
ENDBRANCH   3  12
BRANCH   4  14
ATOM     14  O   UNL     1       0.471   3.037  20.470  0.00  0.00    +0.000 OA
ATOM     15  H   UNL     1       0.152   3.953  20.363  0.00  0.00    +0.000 HD
ENDBRANCH   4  14
BRANCH   5  16
ATOM     16  O   UNL     1       2.891   2.296  21.840  0.00  0.00    +0.000 OA
ATOM     17  H   UNL     1       3.447   1.550  21.527  0.00  0.00    +0.000 HD
ENDBRANCH   5  16
BRANCH   6  18
ATOM     18  O   UNL     1       4.395   1.788  19.643  0.00  0.00    +0.000 OA
ATOM     19  H   UNL     1       3.510   1.363  19.605  0.00  0.00    +0.000 HD
ENDBRANCH   6  18
TORSDOF 5
ENDMDL
MODEL 9
REMARK VINA RESULT:      -5.8      2.751      4.616
REMARK  Name = 
REMARK  6 active torsions:
REMARK  status: ('A' for Active; 'I' for Inactive)
REMARK    1  A    between atoms: C_1  and  C_2
REMARK    2  A    between atoms: N_4  and  C_5
REMARK    3  A    between atoms: C_7  and  O_8
REMARK    4  A    between atoms: C_9  and  O_10
REMARK    5  A    between atoms: C_11  and  O_12
REMARK    6  A    between atoms: C_13  and  O_14
REMARK                            x       y       z     vdW  Elec       q    Type
REMARK                         _______ _______ _______ _____ _____    ______ ____
ROOT
ATOM      1  C   UNL     1       2.401   5.211  19.586  0.00  0.00    +0.000 C 
ATOM      2  C   UNL     1       3.901   4.915  19.708  0.00  0.00    +0.000 C 
ATOM      3  C   UNL     1       4.372   3.821  18.757  0.00  0.00    +0.000 C 
ATOM      4  C   UNL     1       3.499   2.557  18.831  0.00  0.00    +0.000 C 
ATOM      5  C   UNL     1       2.020   2.915  18.591  0.00  0.00    +0.000 C 
ATOM      6  C   UNL     1       1.538   3.927  19.642  0.00  0.00    +0.000 C 
ENDROOT
BRANCH   1  10
ATOM      7  C   UNL     1       1.290   8.419  21.343  0.00  0.00    +0.000 C 
ATOM      8  C   UNL     1       1.821   7.576  20.228  0.00  0.00    +0.000 C 
ATOM      9  O   UNL     1       2.113   8.044  19.126  0.00  0.00    +0.000 OA
ATOM     10  N   UNL     1       1.963   6.242  20.536  0.00  0.00    +0.000 N 
ATOM     11  H   UNL     1       1.795   5.962  21.496  0.00  0.00    +0.000 HD
ENDBRANCH   1  10
BRANCH   3  12
ATOM     12  O   UNL     1       5.737   3.538  19.081  0.00  0.00    +0.000 OA
ATOM     13  H   UNL     1       6.261   4.333  18.873  0.00  0.00    +0.000 HD
ENDBRANCH   3  12
BRANCH   4  14
ATOM     14  O   UNL     1       3.980   1.630  17.846  0.00  0.00    +0.000 OA
ATOM     15  H   UNL     1       4.691   1.104  18.258  0.00  0.00    +0.000 HD
ENDBRANCH   4  14
BRANCH   5  16
ATOM     16  O   UNL     1       1.228   1.723  18.681  0.00  0.00    +0.000 OA
ATOM     17  H   UNL     1       1.106   1.569  19.643  0.00  0.00    +0.000 HD
ENDBRANCH   5  16
BRANCH   6  18
ATOM     18  O   UNL     1       1.585   3.240  20.898  0.00  0.00    +0.000 OA
ATOM     19  H   UNL     1       2.513   3.216  21.221  0.00  0.00    +0.000 HD
ENDBRANCH   6  18
TORSDOF 5
ENDMDL
