MODEL 1
REMARK VINA RESULT:      -8.5      0.000      0.000
REMARK  Name = 
REMARK  10 active torsions:
REMARK  status: ('A' for Active; 'I' for Inactive)
REMARK    1  A    between atoms: C_1  and  C_2
REMARK    2  A    between atoms: C_2  and  O_3
REMARK    3  A    between atoms: O_3  and  C_4
REMARK    4  A    between atoms: C_6  and  O_7
REMARK    5  A    between atoms: O_7  and  C_8
REMARK    6  A    between atoms: C_8  and  C_9
REMARK    7  A    between atoms: N_12  and  C_13
REMARK    8  A    between atoms: C_13  and  N_15
REMARK    9  A    between atoms: C_16  and  C_18
REMARK   10  A    between atoms: C_21  and  C_22
REMARK                            x       y       z     vdW  Elec       q    Type
REMARK                         _______ _______ _______ _____ _____    ______ ____
ROOT
ATOM      1  C   UNL     1       3.558   3.757  17.890  0.00  0.00    +0.000 C 
ATOM      2  S   UNL     1       3.636   2.765  19.241  0.00  0.00    +0.000 S 
ENDROOT
BRANCH   1   8
ATOM      3  C   UNL     1       6.245   4.096  13.940  0.00  0.00    +0.000 A 
ATOM      4  C   UNL     1       7.112   5.027  14.449  0.00  0.00    +0.000 A 
ATOM      5  C   UNL     1       6.890   5.347  15.755  0.00  0.00    +0.000 A 
ATOM      6  N   UNL     1       5.856   4.881  16.464  0.00  0.00    +0.000 NA
ATOM      7  C   UNL     1       5.029   4.024  15.874  0.00  0.00    +0.000 A 
ATOM      8  N   UNL     1       3.939   3.515  16.590  0.00  0.00    +0.000 N 
ATOM      9  N   UNL     1       5.190   3.583  14.614  0.00  0.00    +0.000 NA
ATOM     10  H   UNL     1       3.368   2.883  16.036  0.00  0.00    +0.000 HD
BRANCH   3  11
ATOM     11  O   UNL     1       6.526   3.680  12.650  0.00  0.00    +0.000 OA
BRANCH  11  13
ATOM     12  C   UNL     1       5.868   1.750  11.405  0.00  0.00    +0.000 C 
ATOM     13  C   UNL     1       5.414   3.083  11.983  0.00  0.00    +0.000 C 
ENDBRANCH  11  13
ENDBRANCH   3  11
BRANCH   5  14
ATOM     14  O   UNL     1       7.810   6.160  16.381  0.00  0.00    +0.000 OA
BRANCH  14  15
ATOM     15  C   UNL     1       7.293   6.691  17.608  0.00  0.00    +0.000 C 
ATOM     16  C   UNL     1       7.717   8.140  17.724  0.00  0.00    +0.000 C 
ENDBRANCH  14  15
ENDBRANCH   5  14
ENDBRANCH   1   8
BRANCH   1  17
ATOM     17  N   UNL     1       3.004   4.997  18.142  0.00  0.00    +0.000 N 
ATOM     18  C   UNL     1       3.489   6.030  18.930  0.00  0.00    +0.000 C 
ATOM     19  O   UNL     1       4.509   5.909  19.608  0.00  0.00    +0.000 OA
ATOM     20  H   UNL     1       2.135   5.180  17.661  0.00  0.00    +0.000 HD
BRANCH  18  21
ATOM     21  C   UNL     1       2.701   7.246  18.882  0.00  0.00    +0.000 A 
ATOM     22  C   UNL     1       2.398   8.052  17.808  0.00  0.00    +0.000 A 
ATOM     23  C   UNL     1       1.542   9.066  18.291  0.00  0.00    +0.000 A 
ATOM     24  C   UNL     1       1.385   8.859  19.648  0.00  0.00    +0.000 A 
ATOM     25  O   UNL     1       2.095   7.737  20.011  0.00  0.00    +0.000 OA
BRANCH  24  26
ATOM     26  C   UNL     1       0.653   9.542  20.721  0.00  0.00    +0.000 A 
ATOM     27  C   UNL     1       0.102   8.770  21.763  0.00  0.00    +0.000 A 
ATOM     28  C   UNL     1      -0.590   9.360  22.826  0.00  0.00    +0.000 A 
ATOM     29  C   UNL     1      -0.753  10.740  22.870  0.00  0.00    +0.000 A 
ATOM     30  C   UNL     1      -0.236  11.525  21.843  0.00  0.00    +0.000 A 
ATOM     31  C   UNL     1       0.459  10.937  20.776  0.00  0.00    +0.000 A 
ATOM     32 CL   UNL     1       1.072  12.036  19.585  0.00  0.00    +0.000 Cl
ENDBRANCH  24  26
ENDBRANCH  18  21
ENDBRANCH   1  17
TORSDOF 8
ENDMDL
MODEL 2
REMARK VINA RESULT:      -8.1      1.877      2.497
REMARK  Name = 
REMARK  10 active torsions:
REMARK  status: ('A' for Active; 'I' for Inactive)
REMARK    1  A    between atoms: C_1  and  C_2
REMARK    2  A    between atoms: C_2  and  O_3
REMARK    3  A    between atoms: O_3  and  C_4
REMARK    4  A    between atoms: C_6  and  O_7
REMARK    5  A    between atoms: O_7  and  C_8
REMARK    6  A    between atoms: C_8  and  C_9
REMARK    7  A    between atoms: N_12  and  C_13
REMARK    8  A    between atoms: C_13  and  N_15
REMARK    9  A    between atoms: C_16  and  C_18
REMARK   10  A    between atoms: C_21  and  C_22
REMARK                            x       y       z     vdW  Elec       q    Type
REMARK                         _______ _______ _______ _____ _____    ______ ____
ROOT
ATOM      1  C   UNL     1       2.884   4.304  18.752  0.00  0.00    +0.000 C 
ATOM      2  S   UNL     1       2.751   3.000  19.800  0.00  0.00    +0.000 S 
ENDROOT
BRANCH   1   8
ATOM      3  C   UNL     1       6.210   4.565  15.316  0.00  0.00    +0.000 A 
ATOM      4  C   UNL     1       7.274   4.692  16.171  0.00  0.00    +0.000 A 
ATOM      5  C   UNL     1       6.946   4.612  17.491  0.00  0.00    +0.000 A 
ATOM      6  N   UNL     1       5.688   4.522  17.936  0.00  0.00    +0.000 NA
ATOM      7  C   UNL     1       4.710   4.461  17.038  0.00  0.00    +0.000 A 
ATOM      8  N   UNL     1       3.382   4.363  17.471  0.00  0.00    +0.000 N 
ATOM      9  N   UNL     1       4.920   4.461  15.710  0.00  0.00    +0.000 NA
ATOM     10  H   UNL     1       2.721   4.340  16.701  0.00  0.00    +0.000 HD
BRANCH   3  11
ATOM     11  O   UNL     1       6.542   4.534  13.973  0.00  0.00    +0.000 OA
BRANCH  11  13
ATOM     12  C   UNL     1       6.524   3.253  11.956  0.00  0.00    +0.000 C 
ATOM     13  C   UNL     1       5.741   3.636  13.204  0.00  0.00    +0.000 C 
ENDBRANCH  11  13
ENDBRANCH   3  11
BRANCH   5  14
ATOM     14  O   UNL     1       7.977   4.578  18.407  0.00  0.00    +0.000 OA
BRANCH  14  15
ATOM     15  C   UNL     1       7.884   5.661  19.342  0.00  0.00    +0.000 C 
ATOM     16  C   UNL     1       8.087   6.963  18.596  0.00  0.00    +0.000 C 
ENDBRANCH  14  15
ENDBRANCH   5  14
ENDBRANCH   1   8
BRANCH   1  17
ATOM     17  N   UNL     1       2.392   5.486  19.270  0.00  0.00    +0.000 N 
ATOM     18  C   UNL     1       2.684   6.791  18.905  0.00  0.00    +0.000 C 
ATOM     19  O   UNL     1       3.543   7.056  18.065  0.00  0.00    +0.000 OA
ATOM     20  H   UNL     1       1.704   5.376  20.002  0.00  0.00    +0.000 HD
BRANCH  18  21
ATOM     21  C   UNL     1       1.897   7.799  19.588  0.00  0.00    +0.000 A 
ATOM     22  C   UNL     1       1.385   7.793  20.867  0.00  0.00    +0.000 A 
ATOM     23  C   UNL     1       0.760   9.044  21.059  0.00  0.00    +0.000 A 
ATOM     24  C   UNL     1       0.883   9.750  19.877  0.00  0.00    +0.000 A 
ATOM     25  O   UNL     1       1.586   8.986  18.974  0.00  0.00    +0.000 OA
BRANCH  24  26
ATOM     26  C   UNL     1       0.452  11.075  19.414  0.00  0.00    +0.000 A 
ATOM     27  C   UNL     1       1.213  12.201  19.784  0.00  0.00    +0.000 A 
ATOM     28  C   UNL     1       0.869  13.490  19.360  0.00  0.00    +0.000 A 
ATOM     29  C   UNL     1      -0.249  13.683  18.557  0.00  0.00    +0.000 A 
ATOM     30  C   UNL     1      -1.030  12.589  18.193  0.00  0.00    +0.000 A 
ATOM     31  C   UNL     1      -0.688  11.296  18.616  0.00  0.00    +0.000 A 
ATOM     32 CL   UNL     1      -1.731  10.027  18.064  0.00  0.00    +0.000 Cl
ENDBRANCH  24  26
ENDBRANCH  18  21
ENDBRANCH   1  17
TORSDOF 8
ENDMDL
MODEL 3
REMARK VINA RESULT:      -7.9      5.762      9.813
REMARK  Name = 
REMARK  10 active torsions:
REMARK  status: ('A' for Active; 'I' for Inactive)
REMARK    1  A    between atoms: C_1  and  C_2
REMARK    2  A    between atoms: C_2  and  O_3
REMARK    3  A    between atoms: O_3  and  C_4
REMARK    4  A    between atoms: C_6  and  O_7
REMARK    5  A    between atoms: O_7  and  C_8
REMARK    6  A    between atoms: C_8  and  C_9
REMARK    7  A    between atoms: N_12  and  C_13
REMARK    8  A    between atoms: C_13  and  N_15
REMARK    9  A    between atoms: C_16  and  C_18
REMARK   10  A    between atoms: C_21  and  C_22
REMARK                            x       y       z     vdW  Elec       q    Type
REMARK                         _______ _______ _______ _____ _____    ______ ____
ROOT
ATOM      1  C   UNL     1       0.442  12.352  19.931  0.00  0.00    +0.000 C 
ATOM      2  S   UNL     1       1.568  13.594  19.994  0.00  0.00    +0.000 S 
ENDROOT
BRANCH   1   8
ATOM      3  C   UNL     1      -4.183  11.860  18.788  0.00  0.00    +0.000 A 
ATOM      4  C   UNL     1      -3.961  11.526  17.477  0.00  0.00    +0.000 A 
ATOM      5  C   UNL     1      -2.645  11.414  17.142  0.00  0.00    +0.000 A 
ATOM      6  N   UNL     1      -1.642  11.704  17.978  0.00  0.00    +0.000 NA
ATOM      7  C   UNL     1      -1.949  12.076  19.217  0.00  0.00    +0.000 A 
ATOM      8  N   UNL     1      -0.922  12.383  20.118  0.00  0.00    +0.000 N 
ATOM      9  N   UNL     1      -3.208  12.153  19.679  0.00  0.00    +0.000 NA
ATOM     10  H   UNL     1      -1.272  12.669  21.027  0.00  0.00    +0.000 HD
BRANCH   3  11
ATOM     11  O   UNL     1      -5.513  11.869  19.170  0.00  0.00    +0.000 OA
BRANCH  11  13
ATOM     12  C   UNL     1      -6.917   9.935  19.184  0.00  0.00    +0.000 C 
ATOM     13  C   UNL     1      -6.355  11.070  18.338  0.00  0.00    +0.000 C 
ENDBRANCH  11  13
ENDBRANCH   3  11
BRANCH   5  14
ATOM     14  O   UNL     1      -2.342  10.934  15.885  0.00  0.00    +0.000 OA
BRANCH  14  15
ATOM     15  C   UNL     1      -3.225   9.871  15.502  0.00  0.00    +0.000 C 
ATOM     16  C   UNL     1      -3.561  10.027  14.034  0.00  0.00    +0.000 C 
ENDBRANCH  14  15
ENDBRANCH   5  14
ENDBRANCH   1   8
BRANCH   1  17
ATOM     17  N   UNL     1       0.987  11.121  19.623  0.00  0.00    +0.000 N 
ATOM     18  C   UNL     1       0.841   9.909  20.280  0.00  0.00    +0.000 C 
ATOM     19  O   UNL     1       0.224   9.812  21.340  0.00  0.00    +0.000 OA
ATOM     20  H   UNL     1       1.552  11.104  18.785  0.00  0.00    +0.000 HD
BRANCH  18  21
ATOM     21  C   UNL     1       1.469   8.784  19.616  0.00  0.00    +0.000 A 
ATOM     22  C   UNL     1       2.068   8.720  18.378  0.00  0.00    +0.000 A 
ATOM     23  C   UNL     1       2.582   7.412  18.243  0.00  0.00    +0.000 A 
ATOM     24  C   UNL     1       2.245   6.719  19.389  0.00  0.00    +0.000 A 
ATOM     25  O   UNL     1       1.564   7.563  20.236  0.00  0.00    +0.000 OA
BRANCH  24  26
ATOM     26  C   UNL     1       2.459   5.348  19.870  0.00  0.00    +0.000 A 
ATOM     27  C   UNL     1       1.419   4.708  20.573  0.00  0.00    +0.000 A 
ATOM     28  C   UNL     1       1.551   3.396  21.041  0.00  0.00    +0.000 A 
ATOM     29  C   UNL     1       2.730   2.693  20.821  0.00  0.00    +0.000 A 
ATOM     30  C   UNL     1       3.780   3.309  20.147  0.00  0.00    +0.000 A 
ATOM     31  C   UNL     1       3.652   4.624  19.676  0.00  0.00    +0.000 A 
ATOM     32 CL   UNL     1       5.027   5.254  18.829  0.00  0.00    +0.000 Cl
ENDBRANCH  24  26
ENDBRANCH  18  21
ENDBRANCH   1  17
TORSDOF 8
ENDMDL
MODEL 4
REMARK VINA RESULT:      -7.8      1.099      1.157
REMARK  Name = 
REMARK  10 active torsions:
REMARK  status: ('A' for Active; 'I' for Inactive)
REMARK    1  A    between atoms: C_1  and  C_2
REMARK    2  A    between atoms: C_2  and  O_3
REMARK    3  A    between atoms: O_3  and  C_4
REMARK    4  A    between atoms: C_6  and  O_7
REMARK    5  A    between atoms: O_7  and  C_8
REMARK    6  A    between atoms: C_8  and  C_9
REMARK    7  A    between atoms: N_12  and  C_13
REMARK    8  A    between atoms: C_13  and  N_15
REMARK    9  A    between atoms: C_16  and  C_18
REMARK   10  A    between atoms: C_21  and  C_22
REMARK                            x       y       z     vdW  Elec       q    Type
REMARK                         _______ _______ _______ _____ _____    ______ ____
ROOT
ATOM      1  C   UNL     1       2.524   3.807  18.152  0.00  0.00    +0.000 C 
ATOM      2  S   UNL     1       1.860   2.709  19.232  0.00  0.00    +0.000 S 
ENDROOT
BRANCH   1   8
ATOM      3  C   UNL     1       6.261   4.442  15.223  0.00  0.00    +0.000 A 
ATOM      4  C   UNL     1       6.796   5.496  15.918  0.00  0.00    +0.000 A 
ATOM      5  C   UNL     1       6.131   5.807  17.067  0.00  0.00    +0.000 A 
ATOM      6  N   UNL     1       4.993   5.214  17.445  0.00  0.00    +0.000 NA
ATOM      7  C   UNL     1       4.513   4.238  16.682  0.00  0.00    +0.000 A 
ATOM      8  N   UNL     1       3.326   3.595  17.053  0.00  0.00    +0.000 N 
ATOM      9  N   UNL     1       5.120   3.800  15.566  0.00  0.00    +0.000 NA
ATOM     10  H   UNL     1       3.045   2.879  16.390  0.00  0.00    +0.000 HD
BRANCH   3  11
ATOM     11  O   UNL     1       6.988   4.045  14.115  0.00  0.00    +0.000 OA
BRANCH  11  13
ATOM     12  C   UNL     1       6.916   3.847  11.735  0.00  0.00    +0.000 C 
ATOM     13  C   UNL     1       6.180   3.568  13.038  0.00  0.00    +0.000 C 
ENDBRANCH  11  13
ENDBRANCH   3  11
BRANCH   5  14
ATOM     14  O   UNL     1       6.694   6.754  17.896  0.00  0.00    +0.000 OA
BRANCH  14  15
ATOM     15  C   UNL     1       7.642   7.569  17.195  0.00  0.00    +0.000 C 
ATOM     16  C   UNL     1       8.123   8.660  18.127  0.00  0.00    +0.000 C 
ENDBRANCH  14  15
ENDBRANCH   5  14
ENDBRANCH   1   8
BRANCH   1  17
ATOM     17  N   UNL     1       2.183   5.120  18.413  0.00  0.00    +0.000 N 
ATOM     18  C   UNL     1       2.641   5.962  19.415  0.00  0.00    +0.000 C 
ATOM     19  O   UNL     1       3.402   5.569  20.298  0.00  0.00    +0.000 OA
ATOM     20  H   UNL     1       1.524   5.525  17.762  0.00  0.00    +0.000 HD
BRANCH  18  21
ATOM     21  C   UNL     1       2.152   7.324  19.329  0.00  0.00    +0.000 A 
ATOM     22  C   UNL     1       2.238   8.222  18.288  0.00  0.00    +0.000 A 
ATOM     23  C   UNL     1       1.540   9.380  18.693  0.00  0.00    +0.000 A 
ATOM     24  C   UNL     1       1.086   9.157  19.978  0.00  0.00    +0.000 A 
ATOM     25  O   UNL     1       1.458   7.890  20.368  0.00  0.00    +0.000 OA
BRANCH  24  26
ATOM     26  C   UNL     1       0.322   9.941  20.957  0.00  0.00    +0.000 A 
ATOM     27  C   UNL     1      -0.012   9.345  22.189  0.00  0.00    +0.000 A 
ATOM     28  C   UNL     1      -0.721  10.043  23.173  0.00  0.00    +0.000 A 
ATOM     29  C   UNL     1      -1.117  11.356  22.945  0.00  0.00    +0.000 A 
ATOM     30  C   UNL     1      -0.818  11.962  21.728  0.00  0.00    +0.000 A 
ATOM     31  C   UNL     1      -0.107  11.265  20.739  0.00  0.00    +0.000 A 
ATOM     32 CL   UNL     1       0.221  12.152  19.287  0.00  0.00    +0.000 Cl
ENDBRANCH  24  26
ENDBRANCH  18  21
ENDBRANCH   1  17
TORSDOF 8
ENDMDL
MODEL 5
REMARK VINA RESULT:      -7.8      4.657      7.271
REMARK  Name = 
REMARK  10 active torsions:
REMARK  status: ('A' for Active; 'I' for Inactive)
REMARK    1  A    between atoms: C_1  and  C_2
REMARK    2  A    between atoms: C_2  and  O_3
REMARK    3  A    between atoms: O_3  and  C_4
REMARK    4  A    between atoms: C_6  and  O_7
REMARK    5  A    between atoms: O_7  and  C_8
REMARK    6  A    between atoms: C_8  and  C_9
REMARK    7  A    between atoms: N_12  and  C_13
REMARK    8  A    between atoms: C_13  and  N_15
REMARK    9  A    between atoms: C_16  and  C_18
REMARK   10  A    between atoms: C_21  and  C_22
REMARK                            x       y       z     vdW  Elec       q    Type
REMARK                         _______ _______ _______ _____ _____    ______ ____
ROOT
ATOM      1  C   UNL     1       7.990   6.523  18.382  0.00  0.00    +0.000 C 
ATOM      2  S   UNL     1       7.483   5.704  19.756  0.00  0.00    +0.000 S 
ENDROOT
BRANCH   1   8
ATOM      3  C   UNL     1       6.373   4.293  14.465  0.00  0.00    +0.000 A 
ATOM      4  C   UNL     1       5.355   3.631  15.100  0.00  0.00    +0.000 A 
ATOM      5  C   UNL     1       5.222   3.940  16.420  0.00  0.00    +0.000 A 
ATOM      6  N   UNL     1       6.068   4.737  17.081  0.00  0.00    +0.000 NA
ATOM      7  C   UNL     1       7.064   5.295  16.399  0.00  0.00    +0.000 A 
ATOM      8  N   UNL     1       7.964   6.138  17.061  0.00  0.00    +0.000 N 
ATOM      9  N   UNL     1       7.251   5.118  15.080  0.00  0.00    +0.000 NA
ATOM     10  H   UNL     1       8.691   6.493  16.447  0.00  0.00    +0.000 HD
BRANCH   3  11
ATOM     11  O   UNL     1       6.450   4.073  13.101  0.00  0.00    +0.000 OA
BRANCH  11  13
ATOM     12  C   UNL     1       5.687   2.362  11.617  0.00  0.00    +0.000 C 
ATOM     13  C   UNL     1       5.269   3.496  12.544  0.00  0.00    +0.000 C 
ENDBRANCH  11  13
ENDBRANCH   3  11
BRANCH   5  14
ATOM     14  O   UNL     1       4.129   3.432  17.091  0.00  0.00    +0.000 OA
BRANCH  14  15
ATOM     15  C   UNL     1       3.502   4.431  17.906  0.00  0.00    +0.000 C 
ATOM     16  C   UNL     1       2.010   4.392  17.655  0.00  0.00    +0.000 C 
ENDBRANCH  14  15
ENDBRANCH   5  14
ENDBRANCH   1   8
BRANCH   1  17
ATOM     17  N   UNL     1       8.488   7.786  18.639  0.00  0.00    +0.000 N 
ATOM     18  C   UNL     1       8.161   8.995  18.043  0.00  0.00    +0.000 C 
ATOM     19  O   UNL     1       7.387   9.063  17.089  0.00  0.00    +0.000 OA
ATOM     20  H   UNL     1       9.168   7.831  19.385  0.00  0.00    +0.000 HD
BRANCH  18  21
ATOM     21  C   UNL     1       8.800  10.152  18.638  0.00  0.00    +0.000 A 
ATOM     22  C   UNL     1       9.447  10.271  19.848  0.00  0.00    +0.000 A 
ATOM     23  C   UNL     1       9.949  11.589  19.911  0.00  0.00    +0.000 A 
ATOM     24  C   UNL     1       9.557  12.234  18.754  0.00  0.00    +0.000 A 
ATOM     25  O   UNL     1       8.854  11.349  17.968  0.00  0.00    +0.000 OA
BRANCH  24  26
ATOM     26  C   UNL     1       9.733  13.587  18.212  0.00  0.00    +0.000 A 
ATOM     27  C   UNL     1       8.714  14.537  18.420  0.00  0.00    +0.000 A 
ATOM     28  C   UNL     1       8.827  15.849  17.947  0.00  0.00    +0.000 A 
ATOM     29  C   UNL     1       9.964  16.241  17.249  0.00  0.00    +0.000 A 
ATOM     30  C   UNL     1      10.977  15.317  17.012  0.00  0.00    +0.000 A 
ATOM     31  C   UNL     1      10.867  14.001  17.485  0.00  0.00    +0.000 A 
ATOM     32 CL   UNL     1      12.215  12.967  17.143  0.00  0.00    +0.000 Cl
ENDBRANCH  24  26
ENDBRANCH  18  21
ENDBRANCH   1  17
TORSDOF 8
ENDMDL
MODEL 6
REMARK VINA RESULT:      -7.6      4.299      7.273
REMARK  Name = 
REMARK  10 active torsions:
REMARK  status: ('A' for Active; 'I' for Inactive)
REMARK    1  A    between atoms: C_1  and  C_2
REMARK    2  A    between atoms: C_2  and  O_3
REMARK    3  A    between atoms: O_3  and  C_4
REMARK    4  A    between atoms: C_6  and  O_7
REMARK    5  A    between atoms: O_7  and  C_8
REMARK    6  A    between atoms: C_8  and  C_9
REMARK    7  A    between atoms: N_12  and  C_13
REMARK    8  A    between atoms: C_13  and  N_15
REMARK    9  A    between atoms: C_16  and  C_18
REMARK   10  A    between atoms: C_21  and  C_22
REMARK                            x       y       z     vdW  Elec       q    Type
REMARK                         _______ _______ _______ _____ _____    ______ ____
ROOT
ATOM      1  C   UNL     1       8.020   6.584  18.456  0.00  0.00    +0.000 C 
ATOM      2  S   UNL     1       7.856   5.642  19.834  0.00  0.00    +0.000 S 
ENDROOT
BRANCH   1   8
ATOM      3  C   UNL     1       5.613   4.573  14.835  0.00  0.00    +0.000 A 
ATOM      4  C   UNL     1       4.802   3.803  15.627  0.00  0.00    +0.000 A 
ATOM      5  C   UNL     1       4.974   3.998  16.965  0.00  0.00    +0.000 A 
ATOM      6  N   UNL     1       5.919   4.791  17.481  0.00  0.00    +0.000 NA
ATOM      7  C   UNL     1       6.701   5.460  16.639  0.00  0.00    +0.000 A 
ATOM      8  N   UNL     1       7.697   6.303  17.147  0.00  0.00    +0.000 N 
ATOM      9  N   UNL     1       6.577   5.400  15.303  0.00  0.00    +0.000 NA
ATOM     10  H   UNL     1       8.243   6.749  16.416  0.00  0.00    +0.000 HD
BRANCH   3  11
ATOM     11  O   UNL     1       5.373   4.467  13.477  0.00  0.00    +0.000 OA
BRANCH  11  13
ATOM     12  C   UNL     1       5.389   2.793  11.772  0.00  0.00    +0.000 C 
ATOM     13  C   UNL     1       6.220   3.527  12.815  0.00  0.00    +0.000 C 
ENDBRANCH  11  13
ENDBRANCH   3  11
BRANCH   5  14
ATOM     14  O   UNL     1       4.093   3.373  17.822  0.00  0.00    +0.000 OA
BRANCH  14  15
ATOM     15  C   UNL     1       2.740   3.489  17.361  0.00  0.00    +0.000 C 
ATOM     16  C   UNL     1       2.108   4.697  18.020  0.00  0.00    +0.000 C 
ENDBRANCH  14  15
ENDBRANCH   5  14
ENDBRANCH   1   8
BRANCH   1  17
ATOM     17  N   UNL     1       8.543   7.839  18.698  0.00  0.00    +0.000 N 
ATOM     18  C   UNL     1       8.225   9.051  18.105  0.00  0.00    +0.000 C 
ATOM     19  O   UNL     1       7.433   9.129  17.166  0.00  0.00    +0.000 OA
ATOM     20  H   UNL     1       9.239   7.875  19.430  0.00  0.00    +0.000 HD
BRANCH  18  21
ATOM     21  C   UNL     1       8.895  10.199  18.682  0.00  0.00    +0.000 A 
ATOM     22  C   UNL     1       9.532  10.323  19.897  0.00  0.00    +0.000 A 
ATOM     23  C   UNL     1      10.076  11.625  19.939  0.00  0.00    +0.000 A 
ATOM     24  C   UNL     1       9.718  12.257  18.763  0.00  0.00    +0.000 A 
ATOM     25  O   UNL     1       8.995  11.379  17.989  0.00  0.00    +0.000 OA
BRANCH  24  26
ATOM     26  C   UNL     1       9.944  13.592  18.196  0.00  0.00    +0.000 A 
ATOM     27  C   UNL     1      11.125  13.825  17.465  0.00  0.00    +0.000 A 
ATOM     28  C   UNL     1      11.393  15.069  16.881  0.00  0.00    +0.000 A 
ATOM     29  C   UNL     1      10.484  16.112  17.019  0.00  0.00    +0.000 A 
ATOM     30  C   UNL     1       9.319  15.915  17.754  0.00  0.00    +0.000 A 
ATOM     31  C   UNL     1       9.047  14.669  18.340  0.00  0.00    +0.000 A 
ATOM     32 CL   UNL     1       7.546  14.557  19.199  0.00  0.00    +0.000 Cl
ENDBRANCH  24  26
ENDBRANCH  18  21
ENDBRANCH   1  17
TORSDOF 8
ENDMDL
MODEL 7
REMARK VINA RESULT:      -7.6      1.577      2.265
REMARK  Name = 
REMARK  10 active torsions:
REMARK  status: ('A' for Active; 'I' for Inactive)
REMARK    1  A    between atoms: C_1  and  C_2
REMARK    2  A    between atoms: C_2  and  O_3
REMARK    3  A    between atoms: O_3  and  C_4
REMARK    4  A    between atoms: C_6  and  O_7
REMARK    5  A    between atoms: O_7  and  C_8
REMARK    6  A    between atoms: C_8  and  C_9
REMARK    7  A    between atoms: N_12  and  C_13
REMARK    8  A    between atoms: C_13  and  N_15
REMARK    9  A    between atoms: C_16  and  C_18
REMARK   10  A    between atoms: C_21  and  C_22
REMARK                            x       y       z     vdW  Elec       q    Type
REMARK                         _______ _______ _______ _____ _____    ______ ____
ROOT
ATOM      1  C   UNL     1       4.132   3.286  18.968  0.00  0.00    +0.000 C 
ATOM      2  S   UNL     1       4.358   2.204  20.230  0.00  0.00    +0.000 S 
ENDROOT
BRANCH   1   8
ATOM      3  C   UNL     1       6.370   4.205  14.834  0.00  0.00    +0.000 A 
ATOM      4  C   UNL     1       7.126   5.240  15.320  0.00  0.00    +0.000 A 
ATOM      5  C   UNL     1       6.975   5.466  16.656  0.00  0.00    +0.000 A 
ATOM      6  N   UNL     1       6.093   4.815  17.421  0.00  0.00    +0.000 NA
ATOM      7  C   UNL     1       5.358   3.863  16.855  0.00  0.00    +0.000 A 
ATOM      8  N   UNL     1       4.427   3.159  17.630  0.00  0.00    +0.000 N 
ATOM      9  N   UNL     1       5.471   3.505  15.565  0.00  0.00    +0.000 NA
ATOM     10  H   UNL     1       3.913   2.469  17.092  0.00  0.00    +0.000 HD
BRANCH   3  11
ATOM     11  O   UNL     1       6.595   3.892  13.506  0.00  0.00    +0.000 OA
BRANCH  11  13
ATOM     12  C   UNL     1       5.711   2.543  11.743  0.00  0.00    +0.000 C 
ATOM     13  C   UNL     1       5.402   3.625  12.768  0.00  0.00    +0.000 C 
ENDBRANCH  11  13
ENDBRANCH   3  11
BRANCH   5  14
ATOM     14  O   UNL     1       7.812   6.389  17.247  0.00  0.00    +0.000 OA
BRANCH  14  15
ATOM     15  C   UNL     1       7.137   7.630  17.492  0.00  0.00    +0.000 C 
ATOM     16  C   UNL     1       8.158   8.656  17.935  0.00  0.00    +0.000 C 
ENDBRANCH  14  15
ENDBRANCH   5  14
ENDBRANCH   1   8
BRANCH   1  17
ATOM     17  N   UNL     1       3.538   4.472  19.352  0.00  0.00    +0.000 N 
ATOM     18  C   UNL     1       2.550   5.205  18.712  0.00  0.00    +0.000 C 
ATOM     19  O   UNL     1       2.120   4.889  17.603  0.00  0.00    +0.000 OA
ATOM     20  H   UNL     1       3.856   4.840  20.238  0.00  0.00    +0.000 HD
BRANCH  18  21
ATOM     21  C   UNL     1       2.075   6.355  19.455  0.00  0.00    +0.000 A 
ATOM     22  C   UNL     1       1.644   6.438  20.761  0.00  0.00    +0.000 A 
ATOM     23  C   UNL     1       1.359   7.798  21.008  0.00  0.00    +0.000 A 
ATOM     24  C   UNL     1       1.593   8.486  19.834  0.00  0.00    +0.000 A 
ATOM     25  O   UNL     1       2.036   7.599  18.879  0.00  0.00    +0.000 OA
BRANCH  24  26
ATOM     26  C   UNL     1       1.482   9.890  19.417  0.00  0.00    +0.000 A 
ATOM     27  C   UNL     1       2.215  10.322  18.294  0.00  0.00    +0.000 A 
ATOM     28  C   UNL     1       2.139  11.641  17.832  0.00  0.00    +0.000 A 
ATOM     29  C   UNL     1       1.329  12.562  18.488  0.00  0.00    +0.000 A 
ATOM     30  C   UNL     1       0.611  12.166  19.612  0.00  0.00    +0.000 A 
ATOM     31  C   UNL     1       0.684  10.845  20.077  0.00  0.00    +0.000 A 
ATOM     32 CL   UNL     1      -0.286  10.485  21.468  0.00  0.00    +0.000 Cl
ENDBRANCH  24  26
ENDBRANCH  18  21
ENDBRANCH   1  17
TORSDOF 8
ENDMDL
MODEL 8
REMARK VINA RESULT:      -7.5      4.431      9.430
REMARK  Name = 
REMARK  10 active torsions:
REMARK  status: ('A' for Active; 'I' for Inactive)
REMARK    1  A    between atoms: C_1  and  C_2
REMARK    2  A    between atoms: C_2  and  O_3
REMARK    3  A    between atoms: O_3  and  C_4
REMARK    4  A    between atoms: C_6  and  O_7
REMARK    5  A    between atoms: O_7  and  C_8
REMARK    6  A    between atoms: C_8  and  C_9
REMARK    7  A    between atoms: N_12  and  C_13
REMARK    8  A    between atoms: C_13  and  N_15
REMARK    9  A    between atoms: C_16  and  C_18
REMARK   10  A    between atoms: C_21  and  C_22
REMARK                            x       y       z     vdW  Elec       q    Type
REMARK                         _______ _______ _______ _____ _____    ______ ____
ROOT
ATOM      1  C   UNL     1       0.885   9.482  21.535  0.00  0.00    +0.000 C 
ATOM      2  S   UNL     1      -0.276   9.204  22.714  0.00  0.00    +0.000 S 
ENDROOT
BRANCH   1   8
ATOM      3  C   UNL     1       0.819  13.504  18.935  0.00  0.00    +0.000 A 
ATOM      4  C   UNL     1      -0.395  13.262  18.348  0.00  0.00    +0.000 A 
ATOM      5  C   UNL     1      -1.017  12.132  18.788  0.00  0.00    +0.000 A 
ATOM      6  N   UNL     1      -0.459  11.267  19.642  0.00  0.00    +0.000 NA
ATOM      7  C   UNL     1       0.748  11.551  20.121  0.00  0.00    +0.000 A 
ATOM      8  N   UNL     1       1.358  10.668  21.020  0.00  0.00    +0.000 N 
ATOM      9  N   UNL     1       1.425  12.670  19.812  0.00  0.00    +0.000 NA
ATOM     10  H   UNL     1       2.282  10.978  21.306  0.00  0.00    +0.000 HD
BRANCH   3  11
ATOM     11  O   UNL     1       1.410  14.704  18.580  0.00  0.00    +0.000 OA
BRANCH  11  13
ATOM     12  C   UNL     1       3.256  15.942  17.702  0.00  0.00    +0.000 C 
ATOM     13  C   UNL     1       2.763  14.570  18.141  0.00  0.00    +0.000 C 
ENDBRANCH  11  13
ENDBRANCH   3  11
BRANCH   5  14
ATOM     14  O   UNL     1      -2.306  11.901  18.358  0.00  0.00    +0.000 OA
BRANCH  14  15
ATOM     15  C   UNL     1      -2.325  11.178  17.120  0.00  0.00    +0.000 C 
ATOM     16  C   UNL     1      -3.238   9.980  17.275  0.00  0.00    +0.000 C 
ENDBRANCH  14  15
ENDBRANCH   5  14
ENDBRANCH   1   8
BRANCH   1  17
ATOM     17  N   UNL     1       1.457   8.329  21.033  0.00  0.00    +0.000 N 
ATOM     18  C   UNL     1       1.830   8.031  19.732  0.00  0.00    +0.000 C 
ATOM     19  O   UNL     1       1.598   8.795  18.796  0.00  0.00    +0.000 OA
ATOM     20  H   UNL     1       1.649   7.616  21.722  0.00  0.00    +0.000 HD
BRANCH  18  21
ATOM     21  C   UNL     1       2.508   6.759  19.575  0.00  0.00    +0.000 A 
ATOM     22  C   UNL     1       2.302   5.569  20.237  0.00  0.00    +0.000 A 
ATOM     23  C   UNL     1       3.179   4.626  19.657  0.00  0.00    +0.000 A 
ATOM     24  C   UNL     1       3.911   5.287  18.690  0.00  0.00    +0.000 A 
ATOM     25  O   UNL     1       3.496   6.599  18.637  0.00  0.00    +0.000 OA
BRANCH  24  26
ATOM     26  C   UNL     1       4.974   4.902  17.753  0.00  0.00    +0.000 A 
ATOM     27  C   UNL     1       4.611   4.406  16.485  0.00  0.00    +0.000 A 
ATOM     28  C   UNL     1       5.574   4.040  15.538  0.00  0.00    +0.000 A 
ATOM     29  C   UNL     1       6.926   4.157  15.840  0.00  0.00    +0.000 A 
ATOM     30  C   UNL     1       7.312   4.625  17.092  0.00  0.00    +0.000 A 
ATOM     31  C   UNL     1       6.349   4.993  18.044  0.00  0.00    +0.000 A 
ATOM     32 CL   UNL     1       6.972   5.587  19.548  0.00  0.00    +0.000 Cl
ENDBRANCH  24  26
ENDBRANCH  18  21
ENDBRANCH   1  17
TORSDOF 8
ENDMDL
MODEL 9
REMARK VINA RESULT:      -7.5      5.664      9.924
REMARK  Name = 
REMARK  10 active torsions:
REMARK  status: ('A' for Active; 'I' for Inactive)
REMARK    1  A    between atoms: C_1  and  C_2
REMARK    2  A    between atoms: C_2  and  O_3
REMARK    3  A    between atoms: O_3  and  C_4
REMARK    4  A    between atoms: C_6  and  O_7
REMARK    5  A    between atoms: O_7  and  C_8
REMARK    6  A    between atoms: C_8  and  C_9
REMARK    7  A    between atoms: N_12  and  C_13
REMARK    8  A    between atoms: C_13  and  N_15
REMARK    9  A    between atoms: C_16  and  C_18
REMARK   10  A    between atoms: C_21  and  C_22
REMARK                            x       y       z     vdW  Elec       q    Type
REMARK                         _______ _______ _______ _____ _____    ______ ____
ROOT
ATOM      1  C   UNL     1       1.044  12.404  19.001  0.00  0.00    +0.000 C 
ATOM      2  S   UNL     1       2.191  13.538  18.540  0.00  0.00    +0.000 S 
ENDROOT
BRANCH   1   8
ATOM      3  C   UNL     1      -3.722  11.966  19.203  0.00  0.00    +0.000 A 
ATOM      4  C   UNL     1      -3.842  11.281  18.022  0.00  0.00    +0.000 A 
ATOM      5  C   UNL     1      -2.655  10.988  17.420  0.00  0.00    +0.000 A 
ATOM      6  N   UNL     1      -1.471  11.416  17.872  0.00  0.00    +0.000 NA
ATOM      7  C   UNL     1      -1.451  12.124  18.997  0.00  0.00    +0.000 A 
ATOM      8  N   UNL     1      -0.227  12.583  19.499  0.00  0.00    +0.000 N 
ATOM      9  N   UNL     1      -2.550  12.412  19.713  0.00  0.00    +0.000 NA
ATOM     10  H   UNL     1      -0.333  13.125  20.351  0.00  0.00    +0.000 HD
BRANCH   3  11
ATOM     11  O   UNL     1      -4.910  12.172  19.881  0.00  0.00    +0.000 OA
BRANCH  11  13
ATOM     12  C   UNL     1      -5.671  14.433  20.016  0.00  0.00    +0.000 C 
ATOM     13  C   UNL     1      -4.899  13.327  20.721  0.00  0.00    +0.000 C 
ENDBRANCH  11  13
ENDBRANCH   3  11
BRANCH   5  14
ATOM     14  O   UNL     1      -2.685  10.172  16.309  0.00  0.00    +0.000 OA
BRANCH  14  15
ATOM     15  C   UNL     1      -3.187  10.867  15.159  0.00  0.00    +0.000 C 
ATOM     16  C   UNL     1      -3.217   9.906  13.990  0.00  0.00    +0.000 C 
ENDBRANCH  14  15
ENDBRANCH   5  14
ENDBRANCH   1   8
BRANCH   1  17
ATOM     17  N   UNL     1       1.451  11.096  18.825  0.00  0.00    +0.000 N 
ATOM     18  C   UNL     1       1.327  10.016  19.686  0.00  0.00    +0.000 C 
ATOM     19  O   UNL     1       0.875  10.139  20.823  0.00  0.00    +0.000 OA
ATOM     20  H   UNL     1       1.878  10.901  17.930  0.00  0.00    +0.000 HD
BRANCH  18  21
ATOM     21  C   UNL     1       1.768   8.751  19.133  0.00  0.00    +0.000 A 
ATOM     22  C   UNL     1       2.246   8.464  17.874  0.00  0.00    +0.000 A 
ATOM     23  C   UNL     1       2.601   7.097  17.876  0.00  0.00    +0.000 A 
ATOM     24  C   UNL     1       2.292   6.596  19.126  0.00  0.00    +0.000 A 
ATOM     25  O   UNL     1       1.783   7.614  19.901  0.00  0.00    +0.000 OA
BRANCH  24  26
ATOM     26  C   UNL     1       2.396   5.280  19.768  0.00  0.00    +0.000 A 
ATOM     27  C   UNL     1       1.270   4.763  20.439  0.00  0.00    +0.000 A 
ATOM     28  C   UNL     1       1.296   3.507  21.055  0.00  0.00    +0.000 A 
ATOM     29  C   UNL     1       2.453   2.737  21.018  0.00  0.00    +0.000 A 
ATOM     30  C   UNL     1       3.586   3.233  20.379  0.00  0.00    +0.000 A 
ATOM     31  C   UNL     1       3.564   4.492  19.761  0.00  0.00    +0.000 A 
ATOM     32 CL   UNL     1       5.035   4.969  18.979  0.00  0.00    +0.000 Cl
ENDBRANCH  24  26
ENDBRANCH  18  21
ENDBRANCH   1  17
TORSDOF 8
ENDMDL
