MODEL 1
REMARK VINA RESULT:      -7.8      0.000      0.000
REMARK  Name = 
REMARK  9 active torsions:
REMARK  status: ('A' for Active; 'I' for Inactive)
REMARK    1  A    between atoms: C_1  and  O_2
REMARK    2  A    between atoms: O_2  and  C_3
REMARK    3  A    between atoms: C_8  and  C_9
REMARK    4  A    between atoms: C_10  and  S_11
REMARK    5  A    between atoms: C_10  and  C_20
REMARK    6  A    between atoms: S_11  and  C_12
REMARK    7  A    between atoms: C_12  and  C_13
REMARK    8  A    between atoms: C_16  and  C_17
REMARK    9  A    between atoms: C_20  and  C_22
REMARK                            x       y       z     vdW  Elec       q    Type
REMARK                         _______ _______ _______ _____ _____    ______ ____
ROOT
ATOM      1  C   UNL     1       4.482   3.509  17.194  0.00  0.00    +0.000 C 
ATOM      2  C   UNL     1       5.360   4.469  17.570  0.00  0.00    +0.000 C 
ENDROOT
BRANCH   1   8
ATOM      3  C   UNL     1       3.078   2.099  18.797  0.00  0.00    +0.000 A 
ATOM      4  C   UNL     1       1.798   1.768  19.276  0.00  0.00    +0.000 A 
ATOM      5  C   UNL     1       0.678   2.512  18.912  0.00  0.00    +0.000 A 
ATOM      6  C   UNL     1       0.824   3.599  18.059  0.00  0.00    +0.000 A 
ATOM      7  C   UNL     1       2.076   3.885  17.511  0.00  0.00    +0.000 A 
ATOM      8  C   UNL     1       3.211   3.112  17.832  0.00  0.00    +0.000 A 
BRANCH   3  10
ATOM      9  C   UNL     1       4.709   2.008  20.495  0.00  0.00    +0.000 C 
ATOM     10  O   UNL     1       4.215   1.475  19.260  0.00  0.00    +0.000 OA
ENDBRANCH   3  10
ENDBRANCH   1   8
BRANCH   2  11
ATOM     11  C   UNL     1       5.135   5.414  18.746  0.00  0.00    +0.000 C 
ATOM     12  O   UNL     1       5.874   5.420  19.723  0.00  0.00    +0.000 OA
BRANCH  11  13
ATOM     13  C   UNL     1       4.018   6.432  18.711  0.00  0.00    +0.000 A 
ATOM     14  C   UNL     1       3.087   6.563  19.750  0.00  0.00    +0.000 A 
ATOM     15  C   UNL     1       2.040   7.493  19.665  0.00  0.00    +0.000 A 
ATOM     16  C   UNL     1       1.947   8.336  18.561  0.00  0.00    +0.000 A 
ATOM     17 CL   UNL     1       0.677   9.495  18.480  0.00  0.00    +0.000 Cl
ATOM     18  C   UNL     1       2.885   8.249  17.536  0.00  0.00    +0.000 A 
ATOM     19  C   UNL     1       3.913   7.299  17.606  0.00  0.00    +0.000 A 
ENDBRANCH  11  13
ENDBRANCH   2  11
BRANCH   2  20
ATOM     20  S   UNL     1       6.998   4.453  16.943  0.00  0.00    +0.000 S 
BRANCH  20  21
ATOM     21  C   UNL     1       7.017   5.633  15.555  0.00  0.00    +0.000 C 
BRANCH  21  22
ATOM     22  C   UNL     1       6.594   4.897  14.301  0.00  0.00    +0.000 A 
ATOM     23  C   UNL     1       5.324   4.306  14.238  0.00  0.00    +0.000 A 
ATOM     24  C   UNL     1       4.979   3.466  13.176  0.00  0.00    +0.000 A 
ATOM     25  C   UNL     1       5.892   3.212  12.149  0.00  0.00    +0.000 A 
ATOM     26  C   UNL     1       5.553   2.253  11.044  0.00  0.00    +0.000 C 
ATOM     27  C   UNL     1       7.143   3.840  12.181  0.00  0.00    +0.000 A 
ATOM     28  C   UNL     1       7.493   4.675  13.248  0.00  0.00    +0.000 A 
ENDBRANCH  21  22
ENDBRANCH  20  21
ENDBRANCH   2  20
TORSDOF 7
ENDMDL
MODEL 2
REMARK VINA RESULT:      -7.4      1.065      1.252
REMARK  Name = 
REMARK  9 active torsions:
REMARK  status: ('A' for Active; 'I' for Inactive)
REMARK    1  A    between atoms: C_1  and  O_2
REMARK    2  A    between atoms: O_2  and  C_3
REMARK    3  A    between atoms: C_8  and  C_9
REMARK    4  A    between atoms: C_10  and  S_11
REMARK    5  A    between atoms: C_10  and  C_20
REMARK    6  A    between atoms: S_11  and  C_12
REMARK    7  A    between atoms: C_12  and  C_13
REMARK    8  A    between atoms: C_16  and  C_17
REMARK    9  A    between atoms: C_20  and  C_22
REMARK                            x       y       z     vdW  Elec       q    Type
REMARK                         _______ _______ _______ _____ _____    ______ ____
ROOT
ATOM      1  C   UNL     1       3.837   3.251  17.836  0.00  0.00    +0.000 C 
ATOM      2  C   UNL     1       4.711   4.246  17.549  0.00  0.00    +0.000 C 
ENDROOT
BRANCH   1   8
ATOM      3  C   UNL     1       3.448   2.685  20.297  0.00  0.00    +0.000 A 
ATOM      4  C   UNL     1       2.521   2.488  21.337  0.00  0.00    +0.000 A 
ATOM      5  C   UNL     1       1.175   2.803  21.171  0.00  0.00    +0.000 A 
ATOM      6  C   UNL     1       0.734   3.318  19.959  0.00  0.00    +0.000 A 
ATOM      7  C   UNL     1       1.629   3.438  18.893  0.00  0.00    +0.000 A 
ATOM      8  C   UNL     1       2.986   3.079  19.030  0.00  0.00    +0.000 A 
BRANCH   3  10
ATOM      9  C   UNL     1       5.179   1.210  20.910  0.00  0.00    +0.000 C 
ATOM     10  O   UNL     1       4.802   2.525  20.485  0.00  0.00    +0.000 OA
ENDBRANCH   3  10
ENDBRANCH   1   8
BRANCH   2  11
ATOM     11  C   UNL     1       4.921   5.473  18.430  0.00  0.00    +0.000 C 
ATOM     12  O   UNL     1       5.985   5.689  18.997  0.00  0.00    +0.000 OA
BRANCH  11  13
ATOM     13  C   UNL     1       3.830   6.509  18.577  0.00  0.00    +0.000 A 
ATOM     14  C   UNL     1       3.016   6.589  19.714  0.00  0.00    +0.000 A 
ATOM     15  C   UNL     1       1.987   7.539  19.799  0.00  0.00    +0.000 A 
ATOM     16  C   UNL     1       1.799   8.453  18.766  0.00  0.00    +0.000 A 
ATOM     17 CL   UNL     1       0.554   9.635  18.892  0.00  0.00    +0.000 Cl
ATOM     18  C   UNL     1       2.622   8.416  17.644  0.00  0.00    +0.000 A 
ATOM     19  C   UNL     1       3.629   7.447  17.545  0.00  0.00    +0.000 A 
ENDBRANCH  11  13
ENDBRANCH   2  11
BRANCH   2  20
ATOM     20  S   UNL     1       5.933   4.009  16.314  0.00  0.00    +0.000 S 
BRANCH  20  21
ATOM     21  C   UNL     1       5.411   5.020  14.891  0.00  0.00    +0.000 C 
BRANCH  21  22
ATOM     22  C   UNL     1       5.816   4.299  13.623  0.00  0.00    +0.000 A 
ATOM     23  C   UNL     1       4.919   3.409  13.013  0.00  0.00    +0.000 A 
ATOM     24  C   UNL     1       5.329   2.593  11.956  0.00  0.00    +0.000 A 
ATOM     25  C   UNL     1       6.641   2.660  11.478  0.00  0.00    +0.000 A 
ATOM     26  C   UNL     1       7.108   1.735  10.392  0.00  0.00    +0.000 C 
ATOM     27  C   UNL     1       7.526   3.584  12.049  0.00  0.00    +0.000 A 
ATOM     28  C   UNL     1       7.119   4.396  13.113  0.00  0.00    +0.000 A 
ENDBRANCH  21  22
ENDBRANCH  20  21
ENDBRANCH   2  20
TORSDOF 7
ENDMDL
MODEL 3
REMARK VINA RESULT:      -7.3      0.555      1.063
REMARK  Name = 
REMARK  9 active torsions:
REMARK  status: ('A' for Active; 'I' for Inactive)
REMARK    1  A    between atoms: C_1  and  O_2
REMARK    2  A    between atoms: O_2  and  C_3
REMARK    3  A    between atoms: C_8  and  C_9
REMARK    4  A    between atoms: C_10  and  S_11
REMARK    5  A    between atoms: C_10  and  C_20
REMARK    6  A    between atoms: S_11  and  C_12
REMARK    7  A    between atoms: C_12  and  C_13
REMARK    8  A    between atoms: C_16  and  C_17
REMARK    9  A    between atoms: C_20  and  C_22
REMARK                            x       y       z     vdW  Elec       q    Type
REMARK                         _______ _______ _______ _____ _____    ______ ____
ROOT
ATOM      1  C   UNL     1       4.579   3.482  17.275  0.00  0.00    +0.000 C 
ATOM      2  C   UNL     1       5.449   4.510  17.415  0.00  0.00    +0.000 C 
ENDROOT
BRANCH   1   8
ATOM      3  C   UNL     1       3.536   2.562  19.418  0.00  0.00    +0.000 A 
ATOM      4  C   UNL     1       2.365   2.186  20.101  0.00  0.00    +0.000 A 
ATOM      5  C   UNL     1       1.105   2.468  19.580  0.00  0.00    +0.000 A 
ATOM      6  C   UNL     1       0.997   3.130  18.363  0.00  0.00    +0.000 A 
ATOM      7  C   UNL     1       2.151   3.433  17.637  0.00  0.00    +0.000 A 
ATOM      8  C   UNL     1       3.434   3.111  18.129  0.00  0.00    +0.000 A 
BRANCH   3  10
ATOM      9  C   UNL     1       4.870   1.398  20.972  0.00  0.00    +0.000 C 
ATOM     10  O   UNL     1       4.785   2.431  19.982  0.00  0.00    +0.000 OA
ENDBRANCH   3  10
ENDBRANCH   1   8
BRANCH   2  11
ATOM     11  C   UNL     1       5.340   5.573  18.504  0.00  0.00    +0.000 C 
ATOM     12  O   UNL     1       6.220   5.735  19.341  0.00  0.00    +0.000 OA
BRANCH  11  13
ATOM     13  C   UNL     1       4.159   6.516  18.543  0.00  0.00    +0.000 A 
ATOM     14  C   UNL     1       3.923   7.466  17.541  0.00  0.00    +0.000 A 
ATOM     15  C   UNL     1       2.838   8.352  17.631  0.00  0.00    +0.000 A 
ATOM     16  C   UNL     1       1.951   8.257  18.699  0.00  0.00    +0.000 A 
ATOM     17 CL   UNL     1       0.605   9.327  18.784  0.00  0.00    +0.000 Cl
ATOM     18  C   UNL     1       2.146   7.293  19.684  0.00  0.00    +0.000 A 
ATOM     19  C   UNL     1       3.246   6.430  19.611  0.00  0.00    +0.000 A 
ENDBRANCH  11  13
ENDBRANCH   2  11
BRANCH   2  20
ATOM     20  S   UNL     1       6.982   4.484  16.563  0.00  0.00    +0.000 S 
BRANCH  20  21
ATOM     21  C   UNL     1       6.772   5.575  15.119  0.00  0.00    +0.000 C 
BRANCH  21  22
ATOM     22  C   UNL     1       6.467   4.711  13.913  0.00  0.00    +0.000 A 
ATOM     23  C   UNL     1       5.224   4.065  13.819  0.00  0.00    +0.000 A 
ATOM     24  C   UNL     1       4.986   3.119  12.819  0.00  0.00    +0.000 A 
ATOM     25  C   UNL     1       5.979   2.809  11.886  0.00  0.00    +0.000 A 
ATOM     26  C   UNL     1       5.753   1.741  10.855  0.00  0.00    +0.000 C 
ATOM     27  C   UNL     1       7.202   3.488  11.944  0.00  0.00    +0.000 A 
ATOM     28  C   UNL     1       7.446   4.431  12.950  0.00  0.00    +0.000 A 
ENDBRANCH  21  22
ENDBRANCH  20  21
ENDBRANCH   2  20
TORSDOF 7
ENDMDL
MODEL 4
REMARK VINA RESULT:      -7.2      3.117      7.016
REMARK  Name = 
REMARK  9 active torsions:
REMARK  status: ('A' for Active; 'I' for Inactive)
REMARK    1  A    between atoms: C_1  and  O_2
REMARK    2  A    between atoms: O_2  and  C_3
REMARK    3  A    between atoms: C_8  and  C_9
REMARK    4  A    between atoms: C_10  and  S_11
REMARK    5  A    between atoms: C_10  and  C_20
REMARK    6  A    between atoms: S_11  and  C_12
REMARK    7  A    between atoms: C_12  and  C_13
REMARK    8  A    between atoms: C_16  and  C_17
REMARK    9  A    between atoms: C_20  and  C_22
REMARK                            x       y       z     vdW  Elec       q    Type
REMARK                         _______ _______ _______ _____ _____    ______ ____
ROOT
ATOM      1  C   UNL     1       2.225   6.135  19.258  0.00  0.00    +0.000 C 
ATOM      2  C   UNL     1       3.363   6.636  18.722  0.00  0.00    +0.000 C 
ENDROOT
BRANCH   1   8
ATOM      3  C   UNL     1       1.579   3.672  19.036  0.00  0.00    +0.000 A 
ATOM      4  C   UNL     1       1.297   2.456  19.685  0.00  0.00    +0.000 A 
ATOM      5  C   UNL     1       1.525   2.298  21.049  0.00  0.00    +0.000 A 
ATOM      6  C   UNL     1       2.037   3.358  21.788  0.00  0.00    +0.000 A 
ATOM      7  C   UNL     1       2.240   4.595  21.171  0.00  0.00    +0.000 A 
ATOM      8  C   UNL     1       1.969   4.785  19.800  0.00  0.00    +0.000 A 
BRANCH   3  10
ATOM      9  C   UNL     1       2.596   3.195  16.966  0.00  0.00    +0.000 C 
ATOM     10  O   UNL     1       1.506   3.804  17.668  0.00  0.00    +0.000 OA
ENDBRANCH   3  10
ENDBRANCH   1   8
BRANCH   2  11
ATOM     11  C   UNL     1       4.679   5.869  18.652  0.00  0.00    +0.000 C 
ATOM     12  O   UNL     1       5.244   5.459  19.659  0.00  0.00    +0.000 OA
BRANCH  11  13
ATOM     13  C   UNL     1       5.300   5.527  17.316  0.00  0.00    +0.000 A 
ATOM     14  C   UNL     1       4.852   6.088  16.113  0.00  0.00    +0.000 A 
ATOM     15  C   UNL     1       5.426   5.717  14.888  0.00  0.00    +0.000 A 
ATOM     16  C   UNL     1       6.490   4.819  14.863  0.00  0.00    +0.000 A 
ATOM     17 CL   UNL     1       7.209   4.393  13.358  0.00  0.00    +0.000 Cl
ATOM     18  C   UNL     1       6.975   4.280  16.051  0.00  0.00    +0.000 A 
ATOM     19  C   UNL     1       6.382   4.627  17.272  0.00  0.00    +0.000 A 
ENDBRANCH  11  13
ENDBRANCH   2  11
BRANCH   2  20
ATOM     20  S   UNL     1       3.303   8.085  17.736  0.00  0.00    +0.000 S 
BRANCH  20  21
ATOM     21  C   UNL     1       1.562   8.624  17.741  0.00  0.00    +0.000 C 
BRANCH  21  22
ATOM     22  C   UNL     1       1.423   9.771  18.719  0.00  0.00    +0.000 A 
ATOM     23  C   UNL     1       0.819   9.551  19.966  0.00  0.00    +0.000 A 
ATOM     24  C   UNL     1       0.509  10.621  20.808  0.00  0.00    +0.000 A 
ATOM     25  C   UNL     1       0.809  11.932  20.427  0.00  0.00    +0.000 A 
ATOM     26  C   UNL     1       0.413  13.091  21.295  0.00  0.00    +0.000 C 
ATOM     27  C   UNL     1       1.459  12.153  19.206  0.00  0.00    +0.000 A 
ATOM     28  C   UNL     1       1.763  11.082  18.358  0.00  0.00    +0.000 A 
ENDBRANCH  21  22
ENDBRANCH  20  21
ENDBRANCH   2  20
TORSDOF 7
ENDMDL
MODEL 5
REMARK VINA RESULT:      -7.2      7.900     10.337
REMARK  Name = 
REMARK  9 active torsions:
REMARK  status: ('A' for Active; 'I' for Inactive)
REMARK    1  A    between atoms: C_1  and  O_2
REMARK    2  A    between atoms: O_2  and  C_3
REMARK    3  A    between atoms: C_8  and  C_9
REMARK    4  A    between atoms: C_10  and  S_11
REMARK    5  A    between atoms: C_10  and  C_20
REMARK    6  A    between atoms: S_11  and  C_12
REMARK    7  A    between atoms: C_12  and  C_13
REMARK    8  A    between atoms: C_16  and  C_17
REMARK    9  A    between atoms: C_20  and  C_22
REMARK                            x       y       z     vdW  Elec       q    Type
REMARK                         _______ _______ _______ _____ _____    ______ ____
ROOT
ATOM      1  C   UNL     1       9.489  12.115  17.927  0.00  0.00    +0.000 C 
ATOM      2  C   UNL     1       9.853  11.353  18.987  0.00  0.00    +0.000 C 
ENDROOT
BRANCH   1   8
ATOM      3  C   UNL     1       8.800  14.573  18.026  0.00  0.00    +0.000 A 
ATOM      4  C   UNL     1       9.104  15.905  17.692  0.00  0.00    +0.000 A 
ATOM      5  C   UNL     1      10.346  16.250  17.165  0.00  0.00    +0.000 A 
ATOM      6  C   UNL     1      11.303  15.264  16.961  0.00  0.00    +0.000 A 
ATOM      7  C   UNL     1      10.982  13.928  17.210  0.00  0.00    +0.000 A 
ATOM      8  C   UNL     1       9.713  13.556  17.700  0.00  0.00    +0.000 A 
BRANCH   3  10
ATOM      9  C   UNL     1       6.445  14.656  18.020  0.00  0.00    +0.000 C 
ATOM     10  O   UNL     1       7.641  14.232  18.687  0.00  0.00    +0.000 OA
ENDBRANCH   3  10
ENDBRANCH   1   8
BRANCH   2  11
ATOM     11  C   UNL     1      10.673  11.870  20.163  0.00  0.00    +0.000 C 
ATOM     12  O   UNL     1      11.862  11.602  20.292  0.00  0.00    +0.000 OA
BRANCH  11  13
ATOM     13  C   UNL     1      10.054  12.798  21.184  0.00  0.00    +0.000 A 
ATOM     14  C   UNL     1       9.133  12.354  22.142  0.00  0.00    +0.000 A 
ATOM     15  C   UNL     1       8.548  13.252  23.048  0.00  0.00    +0.000 A 
ATOM     16  C   UNL     1       8.922  14.593  23.037  0.00  0.00    +0.000 A 
ATOM     17 CL   UNL     1       8.223  15.681  24.173  0.00  0.00    +0.000 Cl
ATOM     18  C   UNL     1       9.865  15.046  22.118  0.00  0.00    +0.000 A 
ATOM     19  C   UNL     1      10.425  14.156  21.193  0.00  0.00    +0.000 A 
ENDBRANCH  11  13
ENDBRANCH   2  11
BRANCH   2  20
ATOM     20  S   UNL     1       9.089   9.796  19.250  0.00  0.00    +0.000 S 
BRANCH  20  21
ATOM     21  C   UNL     1       8.299   9.351  17.670  0.00  0.00    +0.000 C 
BRANCH  21  22
ATOM     22  C   UNL     1       7.699   7.969  17.813  0.00  0.00    +0.000 A 
ATOM     23  C   UNL     1       6.514   7.652  17.131  0.00  0.00    +0.000 A 
ATOM     24  C   UNL     1       5.839   6.457  17.388  0.00  0.00    +0.000 A 
ATOM     25  C   UNL     1       6.342   5.547  18.323  0.00  0.00    +0.000 A 
ATOM     26  C   UNL     1       5.583   4.296  18.657  0.00  0.00    +0.000 C 
ATOM     27  C   UNL     1       7.551   5.834  18.968  0.00  0.00    +0.000 A 
ATOM     28  C   UNL     1       8.225   7.035  18.717  0.00  0.00    +0.000 A 
ENDBRANCH  21  22
ENDBRANCH  20  21
ENDBRANCH   2  20
TORSDOF 7
ENDMDL
MODEL 6
REMARK VINA RESULT:      -7.1      4.130      6.587
REMARK  Name = 
REMARK  9 active torsions:
REMARK  status: ('A' for Active; 'I' for Inactive)
REMARK    1  A    between atoms: C_1  and  O_2
REMARK    2  A    between atoms: O_2  and  C_3
REMARK    3  A    between atoms: C_8  and  C_9
REMARK    4  A    between atoms: C_10  and  S_11
REMARK    5  A    between atoms: C_10  and  C_20
REMARK    6  A    between atoms: S_11  and  C_12
REMARK    7  A    between atoms: C_12  and  C_13
REMARK    8  A    between atoms: C_16  and  C_17
REMARK    9  A    between atoms: C_20  and  C_22
REMARK                            x       y       z     vdW  Elec       q    Type
REMARK                         _______ _______ _______ _____ _____    ______ ____
ROOT
ATOM      1  C   UNL     1       5.708   4.877  19.006  0.00  0.00    +0.000 C 
ATOM      2  C   UNL     1       6.285   5.691  18.089  0.00  0.00    +0.000 C 
ENDROOT
BRANCH   1   8
ATOM      3  C   UNL     1       3.193   4.881  19.461  0.00  0.00    +0.000 A 
ATOM      4  C   UNL     1       1.986   4.160  19.454  0.00  0.00    +0.000 A 
ATOM      5  C   UNL     1       1.902   2.899  18.870  0.00  0.00    +0.000 A 
ATOM      6  C   UNL     1       3.030   2.338  18.284  0.00  0.00    +0.000 A 
ATOM      7  C   UNL     1       4.254   3.007  18.360  0.00  0.00    +0.000 A 
ATOM      8  C   UNL     1       4.365   4.264  18.990  0.00  0.00    +0.000 A 
BRANCH   3  10
ATOM      9  C   UNL     1       2.387   7.079  19.196  0.00  0.00    +0.000 C 
ATOM     10  O   UNL     1       3.264   6.186  19.894  0.00  0.00    +0.000 OA
ENDBRANCH   3  10
ENDBRANCH   1   8
BRANCH   2  11
ATOM     11  C   UNL     1       5.633   6.074  16.764  0.00  0.00    +0.000 C 
ATOM     12  O   UNL     1       4.866   7.025  16.671  0.00  0.00    +0.000 OA
BRANCH  11  13
ATOM     13  C   UNL     1       5.971   5.324  15.496  0.00  0.00    +0.000 A 
ATOM     14  C   UNL     1       7.225   5.420  14.877  0.00  0.00    +0.000 A 
ATOM     15  C   UNL     1       7.490   4.741  13.678  0.00  0.00    +0.000 A 
ATOM     16  C   UNL     1       6.518   3.916  13.118  0.00  0.00    +0.000 A 
ATOM     17 CL   UNL     1       6.862   3.062  11.664  0.00  0.00    +0.000 Cl
ATOM     18  C   UNL     1       5.280   3.777  13.738  0.00  0.00    +0.000 A 
ATOM     19  C   UNL     1       5.004   4.480  14.918  0.00  0.00    +0.000 A 
ENDBRANCH  11  13
ENDBRANCH   2  11
BRANCH   2  20
ATOM     20  S   UNL     1       7.681   6.656  18.529  0.00  0.00    +0.000 S 
BRANCH  20  21
ATOM     21  C   UNL     1       7.738   8.030  17.334  0.00  0.00    +0.000 C 
BRANCH  21  22
ATOM     22  C   UNL     1       8.260   9.259  18.049  0.00  0.00    +0.000 A 
ATOM     23  C   UNL     1       8.146  10.517  17.440  0.00  0.00    +0.000 A 
ATOM     24  C   UNL     1       8.781  11.635  17.986  0.00  0.00    +0.000 A 
ATOM     25  C   UNL     1       9.532  11.520  19.159  0.00  0.00    +0.000 A 
ATOM     26  C   UNL     1      10.276  12.702  19.710  0.00  0.00    +0.000 C 
ATOM     27  C   UNL     1       9.606  10.277  19.799  0.00  0.00    +0.000 A 
ATOM     28  C   UNL     1       8.977   9.155  19.250  0.00  0.00    +0.000 A 
ENDBRANCH  21  22
ENDBRANCH  20  21
ENDBRANCH   2  20
TORSDOF 7
ENDMDL
MODEL 7
REMARK VINA RESULT:      -7.0      3.439      7.689
REMARK  Name = 
REMARK  9 active torsions:
REMARK  status: ('A' for Active; 'I' for Inactive)
REMARK    1  A    between atoms: C_1  and  O_2
REMARK    2  A    between atoms: O_2  and  C_3
REMARK    3  A    between atoms: C_8  and  C_9
REMARK    4  A    between atoms: C_10  and  S_11
REMARK    5  A    between atoms: C_10  and  C_20
REMARK    6  A    between atoms: S_11  and  C_12
REMARK    7  A    between atoms: C_12  and  C_13
REMARK    8  A    between atoms: C_16  and  C_17
REMARK    9  A    between atoms: C_20  and  C_22
REMARK                            x       y       z     vdW  Elec       q    Type
REMARK                         _______ _______ _______ _____ _____    ______ ____
ROOT
ATOM      1  C   UNL     1       4.140   6.864  17.487  0.00  0.00    +0.000 C 
ATOM      2  C   UNL     1       2.907   6.582  17.974  0.00  0.00    +0.000 C 
ENDROOT
BRANCH   1   8
ATOM      3  C   UNL     1       6.303   5.507  17.581  0.00  0.00    +0.000 A 
ATOM      4  C   UNL     1       7.219   4.687  16.899  0.00  0.00    +0.000 A 
ATOM      5  C   UNL     1       6.938   4.194  15.628  0.00  0.00    +0.000 A 
ATOM      6  C   UNL     1       5.733   4.519  15.016  0.00  0.00    +0.000 A 
ATOM      7  C   UNL     1       4.854   5.401  15.649  0.00  0.00    +0.000 A 
ATOM      8  C   UNL     1       5.145   5.946  16.917  0.00  0.00    +0.000 A 
BRANCH   3  10
ATOM      9  C   UNL     1       7.794   5.571  19.404  0.00  0.00    +0.000 C 
ATOM     10  O   UNL     1       6.491   5.879  18.893  0.00  0.00    +0.000 OA
ENDBRANCH   3  10
ENDBRANCH   1   8
BRANCH   2  11
ATOM     11  C   UNL     1       2.279   5.193  17.943  0.00  0.00    +0.000 C 
ATOM     12  O   UNL     1       1.213   4.976  17.379  0.00  0.00    +0.000 OA
BRANCH  11  13
ATOM     13  C   UNL     1       2.995   4.011  18.558  0.00  0.00    +0.000 A 
ATOM     14  C   UNL     1       3.577   4.064  19.831  0.00  0.00    +0.000 A 
ATOM     15  C   UNL     1       4.268   2.960  20.353  0.00  0.00    +0.000 A 
ATOM     16  C   UNL     1       4.337   1.776  19.625  0.00  0.00    +0.000 A 
ATOM     17 CL   UNL     1       5.160   0.417  20.285  0.00  0.00    +0.000 Cl
ATOM     18  C   UNL     1       3.733   1.691  18.373  0.00  0.00    +0.000 A 
ATOM     19  C   UNL     1       3.069   2.803  17.839  0.00  0.00    +0.000 A 
ENDBRANCH  11  13
ENDBRANCH   2  11
BRANCH   2  20
ATOM     20  S   UNL     1       2.088   7.737  19.008  0.00  0.00    +0.000 S 
BRANCH  20  21
ATOM     21  C   UNL     1       1.664   9.153  17.942  0.00  0.00    +0.000 C 
BRANCH  21  22
ATOM     22  C   UNL     1       0.495   9.883  18.568  0.00  0.00    +0.000 A 
ATOM     23  C   UNL     1      -0.728   9.952  17.883  0.00  0.00    +0.000 A 
ATOM     24  C   UNL     1      -1.760  10.772  18.345  0.00  0.00    +0.000 A 
ATOM     25  C   UNL     1      -1.596  11.530  19.508  0.00  0.00    +0.000 A 
ATOM     26  C   UNL     1      -2.674  12.468  19.968  0.00  0.00    +0.000 C 
ATOM     27  C   UNL     1      -0.396  11.426  20.223  0.00  0.00    +0.000 A 
ATOM     28  C   UNL     1       0.641  10.611  19.758  0.00  0.00    +0.000 A 
ENDBRANCH  21  22
ENDBRANCH  20  21
ENDBRANCH   2  20
TORSDOF 7
ENDMDL
MODEL 8
REMARK VINA RESULT:      -7.0      3.206      6.911
REMARK  Name = 
REMARK  9 active torsions:
REMARK  status: ('A' for Active; 'I' for Inactive)
REMARK    1  A    between atoms: C_1  and  O_2
REMARK    2  A    between atoms: O_2  and  C_3
REMARK    3  A    between atoms: C_8  and  C_9
REMARK    4  A    between atoms: C_10  and  S_11
REMARK    5  A    between atoms: C_10  and  C_20
REMARK    6  A    between atoms: S_11  and  C_12
REMARK    7  A    between atoms: C_12  and  C_13
REMARK    8  A    between atoms: C_16  and  C_17
REMARK    9  A    between atoms: C_20  and  C_22
REMARK                            x       y       z     vdW  Elec       q    Type
REMARK                         _______ _______ _______ _____ _____    ______ ____
ROOT
ATOM      1  C   UNL     1       2.112   6.122  19.357  0.00  0.00    +0.000 C 
ATOM      2  C   UNL     1       3.212   6.661  18.778  0.00  0.00    +0.000 C 
ENDROOT
BRANCH   1   8
ATOM      3  C   UNL     1       1.516   3.647  19.137  0.00  0.00    +0.000 A 
ATOM      4  C   UNL     1       1.298   2.418  19.784  0.00  0.00    +0.000 A 
ATOM      5  C   UNL     1       1.599   2.250  21.133  0.00  0.00    +0.000 A 
ATOM      6  C   UNL     1       2.121   3.314  21.858  0.00  0.00    +0.000 A 
ATOM      7  C   UNL     1       2.262   4.562  21.247  0.00  0.00    +0.000 A 
ATOM      8  C   UNL     1       1.918   4.761  19.894  0.00  0.00    +0.000 A 
BRANCH   3  10
ATOM      9  C   UNL     1       2.270   2.987  17.005  0.00  0.00    +0.000 C 
ATOM     10  O   UNL     1       1.370   3.793  17.776  0.00  0.00    +0.000 OA
ENDBRANCH   3  10
ENDBRANCH   1   8
BRANCH   2  11
ATOM     11  C   UNL     1       4.544   5.932  18.643  0.00  0.00    +0.000 C 
ATOM     12  O   UNL     1       5.261   5.708  19.611  0.00  0.00    +0.000 OA
BRANCH  11  13
ATOM     13  C   UNL     1       4.995   5.396  17.303  0.00  0.00    +0.000 A 
ATOM     14  C   UNL     1       5.357   4.056  17.112  0.00  0.00    +0.000 A 
ATOM     15  C   UNL     1       5.809   3.602  15.863  0.00  0.00    +0.000 A 
ATOM     16  C   UNL     1       5.852   4.477  14.781  0.00  0.00    +0.000 A 
ATOM     17 CL   UNL     1       6.378   3.905  13.246  0.00  0.00    +0.000 Cl
ATOM     18  C   UNL     1       5.460   5.803  14.941  0.00  0.00    +0.000 A 
ATOM     19  C   UNL     1       5.038   6.263  16.195  0.00  0.00    +0.000 A 
ENDBRANCH  11  13
ENDBRANCH   2  11
BRANCH   2  20
ATOM     20  S   UNL     1       3.069   8.118  17.811  0.00  0.00    +0.000 S 
BRANCH  20  21
ATOM     21  C   UNL     1       1.300   8.552  17.817  0.00  0.00    +0.000 C 
BRANCH  21  22
ATOM     22  C   UNL     1       1.177  10.037  18.087  0.00  0.00    +0.000 A 
ATOM     23  C   UNL     1       2.299  10.866  17.931  0.00  0.00    +0.000 A 
ATOM     24  C   UNL     1       2.266  12.198  18.349  0.00  0.00    +0.000 A 
ATOM     25  C   UNL     1       1.108  12.733  18.920  0.00  0.00    +0.000 A 
ATOM     26  C   UNL     1       1.091  14.141  19.439  0.00  0.00    +0.000 C 
ATOM     27  C   UNL     1      -0.030  11.924  19.031  0.00  0.00    +0.000 A 
ATOM     28  C   UNL     1       0.003  10.587  18.619  0.00  0.00    +0.000 A 
ENDBRANCH  21  22
ENDBRANCH  20  21
ENDBRANCH   2  20
TORSDOF 7
ENDMDL
MODEL 9
REMARK VINA RESULT:      -7.0      1.672      2.134
REMARK  Name = 
REMARK  9 active torsions:
REMARK  status: ('A' for Active; 'I' for Inactive)
REMARK    1  A    between atoms: C_1  and  O_2
REMARK    2  A    between atoms: O_2  and  C_3
REMARK    3  A    between atoms: C_8  and  C_9
REMARK    4  A    between atoms: C_10  and  S_11
REMARK    5  A    between atoms: C_10  and  C_20
REMARK    6  A    between atoms: S_11  and  C_12
REMARK    7  A    between atoms: C_12  and  C_13
REMARK    8  A    between atoms: C_16  and  C_17
REMARK    9  A    between atoms: C_20  and  C_22
REMARK                            x       y       z     vdW  Elec       q    Type
REMARK                         _______ _______ _______ _____ _____    ______ ____
ROOT
ATOM      1  C   UNL     1       4.568   4.215  19.433  0.00  0.00    +0.000 C 
ATOM      2  C   UNL     1       4.899   5.224  18.592  0.00  0.00    +0.000 C 
ENDROOT
BRANCH   1   8
ATOM      3  C   UNL     1       2.414   2.926  18.957  0.00  0.00    +0.000 A 
ATOM      4  C   UNL     1       1.126   2.566  19.393  0.00  0.00    +0.000 A 
ATOM      5  C   UNL     1       0.695   2.857  20.685  0.00  0.00    +0.000 A 
ATOM      6  C   UNL     1       1.548   3.516  21.561  0.00  0.00    +0.000 A 
ATOM      7  C   UNL     1       2.796   3.953  21.112  0.00  0.00    +0.000 A 
ATOM      8  C   UNL     1       3.229   3.708  19.793  0.00  0.00    +0.000 A 
BRANCH   3  10
ATOM      9  C   UNL     1       3.710   1.328  17.810  0.00  0.00    +0.000 C 
ATOM     10  O   UNL     1       2.914   2.518  17.741  0.00  0.00    +0.000 OA
ENDBRANCH   3  10
ENDBRANCH   1   8
BRANCH   2  11
ATOM     11  C   UNL     1       3.887   6.006  17.763  0.00  0.00    +0.000 C 
ATOM     12  O   UNL     1       3.713   5.780  16.571  0.00  0.00    +0.000 OA
BRANCH  11  13
ATOM     13  C   UNL     1       3.007   7.052  18.409  0.00  0.00    +0.000 A 
ATOM     14  C   UNL     1       2.537   6.931  19.723  0.00  0.00    +0.000 A 
ATOM     15  C   UNL     1       1.689   7.903  20.277  0.00  0.00    +0.000 A 
ATOM     16  C   UNL     1       1.349   9.031  19.536  0.00  0.00    +0.000 A 
ATOM     17 CL   UNL     1       0.334  10.234  20.234  0.00  0.00    +0.000 Cl
ATOM     18  C   UNL     1       1.837   9.189  18.242  0.00  0.00    +0.000 A 
ATOM     19  C   UNL     1       2.658   8.204  17.678  0.00  0.00    +0.000 A 
ENDBRANCH  11  13
ENDBRANCH   2  11
BRANCH   2  20
ATOM     20  S   UNL     1       6.497   5.945  18.674  0.00  0.00    +0.000 S 
BRANCH  20  21
ATOM     21  C   UNL     1       7.602   4.818  17.765  0.00  0.00    +0.000 C 
BRANCH  21  22
ATOM     22  C   UNL     1       7.028   4.606  16.380  0.00  0.00    +0.000 A 
ATOM     23  C   UNL     1       6.075   3.598  16.171  0.00  0.00    +0.000 A 
ATOM     24  C   UNL     1       5.668   3.256  14.879  0.00  0.00    +0.000 A 
ATOM     25  C   UNL     1       6.197   3.924  13.771  0.00  0.00    +0.000 A 
ATOM     26  C   UNL     1       5.819   3.512  12.378  0.00  0.00    +0.000 C 
ATOM     27  C   UNL     1       7.110   4.965  13.977  0.00  0.00    +0.000 A 
ATOM     28  C   UNL     1       7.524   5.304  15.270  0.00  0.00    +0.000 A 
ENDBRANCH  21  22
ENDBRANCH  20  21
ENDBRANCH   2  20
TORSDOF 7
ENDMDL
