MODEL 1
REMARK VINA RESULT:      -6.3      0.000      0.000
REMARK  Name = 
REMARK  7 active torsions:
REMARK  status: ('A' for Active; 'I' for Inactive)
REMARK    1  A    between atoms: C_1  and  O_2
REMARK    2  A    between atoms: O_2  and  C_3
REMARK    3  A    between atoms: C_4  and  C_5
REMARK    4  A    between atoms: C_6  and  C_7
REMARK    5  A    between atoms: C_7  and  O_8
REMARK    6  A    between atoms: C_12  and  O_13
REMARK    7  A    between atoms: O_13  and  C_14
REMARK                            x       y       z     vdW  Elec       q    Type
REMARK                         _______ _______ _______ _____ _____    ______ ____
ROOT
ATOM      1  C   UNL     1       2.782   5.112  17.897  0.00  0.00    +0.000 A 
ATOM      2  C   UNL     1       3.217   6.465  17.846  0.00  0.00    +0.000 A 
ATOM      3  C   UNL     1       4.416   6.782  17.183  0.00  0.00    +0.000 A 
ATOM      4  C   UNL     1       5.139   5.766  16.600  0.00  0.00    +0.000 A 
ATOM      5  C   UNL     1       4.733   4.453  16.644  0.00  0.00    +0.000 A 
ATOM      6  C   UNL     1       3.562   4.084  17.288  0.00  0.00    +0.000 A 
ATOM      7  O   UNL     1       5.621   3.644  15.992  0.00  0.00    +0.000 OA
ATOM      8  C   UNL     1       6.618   4.586  15.560  0.00  0.00    +0.000 C 
ATOM      9  O   UNL     1       6.313   5.940  15.932  0.00  0.00    +0.000 OA
ENDROOT
BRANCH   1  11
ATOM     10  C   UNL     1       1.672   4.604  19.971  0.00  0.00    +0.000 C 
ATOM     11  O   UNL     1       1.665   4.648  18.555  0.00  0.00    +0.000 OA
ENDBRANCH   1  11
BRANCH   2  12
ATOM     12  C   UNL     1       2.521   7.606  18.453  0.00  0.00    +0.000 C 
ATOM     13  C   UNL     1       2.138   8.682  17.751  0.00  0.00    +0.000 C 
BRANCH  13  14
ATOM     14  C   UNL     1       1.456   9.865  18.359  0.00  0.00    +0.000 C 
BRANCH  14  15
ATOM     15  O   UNL     1       0.207  10.046  17.714  0.00  0.00    +0.000 OA
ATOM     16  H   UNL     1       0.324  10.756  17.059  0.00  0.00    +0.000 HD
ENDBRANCH  14  15
ENDBRANCH  13  14
ENDBRANCH   2  12
BRANCH   6  17
ATOM     17  O   UNL     1       3.056   2.813  17.393  0.00  0.00    +0.000 OA
ATOM     18  C   UNL     1       3.656   1.929  18.329  0.00  0.00    +0.000 C 
ENDBRANCH   6  17
TORSDOF 5
ENDMDL
MODEL 2
REMARK VINA RESULT:      -6.2      1.847      4.955
REMARK  Name = 
REMARK  7 active torsions:
REMARK  status: ('A' for Active; 'I' for Inactive)
REMARK    1  A    between atoms: C_1  and  O_2
REMARK    2  A    between atoms: O_2  and  C_3
REMARK    3  A    between atoms: C_4  and  C_5
REMARK    4  A    between atoms: C_6  and  C_7
REMARK    5  A    between atoms: C_7  and  O_8
REMARK    6  A    between atoms: C_12  and  O_13
REMARK    7  A    between atoms: O_13  and  C_14
REMARK                            x       y       z     vdW  Elec       q    Type
REMARK                         _______ _______ _______ _____ _____    ______ ____
ROOT
ATOM      1  C   UNL     1       3.869   3.976  18.767  0.00  0.00    +0.000 A 
ATOM      2  C   UNL     1       4.273   4.749  17.643  0.00  0.00    +0.000 A 
ATOM      3  C   UNL     1       3.859   6.089  17.539  0.00  0.00    +0.000 A 
ATOM      4  C   UNL     1       3.066   6.616  18.534  0.00  0.00    +0.000 A 
ATOM      5  C   UNL     1       2.665   5.881  19.625  0.00  0.00    +0.000 A 
ATOM      6  C   UNL     1       3.042   4.555  19.775  0.00  0.00    +0.000 A 
ATOM      7  O   UNL     1       1.891   6.632  20.463  0.00  0.00    +0.000 OA
ATOM      8  C   UNL     1       1.843   7.893  19.772  0.00  0.00    +0.000 C 
ATOM      9  O   UNL     1       2.599   7.895  18.550  0.00  0.00    +0.000 OA
ENDROOT
BRANCH   1  11
ATOM     10  C   UNL     1       3.417   1.669  18.255  0.00  0.00    +0.000 C 
ATOM     11  O   UNL     1       4.150   2.645  18.974  0.00  0.00    +0.000 OA
ENDBRANCH   1  11
BRANCH   2  12
ATOM     12  C   UNL     1       5.099   4.264  16.531  0.00  0.00    +0.000 C 
ATOM     13  C   UNL     1       5.692   5.086  15.652  0.00  0.00    +0.000 C 
BRANCH  13  14
ATOM     14  C   UNL     1       6.510   4.608  14.497  0.00  0.00    +0.000 C 
BRANCH  14  15
ATOM     15  O   UNL     1       7.682   5.401  14.415  0.00  0.00    +0.000 OA
ATOM     16  H   UNL     1       7.649   5.873  13.565  0.00  0.00    +0.000 HD
ENDBRANCH  14  15
ENDBRANCH  13  14
ENDBRANCH   2  12
BRANCH   6  17
ATOM     17  O   UNL     1       2.707   3.727  20.817  0.00  0.00    +0.000 OA
ATOM     18  C   UNL     1       1.351   3.323  20.942  0.00  0.00    +0.000 C 
ENDBRANCH   6  17
TORSDOF 5
ENDMDL
MODEL 3
REMARK VINA RESULT:      -6.1      1.113      3.380
REMARK  Name = 
REMARK  7 active torsions:
REMARK  status: ('A' for Active; 'I' for Inactive)
REMARK    1  A    between atoms: C_1  and  O_2
REMARK    2  A    between atoms: O_2  and  C_3
REMARK    3  A    between atoms: C_4  and  C_5
REMARK    4  A    between atoms: C_6  and  C_7
REMARK    5  A    between atoms: C_7  and  O_8
REMARK    6  A    between atoms: C_12  and  O_13
REMARK    7  A    between atoms: O_13  and  C_14
REMARK                            x       y       z     vdW  Elec       q    Type
REMARK                         _______ _______ _______ _____ _____    ______ ____
ROOT
ATOM      1  C   UNL     1       4.685   6.106  17.056  0.00  0.00    +0.000 A 
ATOM      2  C   UNL     1       3.482   6.570  17.656  0.00  0.00    +0.000 A 
ATOM      3  C   UNL     1       2.528   5.640  18.105  0.00  0.00    +0.000 A 
ATOM      4  C   UNL     1       2.788   4.297  17.948  0.00  0.00    +0.000 A 
ATOM      5  C   UNL     1       3.945   3.833  17.367  0.00  0.00    +0.000 A 
ATOM      6  C   UNL     1       4.917   4.707  16.903  0.00  0.00    +0.000 A 
ATOM      7  O   UNL     1       3.961   2.467  17.332  0.00  0.00    +0.000 OA
ATOM      8  C   UNL     1       2.695   2.140  17.931  0.00  0.00    +0.000 C 
ATOM      9  O   UNL     1       1.948   3.298  18.338  0.00  0.00    +0.000 OA
ENDROOT
BRANCH   1  11
ATOM     10  C   UNL     1       6.740   7.321  17.359  0.00  0.00    +0.000 C 
ATOM     11  O   UNL     1       5.678   6.896  16.523  0.00  0.00    +0.000 OA
ENDBRANCH   1  11
BRANCH   2  12
ATOM     12  C   UNL     1       3.116   7.979  17.847  0.00  0.00    +0.000 C 
ATOM     13  C   UNL     1       1.848   8.386  18.008  0.00  0.00    +0.000 C 
BRANCH  13  14
ATOM     14  C   UNL     1       1.455   9.819  18.172  0.00  0.00    +0.000 C 
BRANCH  14  15
ATOM     15  O   UNL     1       2.246  10.606  17.297  0.00  0.00    +0.000 OA
ATOM     16  H   UNL     1       2.238  10.164  16.430  0.00  0.00    +0.000 HD
ENDBRANCH  14  15
ENDBRANCH  13  14
ENDBRANCH   2  12
BRANCH   6  17
ATOM     17  O   UNL     1       6.107   4.362  16.312  0.00  0.00    +0.000 OA
ATOM     18  C   UNL     1       6.078   3.898  14.970  0.00  0.00    +0.000 C 
ENDBRANCH   6  17
TORSDOF 5
ENDMDL
MODEL 4
REMARK VINA RESULT:      -6.0      2.249      5.452
REMARK  Name = 
REMARK  7 active torsions:
REMARK  status: ('A' for Active; 'I' for Inactive)
REMARK    1  A    between atoms: C_1  and  O_2
REMARK    2  A    between atoms: O_2  and  C_3
REMARK    3  A    between atoms: C_4  and  C_5
REMARK    4  A    between atoms: C_6  and  C_7
REMARK    5  A    between atoms: C_7  and  O_8
REMARK    6  A    between atoms: C_12  and  O_13
REMARK    7  A    between atoms: O_13  and  C_14
REMARK                            x       y       z     vdW  Elec       q    Type
REMARK                         _______ _______ _______ _____ _____    ______ ____
ROOT
ATOM      1  C   UNL     1       4.289   5.054  18.039  0.00  0.00    +0.000 A 
ATOM      2  C   UNL     1       4.354   4.001  17.085  0.00  0.00    +0.000 A 
ATOM      3  C   UNL     1       3.349   3.019  17.068  0.00  0.00    +0.000 A 
ATOM      4  C   UNL     1       2.324   3.104  17.984  0.00  0.00    +0.000 A 
ATOM      5  C   UNL     1       2.249   4.113  18.915  0.00  0.00    +0.000 A 
ATOM      6  C   UNL     1       3.216   5.105  18.978  0.00  0.00    +0.000 A 
ATOM      7  O   UNL     1       1.140   3.972  19.701  0.00  0.00    +0.000 OA
ATOM      8  C   UNL     1       0.554   2.769  19.173  0.00  0.00    +0.000 C 
ATOM      9  O   UNL     1       1.294   2.217  18.072  0.00  0.00    +0.000 OA
ENDROOT
BRANCH   1  11
ATOM     10  C   UNL     1       6.465   5.727  18.817  0.00  0.00    +0.000 C 
ATOM     11  O   UNL     1       5.225   6.048  18.210  0.00  0.00    +0.000 OA
ENDBRANCH   1  11
BRANCH   2  12
ATOM     12  C   UNL     1       5.416   3.823  16.088  0.00  0.00    +0.000 C 
ATOM     13  C   UNL     1       5.621   4.685  15.080  0.00  0.00    +0.000 C 
BRANCH  13  14
ATOM     14  C   UNL     1       6.676   4.502  14.038  0.00  0.00    +0.000 C 
BRANCH  14  15
ATOM     15  O   UNL     1       7.714   5.436  14.279  0.00  0.00    +0.000 OA
ATOM     16  H   UNL     1       7.387   6.061  14.950  0.00  0.00    +0.000 HD
ENDBRANCH  14  15
ENDBRANCH  13  14
ENDBRANCH   2  12
BRANCH   6  17
ATOM     17  O   UNL     1       3.244   6.160  19.857  0.00  0.00    +0.000 OA
ATOM     18  C   UNL     1       2.302   7.207  19.675  0.00  0.00    +0.000 C 
ENDBRANCH   6  17
TORSDOF 5
ENDMDL
MODEL 5
REMARK VINA RESULT:      -6.0      2.805      4.204
REMARK  Name = 
REMARK  7 active torsions:
REMARK  status: ('A' for Active; 'I' for Inactive)
REMARK    1  A    between atoms: C_1  and  O_2
REMARK    2  A    between atoms: O_2  and  C_3
REMARK    3  A    between atoms: C_4  and  C_5
REMARK    4  A    between atoms: C_6  and  C_7
REMARK    5  A    between atoms: C_7  and  O_8
REMARK    6  A    between atoms: C_12  and  O_13
REMARK    7  A    between atoms: O_13  and  C_14
REMARK                            x       y       z     vdW  Elec       q    Type
REMARK                         _______ _______ _______ _____ _____    ______ ____
ROOT
ATOM      1  C   UNL     1       4.978   4.673  18.211  0.00  0.00    +0.000 A 
ATOM      2  C   UNL     1       4.314   3.617  17.527  0.00  0.00    +0.000 A 
ATOM      3  C   UNL     1       4.691   3.302  16.209  0.00  0.00    +0.000 A 
ATOM      4  C   UNL     1       5.696   4.031  15.615  0.00  0.00    +0.000 A 
ATOM      5  C   UNL     1       6.344   5.057  16.263  0.00  0.00    +0.000 A 
ATOM      6  C   UNL     1       6.011   5.411  17.561  0.00  0.00    +0.000 A 
ATOM      7  O   UNL     1       7.298   5.616  15.460  0.00  0.00    +0.000 OA
ATOM      8  C   UNL     1       7.159   4.846  14.253  0.00  0.00    +0.000 C 
ATOM      9  O   UNL     1       6.150   3.827  14.347  0.00  0.00    +0.000 OA
ENDROOT
BRANCH   1  11
ATOM     10  C   UNL     1       3.527   5.928  19.664  0.00  0.00    +0.000 C 
ATOM     11  O   UNL     1       4.681   5.127  19.476  0.00  0.00    +0.000 OA
ENDBRANCH   1  11
BRANCH   2  12
ATOM     12  C   UNL     1       3.224   2.802  18.075  0.00  0.00    +0.000 C 
ATOM     13  C   UNL     1       1.952   3.227  18.127  0.00  0.00    +0.000 C 
BRANCH  13  14
ATOM     14  C   UNL     1       0.836   2.423  18.710  0.00  0.00    +0.000 C 
BRANCH  14  15
ATOM     15  O   UNL     1       0.438   3.023  19.931  0.00  0.00    +0.000 OA
ATOM     16  H   UNL     1       1.056   2.712  20.616  0.00  0.00    +0.000 HD
ENDBRANCH  14  15
ENDBRANCH  13  14
ENDBRANCH   2  12
BRANCH   6  17
ATOM     17  O   UNL     1       6.588   6.409  18.306  0.00  0.00    +0.000 OA
ATOM     18  C   UNL     1       7.864   6.164  18.880  0.00  0.00    +0.000 C 
ENDBRANCH   6  17
TORSDOF 5
ENDMDL
MODEL 6
REMARK VINA RESULT:      -6.0      3.207      5.265
REMARK  Name = 
REMARK  7 active torsions:
REMARK  status: ('A' for Active; 'I' for Inactive)
REMARK    1  A    between atoms: C_1  and  O_2
REMARK    2  A    between atoms: O_2  and  C_3
REMARK    3  A    between atoms: C_4  and  C_5
REMARK    4  A    between atoms: C_6  and  C_7
REMARK    5  A    between atoms: C_7  and  O_8
REMARK    6  A    between atoms: C_12  and  O_13
REMARK    7  A    between atoms: O_13  and  C_14
REMARK                            x       y       z     vdW  Elec       q    Type
REMARK                         _______ _______ _______ _____ _____    ______ ____
ROOT
ATOM      1  C   UNL     1       5.000   3.851  18.373  0.00  0.00    +0.000 A 
ATOM      2  C   UNL     1       4.425   4.215  17.124  0.00  0.00    +0.000 A 
ATOM      3  C   UNL     1       3.064   3.953  16.886  0.00  0.00    +0.000 A 
ATOM      4  C   UNL     1       2.324   3.346  17.876  0.00  0.00    +0.000 A 
ATOM      5  C   UNL     1       2.867   2.985  19.087  0.00  0.00    +0.000 A 
ATOM      6  C   UNL     1       4.204   3.216  19.372  0.00  0.00    +0.000 A 
ATOM      7  O   UNL     1       1.927   2.404  19.890  0.00  0.00    +0.000 OA
ATOM      8  C   UNL     1       0.761   2.429  19.048  0.00  0.00    +0.000 C 
ATOM      9  O   UNL     1       1.001   3.037  17.769  0.00  0.00    +0.000 OA
ENDROOT
BRANCH   1  11
ATOM     10  C   UNL     1       6.804   5.278  19.080  0.00  0.00    +0.000 C 
ATOM     11  O   UNL     1       6.324   3.994  18.724  0.00  0.00    +0.000 OA
ENDBRANCH   1  11
BRANCH   2  12
ATOM     12  C   UNL     1       5.141   4.848  16.011  0.00  0.00    +0.000 C 
ATOM     13  C   UNL     1       5.972   4.174  15.201  0.00  0.00    +0.000 C 
BRANCH  13  14
ATOM     14  C   UNL     1       6.733   4.809  14.083  0.00  0.00    +0.000 C 
BRANCH  14  15
ATOM     15  O   UNL     1       7.840   5.505  14.630  0.00  0.00    +0.000 OA
ATOM     16  H   UNL     1       8.504   5.585  13.923  0.00  0.00    +0.000 HD
ENDBRANCH  14  15
ENDBRANCH  13  14
ENDBRANCH   2  12
BRANCH   6  17
ATOM     17  O   UNL     1       4.853   2.904  20.541  0.00  0.00    +0.000 OA
ATOM     18  C   UNL     1       5.058   1.532  20.846  0.00  0.00    +0.000 C 
ENDBRANCH   6  17
TORSDOF 5
ENDMDL
MODEL 7
REMARK VINA RESULT:      -5.9      3.167      4.647
REMARK  Name = 
REMARK  7 active torsions:
REMARK  status: ('A' for Active; 'I' for Inactive)
REMARK    1  A    between atoms: C_1  and  O_2
REMARK    2  A    between atoms: O_2  and  C_3
REMARK    3  A    between atoms: C_4  and  C_5
REMARK    4  A    between atoms: C_6  and  C_7
REMARK    5  A    between atoms: C_7  and  O_8
REMARK    6  A    between atoms: C_12  and  O_13
REMARK    7  A    between atoms: O_13  and  C_14
REMARK                            x       y       z     vdW  Elec       q    Type
REMARK                         _______ _______ _______ _____ _____    ______ ____
ROOT
ATOM      1  C   UNL     1       5.878   4.701  17.614  0.00  0.00    +0.000 A 
ATOM      2  C   UNL     1       4.913   3.844  17.016  0.00  0.00    +0.000 A 
ATOM      3  C   UNL     1       4.976   3.588  15.635  0.00  0.00    +0.000 A 
ATOM      4  C   UNL     1       5.977   4.179  14.897  0.00  0.00    +0.000 A 
ATOM      5  C   UNL     1       6.914   5.013  15.460  0.00  0.00    +0.000 A 
ATOM      6  C   UNL     1       6.896   5.303  16.816  0.00  0.00    +0.000 A 
ATOM      7  O   UNL     1       7.795   5.466  14.518  0.00  0.00    +0.000 OA
ATOM      8  C   UNL     1       7.295   4.843  13.322  0.00  0.00    +0.000 C 
ATOM      9  O   UNL     1       6.146   4.013  13.555  0.00  0.00    +0.000 OA
ENDROOT
BRANCH   1  11
ATOM     10  C   UNL     1       4.746   5.663  19.508  0.00  0.00    +0.000 C 
ATOM     11  O   UNL     1       5.907   5.085  18.936  0.00  0.00    +0.000 OA
ENDBRANCH   1  11
BRANCH   2  12
ATOM     12  C   UNL     1       3.806   3.188  17.721  0.00  0.00    +0.000 C 
ATOM     13  C   UNL     1       2.519   3.505  17.513  0.00  0.00    +0.000 C 
BRANCH  13  14
ATOM     14  C   UNL     1       1.382   2.869  18.245  0.00  0.00    +0.000 C 
BRANCH  14  15
ATOM     15  O   UNL     1       1.666   1.490  18.407  0.00  0.00    +0.000 OA
ATOM     16  H   UNL     1       1.635   1.302  19.361  0.00  0.00    +0.000 HD
ENDBRANCH  14  15
ENDBRANCH  13  14
ENDBRANCH   2  12
BRANCH   6  17
ATOM     17  O   UNL     1       7.777   6.113  17.487  0.00  0.00    +0.000 OA
ATOM     18  C   UNL     1       7.585   7.518  17.411  0.00  0.00    +0.000 C 
ENDBRANCH   6  17
TORSDOF 5
ENDMDL
MODEL 8
REMARK VINA RESULT:      -5.9      2.080      2.367
REMARK  Name = 
REMARK  7 active torsions:
REMARK  status: ('A' for Active; 'I' for Inactive)
REMARK    1  A    between atoms: C_1  and  O_2
REMARK    2  A    between atoms: O_2  and  C_3
REMARK    3  A    between atoms: C_4  and  C_5
REMARK    4  A    between atoms: C_6  and  C_7
REMARK    5  A    between atoms: C_7  and  O_8
REMARK    6  A    between atoms: C_12  and  O_13
REMARK    7  A    between atoms: O_13  and  C_14
REMARK                            x       y       z     vdW  Elec       q    Type
REMARK                         _______ _______ _______ _____ _____    ______ ____
ROOT
ATOM      1  C   UNL     1       1.991   4.450  19.347  0.00  0.00    +0.000 A 
ATOM      2  C   UNL     1       2.201   5.834  19.599  0.00  0.00    +0.000 A 
ATOM      3  C   UNL     1       3.123   6.549  18.814  0.00  0.00    +0.000 A 
ATOM      4  C   UNL     1       3.802   5.882  17.818  0.00  0.00    +0.000 A 
ATOM      5  C   UNL     1       3.612   4.543  17.566  0.00  0.00    +0.000 A 
ATOM      6  C   UNL     1       2.719   3.791  18.312  0.00  0.00    +0.000 A 
ATOM      7  O   UNL     1       4.401   4.124  16.531  0.00  0.00    +0.000 OA
ATOM      8  C   UNL     1       5.104   5.332  16.187  0.00  0.00    +0.000 C 
ATOM      9  O   UNL     1       4.720   6.457  16.992  0.00  0.00    +0.000 OA
ENDROOT
BRANCH   1  11
ATOM     10  C   UNL     1       1.612   3.122  21.318  0.00  0.00    +0.000 C 
ATOM     11  O   UNL     1       1.167   3.615  20.067  0.00  0.00    +0.000 OA
ENDBRANCH   1  11
BRANCH   2  12
ATOM     12  C   UNL     1       1.537   6.618  20.647  0.00  0.00    +0.000 C 
ATOM     13  C   UNL     1       1.604   7.956  20.709  0.00  0.00    +0.000 C 
BRANCH  13  14
ATOM     14  C   UNL     1       0.960   8.767  21.786  0.00  0.00    +0.000 C 
BRANCH  14  15
ATOM     15  O   UNL     1       1.970   9.228  22.668  0.00  0.00    +0.000 OA
ATOM     16  H   UNL     1       1.521   9.577  23.458  0.00  0.00    +0.000 HD
ENDBRANCH  14  15
ENDBRANCH  13  14
ENDBRANCH   2  12
BRANCH   6  17
ATOM     17  O   UNL     1       2.444   2.456  18.150  0.00  0.00    +0.000 OA
ATOM     18  C   UNL     1       3.470   1.521  18.451  0.00  0.00    +0.000 C 
ENDBRANCH   6  17
TORSDOF 5
ENDMDL
MODEL 9
REMARK VINA RESULT:      -5.9      1.714      5.665
REMARK  Name = 
REMARK  7 active torsions:
REMARK  status: ('A' for Active; 'I' for Inactive)
REMARK    1  A    between atoms: C_1  and  O_2
REMARK    2  A    between atoms: O_2  and  C_3
REMARK    3  A    between atoms: C_4  and  C_5
REMARK    4  A    between atoms: C_6  and  C_7
REMARK    5  A    between atoms: C_7  and  O_8
REMARK    6  A    between atoms: C_12  and  O_13
REMARK    7  A    between atoms: O_13  and  C_14
REMARK                            x       y       z     vdW  Elec       q    Type
REMARK                         _______ _______ _______ _____ _____    ______ ____
ROOT
ATOM      1  C   UNL     1       4.390   5.729  17.135  0.00  0.00    +0.000 A 
ATOM      2  C   UNL     1       4.603   4.409  16.650  0.00  0.00    +0.000 A 
ATOM      3  C   UNL     1       3.807   3.356  17.135  0.00  0.00    +0.000 A 
ATOM      4  C   UNL     1       2.840   3.636  18.074  0.00  0.00    +0.000 A 
ATOM      5  C   UNL     1       2.624   4.906  18.555  0.00  0.00    +0.000 A 
ATOM      6  C   UNL     1       3.382   5.980  18.113  0.00  0.00    +0.000 A 
ATOM      7  O   UNL     1       1.611   4.917  19.472  0.00  0.00    +0.000 OA
ATOM      8  C   UNL     1       1.239   3.528  19.518  0.00  0.00    +0.000 C 
ATOM      9  O   UNL     1       2.007   2.708  18.623  0.00  0.00    +0.000 OA
ENDROOT
BRANCH   1  11
ATOM     10  C   UNL     1       6.444   6.973  17.293  0.00  0.00    +0.000 C 
ATOM     11  O   UNL     1       5.124   6.842  16.794  0.00  0.00    +0.000 OA
ENDBRANCH   1  11
BRANCH   2  12
ATOM     12  C   UNL     1       5.620   4.019  15.666  0.00  0.00    +0.000 C 
ATOM     13  C   UNL     1       5.592   4.427  14.388  0.00  0.00    +0.000 C 
BRANCH  13  14
ATOM     14  C   UNL     1       6.601   4.014  13.367  0.00  0.00    +0.000 C 
BRANCH  14  15
ATOM     15  O   UNL     1       6.141   2.835  12.730  0.00  0.00    +0.000 OA
ATOM     16  H   UNL     1       6.672   2.097  13.077  0.00  0.00    +0.000 HD
ENDBRANCH  14  15
ENDBRANCH  13  14
ENDBRANCH   2  12
BRANCH   6  17
ATOM     17  O   UNL     1       3.257   7.286  18.516  0.00  0.00    +0.000 OA
ATOM     18  C   UNL     1       2.214   8.065  17.946  0.00  0.00    +0.000 C 
ENDBRANCH   6  17
TORSDOF 5
ENDMDL
