MODEL 1
REMARK VINA RESULT:      -9.2      0.000      0.000
REMARK  Name = 
REMARK  7 active torsions:
REMARK  status: ('A' for Active; 'I' for Inactive)
REMARK    1  A    between atoms: C_1  and  O_2
REMARK    2  A    between atoms: O_2  and  C_3
REMARK    3  A    between atoms: C_6  and  N_7
REMARK    4  A    between atoms: C_12  and  C_13
REMARK    5  A    between atoms: C_13  and  N_14
REMARK    6  A    between atoms: C_15  and  C_16
REMARK    7  A    between atoms: C_19  and  N_20
REMARK                            x       y       z     vdW  Elec       q    Type
REMARK                         _______ _______ _______ _____ _____    ______ ____
ROOT
ATOM      1  N   UNL     1       3.912   5.254  18.736  0.00  0.00    +0.000 N 
ATOM      2  C   UNL     1       3.362   5.984  19.788  0.00  0.00    +0.000 A 
ATOM      3  N   UNL     1       3.181   5.030  20.711  0.00  0.00    +0.000 NA
ATOM      4  C   UNL     1       2.666   4.009  19.940  0.00  0.00    +0.000 A 
ATOM      5  C   UNL     1       1.752   3.020  20.319  0.00  0.00    +0.000 A 
ATOM      6  C   UNL     1       0.719   2.779  19.411  0.00  0.00    +0.000 A 
ATOM      7  C   UNL     1       0.718   3.393  18.151  0.00  0.00    +0.000 A 
ATOM      8  C   UNL     1       1.834   4.112  17.662  0.00  0.00    +0.000 A 
ATOM      9  C   UNL     1       2.868   4.338  18.585  0.00  0.00    +0.000 A 
ENDROOT
BRANCH   2  10
ATOM     10  C   UNL     1       2.426   7.119  19.469  0.00  0.00    +0.000 A 
ATOM     11  C   UNL     1       2.442   7.720  18.207  0.00  0.00    +0.000 A 
ATOM     12  C   UNL     1       1.693   8.886  17.961  0.00  0.00    +0.000 A 
ATOM     13  C   UNL     1       0.910   9.452  18.980  0.00  0.00    +0.000 A 
ATOM     14  C   UNL     1       0.917   8.907  20.252  0.00  0.00    +0.000 A 
ATOM     15  C   UNL     1       1.691   7.780  20.482  0.00  0.00    +0.000 A 
BRANCH  13  16
ATOM     16  N   UNL     1       0.112  10.654  18.741  0.00  0.00    +0.000 N 
ATOM     17  O   UNL     1       0.360  11.653  19.425  0.00  0.00    +0.000 OA
ATOM     18  O   UNL     1      -0.779  10.594  17.878  0.00  0.00    +0.000 OA
ENDBRANCH  13  16
ENDBRANCH   2  10
BRANCH   1  19
ATOM     19  C   UNL     1       4.929   5.802  17.847  0.00  0.00    +0.000 C 
BRANCH  19  25
ATOM     20  N   UNL     1       6.960   4.586  16.855  0.00  0.00    +0.000 N 
ATOM     21  N   UNL     1       8.191   4.251  17.176  0.00  0.00    +0.000 NA
ATOM     22  O   UNL     1       8.316   4.602  18.514  0.00  0.00    +0.000 OA
ATOM     23  C   UNL     1       7.142   5.174  18.973  0.00  0.00    +0.000 A 
ATOM     24  O   UNL     1       7.117   5.626  20.103  0.00  0.00    +0.000 OA
ATOM     25  C   UNL     1       6.246   5.116  17.906  0.00  0.00    +0.000 A 
BRANCH  20  29
ATOM     26  C   UNL     1       5.981   3.916  12.753  0.00  0.00    +0.000 A 
ATOM     27  C   UNL     1       5.189   3.374  13.763  0.00  0.00    +0.000 A 
ATOM     28  C   UNL     1       5.514   3.583  15.107  0.00  0.00    +0.000 A 
ATOM     29  C   UNL     1       6.642   4.346  15.449  0.00  0.00    +0.000 A 
ATOM     30  C   UNL     1       7.434   4.878  14.434  0.00  0.00    +0.000 A 
ATOM     31  C   UNL     1       7.115   4.647  13.093  0.00  0.00    +0.000 A 
BRANCH  26  33
ATOM     32  C   UNL     1       4.240   3.168  11.342  0.00  0.00    +0.000 C 
ATOM     33  O   UNL     1       5.573   3.655  11.477  0.00  0.00    +0.000 OA
ENDBRANCH  26  33
ENDBRANCH  20  29
ENDBRANCH  19  25
ENDBRANCH   1  19
TORSDOF 6
ENDMDL
MODEL 2
REMARK VINA RESULT:      -9.2      0.207      1.007
REMARK  Name = 
REMARK  7 active torsions:
REMARK  status: ('A' for Active; 'I' for Inactive)
REMARK    1  A    between atoms: C_1  and  O_2
REMARK    2  A    between atoms: O_2  and  C_3
REMARK    3  A    between atoms: C_6  and  N_7
REMARK    4  A    between atoms: C_12  and  C_13
REMARK    5  A    between atoms: C_13  and  N_14
REMARK    6  A    between atoms: C_15  and  C_16
REMARK    7  A    between atoms: C_19  and  N_20
REMARK                            x       y       z     vdW  Elec       q    Type
REMARK                         _______ _______ _______ _____ _____    ______ ____
ROOT
ATOM      1  N   UNL     1       3.952   5.372  18.835  0.00  0.00    +0.000 N 
ATOM      2  C   UNL     1       3.299   6.065  19.854  0.00  0.00    +0.000 A 
ATOM      3  N   UNL     1       3.057   5.086  20.733  0.00  0.00    +0.000 NA
ATOM      4  C   UNL     1       2.628   4.077  19.896  0.00  0.00    +0.000 A 
ATOM      5  C   UNL     1       1.704   3.064  20.170  0.00  0.00    +0.000 A 
ATOM      6  C   UNL     1       0.756   2.832  19.169  0.00  0.00    +0.000 A 
ATOM      7  C   UNL     1       0.853   3.479  17.929  0.00  0.00    +0.000 A 
ATOM      8  C   UNL     1       1.995   4.227  17.558  0.00  0.00    +0.000 A 
ATOM      9  C   UNL     1       2.940   4.445  18.572  0.00  0.00    +0.000 A 
ENDROOT
BRANCH   2  10
ATOM     10  C   UNL     1       2.375   7.194  19.483  0.00  0.00    +0.000 A 
ATOM     11  C   UNL     1       2.409   7.749  18.201  0.00  0.00    +0.000 A 
ATOM     12  C   UNL     1       1.670   8.910  17.905  0.00  0.00    +0.000 A 
ATOM     13  C   UNL     1       0.880   9.518  18.893  0.00  0.00    +0.000 A 
ATOM     14  C   UNL     1       0.869   9.018  20.184  0.00  0.00    +0.000 A 
ATOM     15  C   UNL     1       1.633   7.896  20.464  0.00  0.00    +0.000 A 
BRANCH  13  16
ATOM     16  N   UNL     1       0.091  10.714  18.602  0.00  0.00    +0.000 N 
ATOM     17  O   UNL     1      -1.005  10.560  18.053  0.00  0.00    +0.000 OA
ATOM     18  O   UNL     1       0.577  11.816  18.910  0.00  0.00    +0.000 OA
ENDBRANCH  13  16
ENDBRANCH   2  10
BRANCH   1  19
ATOM     19  C   UNL     1       5.032   5.960  18.052  0.00  0.00    +0.000 C 
BRANCH  19  25
ATOM     20  N   UNL     1       6.943   4.600  17.009  0.00  0.00    +0.000 N 
ATOM     21  N   UNL     1       8.164   4.199  17.289  0.00  0.00    +0.000 NA
ATOM     22  O   UNL     1       8.366   4.572  18.612  0.00  0.00    +0.000 OA
ATOM     23  C   UNL     1       7.248   5.225  19.103  0.00  0.00    +0.000 A 
ATOM     24  O   UNL     1       7.297   5.704  20.221  0.00  0.00    +0.000 OA
ATOM     25  C   UNL     1       6.306   5.197  18.075  0.00  0.00    +0.000 A 
BRANCH  20  29
ATOM     26  C   UNL     1       5.850   3.830  12.955  0.00  0.00    +0.000 A 
ATOM     27  C   UNL     1       7.016   4.534  13.247  0.00  0.00    +0.000 A 
ATOM     28  C   UNL     1       7.370   4.796  14.574  0.00  0.00    +0.000 A 
ATOM     29  C   UNL     1       6.553   4.348  15.624  0.00  0.00    +0.000 A 
ATOM     30  C   UNL     1       5.385   3.652  15.324  0.00  0.00    +0.000 A 
ATOM     31  C   UNL     1       5.025   3.412  13.994  0.00  0.00    +0.000 A 
BRANCH  26  33
ATOM     32  C   UNL     1       4.279   3.192  11.310  0.00  0.00    +0.000 C 
ATOM     33  O   UNL     1       5.599   3.625  11.628  0.00  0.00    +0.000 OA
ENDBRANCH  26  33
ENDBRANCH  20  29
ENDBRANCH  19  25
ENDBRANCH   1  19
TORSDOF 6
ENDMDL
MODEL 3
REMARK VINA RESULT:      -8.5      2.386      8.462
REMARK  Name = 
REMARK  7 active torsions:
REMARK  status: ('A' for Active; 'I' for Inactive)
REMARK    1  A    between atoms: C_1  and  O_2
REMARK    2  A    between atoms: O_2  and  C_3
REMARK    3  A    between atoms: C_6  and  N_7
REMARK    4  A    between atoms: C_12  and  C_13
REMARK    5  A    between atoms: C_13  and  N_14
REMARK    6  A    between atoms: C_15  and  C_16
REMARK    7  A    between atoms: C_19  and  N_20
REMARK                            x       y       z     vdW  Elec       q    Type
REMARK                         _______ _______ _______ _____ _____    ______ ____
ROOT
ATOM      1  N   UNL     1       1.963   6.087  19.841  0.00  0.00    +0.000 N 
ATOM      2  C   UNL     1       2.203   5.449  18.625  0.00  0.00    +0.000 A 
ATOM      3  N   UNL     1       1.116   4.677  18.508  0.00  0.00    +0.000 NA
ATOM      4  C   UNL     1       1.002   4.183  19.791  0.00  0.00    +0.000 A 
ATOM      5  C   UNL     1       0.500   2.942  20.195  0.00  0.00    +0.000 A 
ATOM      6  C   UNL     1       1.260   2.273  21.158  0.00  0.00    +0.000 A 
ATOM      7  C   UNL     1       2.356   2.901  21.765  0.00  0.00    +0.000 A 
ATOM      8  C   UNL     1       2.625   4.279  21.593  0.00  0.00    +0.000 A 
ATOM      9  C   UNL     1       1.847   4.938  20.627  0.00  0.00    +0.000 A 
ENDROOT
BRANCH   2  10
ATOM     10  C   UNL     1       3.617   5.076  18.271  0.00  0.00    +0.000 A 
ATOM     11  C   UNL     1       4.679   5.438  19.105  0.00  0.00    +0.000 A 
ATOM     12  C   UNL     1       6.010   5.241  18.694  0.00  0.00    +0.000 A 
ATOM     13  C   UNL     1       6.288   4.666  17.444  0.00  0.00    +0.000 A 
ATOM     14  C   UNL     1       5.257   4.346  16.578  0.00  0.00    +0.000 A 
ATOM     15  C   UNL     1       3.953   4.583  16.987  0.00  0.00    +0.000 A 
BRANCH  13  16
ATOM     16  N   UNL     1       7.663   4.437  17.004  0.00  0.00    +0.000 N 
ATOM     17  O   UNL     1       7.913   4.583  15.802  0.00  0.00    +0.000 OA
ATOM     18  O   UNL     1       8.495   4.095  17.861  0.00  0.00    +0.000 OA
ENDBRANCH  13  16
ENDBRANCH   2  10
BRANCH   1  19
ATOM     19  C   UNL     1       2.360   7.467  20.097  0.00  0.00    +0.000 C 
BRANCH  19  25
ATOM     20  N   UNL     1       1.062   9.538  19.312  0.00  0.00    +0.000 N 
ATOM     21  N   UNL     1       0.994  10.356  18.285  0.00  0.00    +0.000 NA
ATOM     22  O   UNL     1       1.834   9.797  17.331  0.00  0.00    +0.000 OA
ATOM     23  C   UNL     1       2.421   8.643  17.823  0.00  0.00    +0.000 A 
ATOM     24  O   UNL     1       3.261   8.082  17.144  0.00  0.00    +0.000 OA
ATOM     25  C   UNL     1       1.878   8.451  19.093  0.00  0.00    +0.000 A 
BRANCH  20  29
ATOM     26  C   UNL     1      -1.272  10.838  22.643  0.00  0.00    +0.000 A 
ATOM     27  C   UNL     1      -1.271  11.569  21.458  0.00  0.00    +0.000 A 
ATOM     28  C   UNL     1      -0.499  11.150  20.369  0.00  0.00    +0.000 A 
ATOM     29  C   UNL     1       0.280   9.986  20.463  0.00  0.00    +0.000 A 
ATOM     30  C   UNL     1       0.280   9.265  21.654  0.00  0.00    +0.000 A 
ATOM     31  C   UNL     1      -0.477   9.701  22.745  0.00  0.00    +0.000 A 
BRANCH  26  33
ATOM     32  C   UNL     1      -2.780  12.522  23.330  0.00  0.00    +0.000 C 
ATOM     33  O   UNL     1      -2.062  11.331  23.642  0.00  0.00    +0.000 OA
ENDBRANCH  26  33
ENDBRANCH  20  29
ENDBRANCH  19  25
ENDBRANCH   1  19
TORSDOF 6
ENDMDL
MODEL 4
REMARK VINA RESULT:      -8.3      1.391      1.473
REMARK  Name = 
REMARK  7 active torsions:
REMARK  status: ('A' for Active; 'I' for Inactive)
REMARK    1  A    between atoms: C_1  and  O_2
REMARK    2  A    between atoms: O_2  and  C_3
REMARK    3  A    between atoms: C_6  and  N_7
REMARK    4  A    between atoms: C_12  and  C_13
REMARK    5  A    between atoms: C_13  and  N_14
REMARK    6  A    between atoms: C_15  and  C_16
REMARK    7  A    between atoms: C_19  and  N_20
REMARK                            x       y       z     vdW  Elec       q    Type
REMARK                         _______ _______ _______ _____ _____    ______ ____
ROOT
ATOM      1  N   UNL     1       3.833   5.329  17.754  0.00  0.00    +0.000 N 
ATOM      2  C   UNL     1       3.749   6.028  18.958  0.00  0.00    +0.000 A 
ATOM      3  N   UNL     1       4.061   5.075  19.844  0.00  0.00    +0.000 NA
ATOM      4  C   UNL     1       3.334   4.009  19.355  0.00  0.00    +0.000 A 
ATOM      5  C   UNL     1       2.754   2.959  20.074  0.00  0.00    +0.000 A 
ATOM      6  C   UNL     1       1.447   2.632  19.706  0.00  0.00    +0.000 A 
ATOM      7  C   UNL     1       0.849   3.230  18.588  0.00  0.00    +0.000 A 
ATOM      8  C   UNL     1       1.583   4.024  17.675  0.00  0.00    +0.000 A 
ATOM      9  C   UNL     1       2.897   4.337  18.057  0.00  0.00    +0.000 A 
ENDROOT
BRANCH   2  10
ATOM     10  C   UNL     1       2.690   7.087  19.106  0.00  0.00    +0.000 A 
ATOM     11  C   UNL     1       2.494   8.042  18.105  0.00  0.00    +0.000 A 
ATOM     12  C   UNL     1       1.625   9.129  18.314  0.00  0.00    +0.000 A 
ATOM     13  C   UNL     1       0.935   9.260  19.530  0.00  0.00    +0.000 A 
ATOM     14  C   UNL     1       1.150   8.357  20.556  0.00  0.00    +0.000 A 
ATOM     15  C   UNL     1       2.038   7.314  20.342  0.00  0.00    +0.000 A 
BRANCH  13  16
ATOM     16  N   UNL     1       0.015  10.373  19.763  0.00  0.00    +0.000 N 
ATOM     17  O   UNL     1       0.163  11.033  20.798  0.00  0.00    +0.000 OA
ATOM     18  O   UNL     1      -0.870  10.579  18.916  0.00  0.00    +0.000 OA
ENDBRANCH  13  16
ENDBRANCH   2  10
BRANCH   1  19
ATOM     19  C   UNL     1       4.314   5.941  16.522  0.00  0.00    +0.000 C 
BRANCH  19  25
ATOM     20  N   UNL     1       6.586   5.538  15.396  0.00  0.00    +0.000 N 
ATOM     21  N   UNL     1       7.826   5.972  15.445  0.00  0.00    +0.000 NA
ATOM     22  O   UNL     1       7.859   6.829  16.537  0.00  0.00    +0.000 OA
ATOM     23  C   UNL     1       6.607   6.913  17.121  0.00  0.00    +0.000 A 
ATOM     24  O   UNL     1       6.441   7.700  18.035  0.00  0.00    +0.000 OA
ATOM     25  C   UNL     1       5.793   6.034  16.407  0.00  0.00    +0.000 A 
BRANCH  20  29
ATOM     26  C   UNL     1       5.780   2.988  12.068  0.00  0.00    +0.000 A 
ATOM     27  C   UNL     1       4.827   3.159  13.069  0.00  0.00    +0.000 A 
ATOM     28  C   UNL     1       5.093   3.986  14.165  0.00  0.00    +0.000 A 
ATOM     29  C   UNL     1       6.325   4.653  14.263  0.00  0.00    +0.000 A 
ATOM     30  C   UNL     1       7.276   4.470  13.263  0.00  0.00    +0.000 A 
ATOM     31  C   UNL     1       7.011   3.625  12.181  0.00  0.00    +0.000 A 
BRANCH  26  33
ATOM     32  C   UNL     1       6.127   0.929  10.962  0.00  0.00    +0.000 C 
ATOM     33  O   UNL     1       5.418   2.163  11.041  0.00  0.00    +0.000 OA
ENDBRANCH  26  33
ENDBRANCH  20  29
ENDBRANCH  19  25
ENDBRANCH   1  19
TORSDOF 6
ENDMDL
MODEL 5
REMARK VINA RESULT:      -8.3      2.111      7.816
REMARK  Name = 
REMARK  7 active torsions:
REMARK  status: ('A' for Active; 'I' for Inactive)
REMARK    1  A    between atoms: C_1  and  O_2
REMARK    2  A    between atoms: O_2  and  C_3
REMARK    3  A    between atoms: C_6  and  N_7
REMARK    4  A    between atoms: C_12  and  C_13
REMARK    5  A    between atoms: C_13  and  N_14
REMARK    6  A    between atoms: C_15  and  C_16
REMARK    7  A    between atoms: C_19  and  N_20
REMARK                            x       y       z     vdW  Elec       q    Type
REMARK                         _______ _______ _______ _____ _____    ______ ____
ROOT
ATOM      1  N   UNL     1       5.268   5.173  18.295  0.00  0.00    +0.000 N 
ATOM      2  C   UNL     1       6.264   4.321  17.818  0.00  0.00    +0.000 A 
ATOM      3  N   UNL     1       7.255   4.555  18.687  0.00  0.00    +0.000 NA
ATOM      4  C   UNL     1       7.201   5.929  18.789  0.00  0.00    +0.000 A 
ATOM      5  C   UNL     1       8.255   6.818  19.026  0.00  0.00    +0.000 A 
ATOM      6  C   UNL     1       8.274   7.954  18.214  0.00  0.00    +0.000 A 
ATOM      7  C   UNL     1       7.210   8.228  17.343  0.00  0.00    +0.000 A 
ATOM      8  C   UNL     1       5.998   7.499  17.383  0.00  0.00    +0.000 A 
ATOM      9  C   UNL     1       5.993   6.364  18.209  0.00  0.00    +0.000 A 
ENDROOT
BRANCH   2  10
ATOM     10  C   UNL     1       6.395   4.123  16.332  0.00  0.00    +0.000 A 
ATOM     11  C   UNL     1       7.418   4.752  15.617  0.00  0.00    +0.000 A 
ATOM     12  C   UNL     1       7.441   4.706  14.211  0.00  0.00    +0.000 A 
ATOM     13  C   UNL     1       6.441   4.014  13.509  0.00  0.00    +0.000 A 
ATOM     14  C   UNL     1       5.390   3.426  14.189  0.00  0.00    +0.000 A 
ATOM     15  C   UNL     1       5.366   3.516  15.573  0.00  0.00    +0.000 A 
BRANCH  13  16
ATOM     16  N   UNL     1       6.455   3.939  12.049  0.00  0.00    +0.000 N 
ATOM     17  O   UNL     1       5.573   3.269  11.500  0.00  0.00    +0.000 OA
ATOM     18  O   UNL     1       7.361   4.540  11.447  0.00  0.00    +0.000 OA
ENDBRANCH  13  16
ENDBRANCH   2  10
BRANCH   1  19
ATOM     19  C   UNL     1       3.852   4.830  18.245  0.00  0.00    +0.000 C 
BRANCH  19  25
ATOM     20  N   UNL     1       2.339   5.855  20.049  0.00  0.00    +0.000 N 
ATOM     21  N   UNL     1       1.683   5.503  21.132  0.00  0.00    +0.000 NA
ATOM     22  O   UNL     1       2.062   4.188  21.366  0.00  0.00    +0.000 OA
ATOM     23  C   UNL     1       2.939   3.759  20.384  0.00  0.00    +0.000 A 
ATOM     24  O   UNL     1       3.293   2.594  20.388  0.00  0.00    +0.000 OA
ATOM     25  C   UNL     1       3.156   4.860  19.558  0.00  0.00    +0.000 A 
BRANCH  20  29
ATOM     26  C   UNL     1       1.473   9.834  18.765  0.00  0.00    +0.000 A 
ATOM     27  C   UNL     1       1.156   9.428  20.059  0.00  0.00    +0.000 A 
ATOM     28  C   UNL     1       1.430   8.122  20.478  0.00  0.00    +0.000 A 
ATOM     29  C   UNL     1       2.030   7.209  19.596  0.00  0.00    +0.000 A 
ATOM     30  C   UNL     1       2.336   7.620  18.301  0.00  0.00    +0.000 A 
ATOM     31  C   UNL     1       2.040   8.920  17.882  0.00  0.00    +0.000 A 
BRANCH  26  33
ATOM     32  C   UNL     1       1.030  12.010  19.572  0.00  0.00    +0.000 C 
ATOM     33  O   UNL     1       1.168  11.129  18.460  0.00  0.00    +0.000 OA
ENDBRANCH  26  33
ENDBRANCH  20  29
ENDBRANCH  19  25
ENDBRANCH   1  19
TORSDOF 6
ENDMDL
MODEL 6
REMARK VINA RESULT:      -8.3      1.379      1.758
REMARK  Name = 
REMARK  7 active torsions:
REMARK  status: ('A' for Active; 'I' for Inactive)
REMARK    1  A    between atoms: C_1  and  O_2
REMARK    2  A    between atoms: O_2  and  C_3
REMARK    3  A    between atoms: C_6  and  N_7
REMARK    4  A    between atoms: C_12  and  C_13
REMARK    5  A    between atoms: C_13  and  N_14
REMARK    6  A    between atoms: C_15  and  C_16
REMARK    7  A    between atoms: C_19  and  N_20
REMARK                            x       y       z     vdW  Elec       q    Type
REMARK                         _______ _______ _______ _____ _____    ______ ____
ROOT
ATOM      1  N   UNL     1       3.840   5.238  17.770  0.00  0.00    +0.000 N 
ATOM      2  C   UNL     1       3.781   5.962  18.960  0.00  0.00    +0.000 A 
ATOM      3  N   UNL     1       4.093   5.023  19.861  0.00  0.00    +0.000 NA
ATOM      4  C   UNL     1       3.348   3.957  19.403  0.00  0.00    +0.000 A 
ATOM      5  C   UNL     1       2.765   2.928  20.151  0.00  0.00    +0.000 A 
ATOM      6  C   UNL     1       1.450   2.609  19.807  0.00  0.00    +0.000 A 
ATOM      7  C   UNL     1       0.843   3.191  18.685  0.00  0.00    +0.000 A 
ATOM      8  C   UNL     1       1.574   3.958  17.747  0.00  0.00    +0.000 A 
ATOM      9  C   UNL     1       2.897   4.263  18.105  0.00  0.00    +0.000 A 
ENDROOT
BRANCH   2  10
ATOM     10  C   UNL     1       2.736   7.036  19.100  0.00  0.00    +0.000 A 
ATOM     11  C   UNL     1       2.559   7.992  18.097  0.00  0.00    +0.000 A 
ATOM     12  C   UNL     1       1.705   9.092  18.300  0.00  0.00    +0.000 A 
ATOM     13  C   UNL     1       1.010   9.235  19.511  0.00  0.00    +0.000 A 
ATOM     14  C   UNL     1       1.206   8.331  20.540  0.00  0.00    +0.000 A 
ATOM     15  C   UNL     1       2.081   7.275  20.333  0.00  0.00    +0.000 A 
BRANCH  13  16
ATOM     16  N   UNL     1       0.105  10.361  19.737  0.00  0.00    +0.000 N 
ATOM     17  O   UNL     1      -0.814  10.531  18.928  0.00  0.00    +0.000 OA
ATOM     18  O   UNL     1       0.322  11.090  20.720  0.00  0.00    +0.000 OA
ENDBRANCH  13  16
ENDBRANCH   2  10
BRANCH   1  19
ATOM     19  C   UNL     1       4.312   5.819  16.519  0.00  0.00    +0.000 C 
BRANCH  19  25
ATOM     20  N   UNL     1       6.564   5.433  15.349  0.00  0.00    +0.000 N 
ATOM     21  N   UNL     1       7.809   5.853  15.395  0.00  0.00    +0.000 NA
ATOM     22  O   UNL     1       7.865   6.672  16.515  0.00  0.00    +0.000 OA
ATOM     23  C   UNL     1       6.621   6.749  17.118  0.00  0.00    +0.000 A 
ATOM     24  O   UNL     1       6.476   7.506  18.060  0.00  0.00    +0.000 OA
ATOM     25  C   UNL     1       5.789   5.902  16.387  0.00  0.00    +0.000 A 
BRANCH  20  29
ATOM     26  C   UNL     1       5.774   2.929  11.981  0.00  0.00    +0.000 A 
ATOM     27  C   UNL     1       7.001   3.577  12.104  0.00  0.00    +0.000 A 
ATOM     28  C   UNL     1       7.258   4.405  13.201  0.00  0.00    +0.000 A 
ATOM     29  C   UNL     1       6.279   4.589  14.191  0.00  0.00    +0.000 A 
ATOM     30  C   UNL     1       5.052   3.945  14.057  0.00  0.00    +0.000 A 
ATOM     31  C   UNL     1       4.794   3.135  12.947  0.00  0.00    +0.000 A 
BRANCH  26  33
ATOM     32  C   UNL     1       6.123   0.810  10.997  0.00  0.00    +0.000 C 
ATOM     33  O   UNL     1       5.628   2.141  10.876  0.00  0.00    +0.000 OA
ENDBRANCH  26  33
ENDBRANCH  20  29
ENDBRANCH  19  25
ENDBRANCH   1  19
TORSDOF 6
ENDMDL
MODEL 7
REMARK VINA RESULT:      -8.2      2.104      7.841
REMARK  Name = 
REMARK  7 active torsions:
REMARK  status: ('A' for Active; 'I' for Inactive)
REMARK    1  A    between atoms: C_1  and  O_2
REMARK    2  A    between atoms: O_2  and  C_3
REMARK    3  A    between atoms: C_6  and  N_7
REMARK    4  A    between atoms: C_12  and  C_13
REMARK    5  A    between atoms: C_13  and  N_14
REMARK    6  A    between atoms: C_15  and  C_16
REMARK    7  A    between atoms: C_19  and  N_20
REMARK                            x       y       z     vdW  Elec       q    Type
REMARK                         _______ _______ _______ _____ _____    ______ ____
ROOT
ATOM      1  N   UNL     1       5.249   5.212  18.297  0.00  0.00    +0.000 N 
ATOM      2  C   UNL     1       6.232   4.339  17.833  0.00  0.00    +0.000 A 
ATOM      3  N   UNL     1       7.222   4.560  18.706  0.00  0.00    +0.000 NA
ATOM      4  C   UNL     1       7.193   5.936  18.798  0.00  0.00    +0.000 A 
ATOM      5  C   UNL     1       8.261   6.807  19.035  0.00  0.00    +0.000 A 
ATOM      6  C   UNL     1       8.306   7.937  18.215  0.00  0.00    +0.000 A 
ATOM      7  C   UNL     1       7.252   8.224  17.336  0.00  0.00    +0.000 A 
ATOM      8  C   UNL     1       6.027   7.518  17.373  0.00  0.00    +0.000 A 
ATOM      9  C   UNL     1       5.997   6.389  18.208  0.00  0.00    +0.000 A 
ENDROOT
BRANCH   2  10
ATOM     10  C   UNL     1       6.368   4.128  16.348  0.00  0.00    +0.000 A 
ATOM     11  C   UNL     1       7.392   4.751  15.631  0.00  0.00    +0.000 A 
ATOM     12  C   UNL     1       7.420   4.693  14.226  0.00  0.00    +0.000 A 
ATOM     13  C   UNL     1       6.423   3.994  13.527  0.00  0.00    +0.000 A 
ATOM     14  C   UNL     1       5.369   3.411  14.209  0.00  0.00    +0.000 A 
ATOM     15  C   UNL     1       5.341   3.513  15.591  0.00  0.00    +0.000 A 
BRANCH  13  16
ATOM     16  N   UNL     1       6.441   3.906  12.067  0.00  0.00    +0.000 N 
ATOM     17  O   UNL     1       7.344   4.501  11.468  0.00  0.00    +0.000 OA
ATOM     18  O   UNL     1       5.540   3.253  11.516  0.00  0.00    +0.000 OA
ENDBRANCH  13  16
ENDBRANCH   2  10
BRANCH   1  19
ATOM     19  C   UNL     1       3.827   4.895  18.242  0.00  0.00    +0.000 C 
BRANCH  19  25
ATOM     20  N   UNL     1       2.328   5.706  20.162  0.00  0.00    +0.000 N 
ATOM     21  N   UNL     1       1.705   5.237  21.221  0.00  0.00    +0.000 NA
ATOM     22  O   UNL     1       2.125   3.917  21.324  0.00  0.00    +0.000 OA
ATOM     23  C   UNL     1       2.991   3.606  20.290  0.00  0.00    +0.000 A 
ATOM     24  O   UNL     1       3.376   2.456  20.179  0.00  0.00    +0.000 OA
ATOM     25  C   UNL     1       3.160   4.784  19.565  0.00  0.00    +0.000 A 
BRANCH  20  29
ATOM     26  C   UNL     1       1.252   9.722  19.190  0.00  0.00    +0.000 A 
ATOM     27  C   UNL     1       1.885   8.915  18.247  0.00  0.00    +0.000 A 
ATOM     28  C   UNL     1       2.248   7.604  18.567  0.00  0.00    +0.000 A 
ATOM     29  C   UNL     1       1.973   7.087  19.843  0.00  0.00    +0.000 A 
ATOM     30  C   UNL     1       1.347   7.901  20.783  0.00  0.00    +0.000 A 
ATOM     31  C   UNL     1       1.007   9.219  20.463  0.00  0.00    +0.000 A 
BRANCH  26  33
ATOM     32  C   UNL     1      -0.452  11.244  18.590  0.00  0.00    +0.000 C 
ATOM     33  O   UNL     1       0.937  10.983  18.774  0.00  0.00    +0.000 OA
ENDBRANCH  26  33
ENDBRANCH  20  29
ENDBRANCH  19  25
ENDBRANCH   1  19
TORSDOF 6
ENDMDL
MODEL 8
REMARK VINA RESULT:      -8.1      2.087      7.951
REMARK  Name = 
REMARK  7 active torsions:
REMARK  status: ('A' for Active; 'I' for Inactive)
REMARK    1  A    between atoms: C_1  and  O_2
REMARK    2  A    between atoms: O_2  and  C_3
REMARK    3  A    between atoms: C_6  and  N_7
REMARK    4  A    between atoms: C_12  and  C_13
REMARK    5  A    between atoms: C_13  and  N_14
REMARK    6  A    between atoms: C_15  and  C_16
REMARK    7  A    between atoms: C_19  and  N_20
REMARK                            x       y       z     vdW  Elec       q    Type
REMARK                         _______ _______ _______ _____ _____    ______ ____
ROOT
ATOM      1  N   UNL     1       5.183   5.274  18.193  0.00  0.00    +0.000 N 
ATOM      2  C   UNL     1       6.122   4.412  17.627  0.00  0.00    +0.000 A 
ATOM      3  N   UNL     1       7.129   4.499  18.504  0.00  0.00    +0.000 NA
ATOM      4  C   UNL     1       7.162   5.858  18.737  0.00  0.00    +0.000 A 
ATOM      5  C   UNL     1       8.270   6.653  19.047  0.00  0.00    +0.000 A 
ATOM      6  C   UNL     1       8.356   7.859  18.348  0.00  0.00    +0.000 A 
ATOM      7  C   UNL     1       7.308   8.280  17.518  0.00  0.00    +0.000 A 
ATOM      8  C   UNL     1       6.053   7.627  17.500  0.00  0.00    +0.000 A 
ATOM      9  C   UNL     1       5.981   6.421  18.215  0.00  0.00    +0.000 A 
ENDROOT
BRANCH   2  10
ATOM     10  C   UNL     1       6.233   4.350  16.127  0.00  0.00    +0.000 A 
ATOM     11  C   UNL     1       5.412   3.496  15.387  0.00  0.00    +0.000 A 
ATOM     12  C   UNL     1       5.628   3.311  14.009  0.00  0.00    +0.000 A 
ATOM     13  C   UNL     1       6.668   3.994  13.358  0.00  0.00    +0.000 A 
ATOM     14  C   UNL     1       7.527   4.807  14.076  0.00  0.00    +0.000 A 
ATOM     15  C   UNL     1       7.319   4.946  15.440  0.00  0.00    +0.000 A 
BRANCH  13  16
ATOM     16  N   UNL     1       6.901   3.830  11.924  0.00  0.00    +0.000 N 
ATOM     17  O   UNL     1       7.301   4.813  11.291  0.00  0.00    +0.000 OA
ATOM     18  O   UNL     1       6.668   2.717  11.424  0.00  0.00    +0.000 OA
ENDBRANCH  13  16
ENDBRANCH   2  10
BRANCH   1  19
ATOM     19  C   UNL     1       3.748   5.026  18.126  0.00  0.00    +0.000 C 
BRANCH  19  25
ATOM     20  N   UNL     1       2.249   6.001  19.968  0.00  0.00    +0.000 N 
ATOM     21  N   UNL     1       1.590   5.617  21.039  0.00  0.00    +0.000 NA
ATOM     22  O   UNL     1       1.955   4.290  21.224  0.00  0.00    +0.000 OA
ATOM     23  C   UNL     1       2.826   3.887  20.226  0.00  0.00    +0.000 A 
ATOM     24  O   UNL     1       3.167   2.719  20.187  0.00  0.00    +0.000 OA
ATOM     25  C   UNL     1       3.054   5.016  19.440  0.00  0.00    +0.000 A 
BRANCH  20  29
ATOM     26  C   UNL     1       1.424  10.033  18.834  0.00  0.00    +0.000 A 
ATOM     27  C   UNL     1       1.079   9.575  20.103  0.00  0.00    +0.000 A 
ATOM     28  C   UNL     1       1.339   8.252  20.473  0.00  0.00    +0.000 A 
ATOM     29  C   UNL     1       1.954   7.374  19.566  0.00  0.00    +0.000 A 
ATOM     30  C   UNL     1       2.289   7.837  18.296  0.00  0.00    +0.000 A 
ATOM     31  C   UNL     1       2.006   9.155  17.926  0.00  0.00    +0.000 A 
BRANCH  26  33
ATOM     32  C   UNL     1       0.845  12.146  19.717  0.00  0.00    +0.000 C 
ATOM     33  O   UNL     1       1.130  11.341  18.576  0.00  0.00    +0.000 OA
ENDBRANCH  26  33
ENDBRANCH  20  29
ENDBRANCH  19  25
ENDBRANCH   1  19
TORSDOF 6
ENDMDL
MODEL 9
REMARK VINA RESULT:      -8.1      2.254      4.140
REMARK  Name = 
REMARK  7 active torsions:
REMARK  status: ('A' for Active; 'I' for Inactive)
REMARK    1  A    between atoms: C_1  and  O_2
REMARK    2  A    between atoms: O_2  and  C_3
REMARK    3  A    between atoms: C_6  and  N_7
REMARK    4  A    between atoms: C_12  and  C_13
REMARK    5  A    between atoms: C_13  and  N_14
REMARK    6  A    between atoms: C_15  and  C_16
REMARK    7  A    between atoms: C_19  and  N_20
REMARK                            x       y       z     vdW  Elec       q    Type
REMARK                         _______ _______ _______ _____ _____    ______ ____
ROOT
ATOM      1  N   UNL     1       3.708   5.452  18.029  0.00  0.00    +0.000 N 
ATOM      2  C   UNL     1       3.523   6.173  19.207  0.00  0.00    +0.000 A 
ATOM      3  N   UNL     1       3.743   5.234  20.135  0.00  0.00    +0.000 NA
ATOM      4  C   UNL     1       3.052   4.166  19.600  0.00  0.00    +0.000 A 
ATOM      5  C   UNL     1       2.398   3.134  20.282  0.00  0.00    +0.000 A 
ATOM      6  C   UNL     1       1.126   2.812  19.802  0.00  0.00    +0.000 A 
ATOM      7  C   UNL     1       0.638   3.395  18.624  0.00  0.00    +0.000 A 
ATOM      8  C   UNL     1       1.461   4.165  17.768  0.00  0.00    +0.000 A 
ATOM      9  C   UNL     1       2.738   4.473  18.262  0.00  0.00    +0.000 A 
ENDROOT
BRANCH   2  10
ATOM     10  C   UNL     1       2.465   7.244  19.240  0.00  0.00    +0.000 A 
ATOM     11  C   UNL     1       2.268   8.083  18.140  0.00  0.00    +0.000 A 
ATOM     12  C   UNL     1       1.402   9.188  18.230  0.00  0.00    +0.000 A 
ATOM     13  C   UNL     1       0.716   9.455  19.425  0.00  0.00    +0.000 A 
ATOM     14  C   UNL     1       0.932   8.670  20.545  0.00  0.00    +0.000 A 
ATOM     15  C   UNL     1       1.818   7.608  20.445  0.00  0.00    +0.000 A 
BRANCH  13  16
ATOM     16  N   UNL     1      -0.202  10.588  19.536  0.00  0.00    +0.000 N 
ATOM     17  O   UNL     1       0.168  11.563  20.200  0.00  0.00    +0.000 OA
ATOM     18  O   UNL     1      -1.304  10.498  18.970  0.00  0.00    +0.000 OA
ENDBRANCH  13  16
ENDBRANCH   2  10
BRANCH   1  19
ATOM     19  C   UNL     1       4.305   6.037  16.835  0.00  0.00    +0.000 C 
BRANCH  19  25
ATOM     20  N   UNL     1       6.847   5.699  16.713  0.00  0.00    +0.000 N 
ATOM     21  N   UNL     1       7.727   4.798  16.336  0.00  0.00    +0.000 NA
ATOM     22  O   UNL     1       6.976   3.799  15.730  0.00  0.00    +0.000 OA
ATOM     23  C   UNL     1       5.629   4.116  15.777  0.00  0.00    +0.000 A 
ATOM     24  O   UNL     1       4.823   3.298  15.374  0.00  0.00    +0.000 OA
ATOM     25  C   UNL     1       5.553   5.375  16.372  0.00  0.00    +0.000 A 
BRANCH  20  29
ATOM     26  C   UNL     1       8.633   8.960  18.812  0.00  0.00    +0.000 A 
ATOM     27  C   UNL     1       8.696   7.670  19.333  0.00  0.00    +0.000 A 
ATOM     28  C   UNL     1       8.103   6.602  18.652  0.00  0.00    +0.000 A 
ATOM     29  C   UNL     1       7.440   6.823  17.434  0.00  0.00    +0.000 A 
ATOM     30  C   UNL     1       7.374   8.117  16.924  0.00  0.00    +0.000 A 
ATOM     31  C   UNL     1       7.951   9.183  17.620  0.00  0.00    +0.000 A 
BRANCH  26  33
ATOM     32  C   UNL     1       9.727  11.054  18.822  0.00  0.00    +0.000 C 
ATOM     33  O   UNL     1       9.248   9.928  19.553  0.00  0.00    +0.000 OA
ENDBRANCH  26  33
ENDBRANCH  20  29
ENDBRANCH  19  25
ENDBRANCH   1  19
TORSDOF 6
ENDMDL
