MODEL 1
REMARK VINA RESULT:      -8.4      0.000      0.000
REMARK  Name = 
REMARK  5 active torsions:
REMARK  status: ('A' for Active; 'I' for Inactive)
REMARK    1  A    between atoms: C_2  and  C_3
REMARK    2  A    between atoms: C_2  and  C_15
REMARK    3  A    between atoms: C_6  and  N_7
REMARK    4  A    between atoms: C_19  and  C_21
REMARK    5  A    between atoms: C_25  and  O_26
REMARK                            x       y       z     vdW  Elec       q    Type
REMARK                         _______ _______ _______ _____ _____    ______ ____
ROOT
ATOM      1  C   UNL     1       7.508   6.000  18.075  0.00  0.00    +0.000 C 
ATOM      2  C   UNL     1       7.428   4.812  17.110  0.00  0.00    +0.000 C 
ATOM      3  C   UNL     1       6.003   4.399  16.744  0.00  0.00    +0.000 C 
ATOM      4  N   UNL     1       5.119   4.290  17.908  0.00  0.00    +0.000 N 
ATOM      5  C   UNL     1       4.080   3.349  17.819  0.00  0.00    +0.000 C 
ATOM      6  O   UNL     1       4.021   2.519  16.909  0.00  0.00    +0.000 OA
ATOM      7  C   UNL     1       5.174   5.406  18.847  0.00  0.00    +0.000 C 
ATOM      8  C   UNL     1       6.593   5.758  19.270  0.00  0.00    +0.000 C 
ENDROOT
BRANCH   5   9
ATOM      9  C   UNL     1       3.030   3.239  18.872  0.00  0.00    +0.000 A 
ATOM     10  C   UNL     1       1.715   3.564  18.506  0.00  0.00    +0.000 A 
ATOM     11  C   UNL     1       0.672   3.454  19.428  0.00  0.00    +0.000 A 
ATOM     12  C   UNL     1       0.932   2.993  20.717  0.00  0.00    +0.000 A 
ATOM     13  C   UNL     1       2.240   2.710  21.089  0.00  0.00    +0.000 A 
ATOM     14  C   UNL     1       3.294   2.875  20.195  0.00  0.00    +0.000 A 
BRANCH  13  15
ATOM     15  O   UNL     1       2.539   2.219  22.327  0.00  0.00    +0.000 OA
ATOM     16  H   UNL     1       1.813   2.440  22.933  0.00  0.00    +0.000 HD
ENDBRANCH  13  15
ENDBRANCH   5   9
BRANCH   1  18
ATOM     17  O   UNL     1       6.342   7.428  16.513  0.00  0.00    +0.000 OA
ATOM     18  C   UNL     1       7.183   7.338  17.405  0.00  0.00    +0.000 C 
BRANCH  18  19
ATOM     19  C   UNL     1       7.896   8.581  17.846  0.00  0.00    +0.000 A 
ATOM     20  C   UNL     1       8.767   8.501  18.938  0.00  0.00    +0.000 A 
ATOM     21  C   UNL     1       9.401   9.648  19.438  0.00  0.00    +0.000 A 
ATOM     22  C   UNL     1       9.180  10.909  18.873  0.00  0.00    +0.000 A 
ATOM     23  C   UNL     1       8.343  10.959  17.747  0.00  0.00    +0.000 A 
ATOM     24  C   UNL     1       7.713   9.820  17.232  0.00  0.00    +0.000 A 
BRANCH  22  25
ATOM     25  N   UNL     1       9.761  12.077  19.340  0.00  0.00    +0.000 N 
ATOM     26  C   UNL     1       9.892  13.272  18.485  0.00  0.00    +0.000 C 
ATOM     27  C   UNL     1      11.306  13.395  17.899  0.00  0.00    +0.000 C 
ATOM     28  O   UNL     1      12.309  13.358  18.927  0.00  0.00    +0.000 OA
ATOM     29  C   UNL     1      12.227  12.118  19.648  0.00  0.00    +0.000 C 
ATOM     30  C   UNL     1      10.857  11.945  20.327  0.00  0.00    +0.000 C 
ENDBRANCH  22  25
ENDBRANCH  18  19
ENDBRANCH   1  18
TORSDOF 5
ENDMDL
MODEL 2
REMARK VINA RESULT:      -8.4      0.786      1.363
REMARK  Name = 
REMARK  5 active torsions:
REMARK  status: ('A' for Active; 'I' for Inactive)
REMARK    1  A    between atoms: C_2  and  C_3
REMARK    2  A    between atoms: C_2  and  C_15
REMARK    3  A    between atoms: C_6  and  N_7
REMARK    4  A    between atoms: C_19  and  C_21
REMARK    5  A    between atoms: C_25  and  O_26
REMARK                            x       y       z     vdW  Elec       q    Type
REMARK                         _______ _______ _______ _____ _____    ______ ____
ROOT
ATOM      1  C   UNL     1       7.631   6.003  18.177  0.00  0.00    +0.000 C 
ATOM      2  C   UNL     1       7.582   4.800  17.228  0.00  0.00    +0.000 C 
ATOM      3  C   UNL     1       6.169   4.380  16.825  0.00  0.00    +0.000 C 
ATOM      4  N   UNL     1       5.249   4.288  17.963  0.00  0.00    +0.000 N 
ATOM      5  C   UNL     1       4.214   3.346  17.857  0.00  0.00    +0.000 C 
ATOM      6  O   UNL     1       4.183   2.502  16.958  0.00  0.00    +0.000 OA
ATOM      7  C   UNL     1       5.275   5.419  18.886  0.00  0.00    +0.000 C 
ATOM      8  C   UNL     1       6.680   5.779  19.346  0.00  0.00    +0.000 C 
ENDROOT
BRANCH   5   9
ATOM      9  C   UNL     1       3.132   3.251  18.879  0.00  0.00    +0.000 A 
ATOM     10  C   UNL     1       1.825   3.545  18.461  0.00  0.00    +0.000 A 
ATOM     11  C   UNL     1       0.754   3.446  19.353  0.00  0.00    +0.000 A 
ATOM     12  C   UNL     1       0.979   3.028  20.662  0.00  0.00    +0.000 A 
ATOM     13  C   UNL     1       2.279   2.776  21.084  0.00  0.00    +0.000 A 
ATOM     14  C   UNL     1       3.358   2.932  20.220  0.00  0.00    +0.000 A 
BRANCH  13  15
ATOM     15  O   UNL     1       2.544   2.328  22.346  0.00  0.00    +0.000 OA
ATOM     16  H   UNL     1       1.799   2.562  22.922  0.00  0.00    +0.000 HD
ENDBRANCH  13  15
ENDBRANCH   5   9
BRANCH   1  18
ATOM     17  O   UNL     1       6.562   7.395  16.516  0.00  0.00    +0.000 OA
ATOM     18  C   UNL     1       7.327   7.331  17.476  0.00  0.00    +0.000 C 
BRANCH  18  19
ATOM     19  C   UNL     1       7.964   8.594  17.972  0.00  0.00    +0.000 A 
ATOM     20  C   UNL     1       7.667   9.795  17.319  0.00  0.00    +0.000 A 
ATOM     21  C   UNL     1       8.294  10.992  17.695  0.00  0.00    +0.000 A 
ATOM     22  C   UNL     1       9.242  11.028  18.723  0.00  0.00    +0.000 A 
ATOM     23  C   UNL     1       9.488   9.822  19.399  0.00  0.00    +0.000 A 
ATOM     24  C   UNL     1       8.861   8.623  19.040  0.00  0.00    +0.000 A 
BRANCH  22  25
ATOM     25  N   UNL     1       9.908  12.177  19.120  0.00  0.00    +0.000 N 
ATOM     26  C   UNL     1       9.187  13.335  19.680  0.00  0.00    +0.000 C 
ATOM     27  C   UNL     1       8.968  14.429  18.624  0.00  0.00    +0.000 C 
ATOM     28  O   UNL     1      10.204  14.816  18.001  0.00  0.00    +0.000 OA
ATOM     29  C   UNL     1      10.804  13.681  17.355  0.00  0.00    +0.000 C 
ATOM     30  C   UNL     1      11.120  12.558  18.359  0.00  0.00    +0.000 C 
ENDBRANCH  22  25
ENDBRANCH  18  19
ENDBRANCH   1  18
TORSDOF 5
ENDMDL
MODEL 3
REMARK VINA RESULT:      -8.2      0.909      1.704
REMARK  Name = 
REMARK  5 active torsions:
REMARK  status: ('A' for Active; 'I' for Inactive)
REMARK    1  A    between atoms: C_2  and  C_3
REMARK    2  A    between atoms: C_2  and  C_15
REMARK    3  A    between atoms: C_6  and  N_7
REMARK    4  A    between atoms: C_19  and  C_21
REMARK    5  A    between atoms: C_25  and  O_26
REMARK                            x       y       z     vdW  Elec       q    Type
REMARK                         _______ _______ _______ _____ _____    ______ ____
ROOT
ATOM      1  C   UNL     1       7.645   5.997  18.192  0.00  0.00    +0.000 C 
ATOM      2  C   UNL     1       7.603   4.802  17.234  0.00  0.00    +0.000 C 
ATOM      3  C   UNL     1       6.194   4.390  16.811  0.00  0.00    +0.000 C 
ATOM      4  N   UNL     1       5.260   4.292  17.937  0.00  0.00    +0.000 N 
ATOM      5  C   UNL     1       4.224   3.353  17.812  0.00  0.00    +0.000 C 
ATOM      6  O   UNL     1       4.201   2.517  16.906  0.00  0.00    +0.000 OA
ATOM      7  C   UNL     1       5.278   5.415  18.870  0.00  0.00    +0.000 C 
ATOM      8  C   UNL     1       6.680   5.767  19.349  0.00  0.00    +0.000 C 
ENDROOT
BRANCH   5   9
ATOM      9  C   UNL     1       3.130   3.254  18.820  0.00  0.00    +0.000 A 
ATOM     10  C   UNL     1       1.814   3.419  18.360  0.00  0.00    +0.000 A 
ATOM     11  C   UNL     1       0.734   3.307  19.239  0.00  0.00    +0.000 A 
ATOM     12  C   UNL     1       0.960   3.003  20.580  0.00  0.00    +0.000 A 
ATOM     13  C   UNL     1       2.265   2.880  21.041  0.00  0.00    +0.000 A 
ATOM     14  C   UNL     1       3.349   3.051  20.185  0.00  0.00    +0.000 A 
BRANCH  13  15
ATOM     15  O   UNL     1       2.535   2.546  22.336  0.00  0.00    +0.000 OA
ATOM     16  H   UNL     1       1.931   1.834  22.606  0.00  0.00    +0.000 HD
ENDBRANCH  13  15
ENDBRANCH   5   9
BRANCH   1  18
ATOM     17  O   UNL     1       6.599   7.405  16.531  0.00  0.00    +0.000 OA
ATOM     18  C   UNL     1       7.353   7.331  17.499  0.00  0.00    +0.000 C 
BRANCH  18  19
ATOM     19  C   UNL     1       7.989   8.588  18.012  0.00  0.00    +0.000 A 
ATOM     20  C   UNL     1       7.696   9.797  17.371  0.00  0.00    +0.000 A 
ATOM     21  C   UNL     1       8.322  10.989  17.763  0.00  0.00    +0.000 A 
ATOM     22  C   UNL     1       9.266  11.012  18.795  0.00  0.00    +0.000 A 
ATOM     23  C   UNL     1       9.508   9.799  19.459  0.00  0.00    +0.000 A 
ATOM     24  C   UNL     1       8.881   8.604  19.085  0.00  0.00    +0.000 A 
BRANCH  22  25
ATOM     25  N   UNL     1       9.931  12.157  19.208  0.00  0.00    +0.000 N 
ATOM     26  C   UNL     1      10.581  12.240  20.530  0.00  0.00    +0.000 C 
ATOM     27  C   UNL     1       9.704  12.988  21.544  0.00  0.00    +0.000 C 
ATOM     28  O   UNL     1       9.317  14.282  21.054  0.00  0.00    +0.000 OA
ATOM     29  C   UNL     1       8.572  14.142  19.833  0.00  0.00    +0.000 C 
ATOM     30  C   UNL     1       9.405  13.457  18.735  0.00  0.00    +0.000 C 
ENDBRANCH  22  25
ENDBRANCH  18  19
ENDBRANCH   1  18
TORSDOF 5
ENDMDL
MODEL 4
REMARK VINA RESULT:      -8.1      1.083      1.766
REMARK  Name = 
REMARK  5 active torsions:
REMARK  status: ('A' for Active; 'I' for Inactive)
REMARK    1  A    between atoms: C_2  and  C_3
REMARK    2  A    between atoms: C_2  and  C_15
REMARK    3  A    between atoms: C_6  and  N_7
REMARK    4  A    between atoms: C_19  and  C_21
REMARK    5  A    between atoms: C_25  and  O_26
REMARK                            x       y       z     vdW  Elec       q    Type
REMARK                         _______ _______ _______ _____ _____    ______ ____
ROOT
ATOM      1  C   UNL     1       7.707   5.995  18.094  0.00  0.00    +0.000 C 
ATOM      2  C   UNL     1       7.551   4.799  17.148  0.00  0.00    +0.000 C 
ATOM      3  C   UNL     1       6.102   4.378  16.908  0.00  0.00    +0.000 C 
ATOM      4  N   UNL     1       5.320   4.274  18.143  0.00  0.00    +0.000 N 
ATOM      5  C   UNL     1       4.282   3.328  18.150  0.00  0.00    +0.000 C 
ATOM      6  O   UNL     1       4.150   2.492  17.253  0.00  0.00    +0.000 OA
ATOM      7  C   UNL     1       5.449   5.397  19.067  0.00  0.00    +0.000 C 
ATOM      8  C   UNL     1       6.898   5.758  19.364  0.00  0.00    +0.000 C 
ENDROOT
BRANCH   5   9
ATOM      9  C   UNL     1       3.326   3.222  19.289  0.00  0.00    +0.000 A 
ATOM     10  C   UNL     1       3.732   2.468  20.401  0.00  0.00    +0.000 A 
ATOM     11  C   UNL     1       2.904   2.351  21.521  0.00  0.00    +0.000 A 
ATOM     12  C   UNL     1       1.676   3.007  21.547  0.00  0.00    +0.000 A 
ATOM     13  C   UNL     1       1.259   3.720  20.429  0.00  0.00    +0.000 A 
ATOM     14  C   UNL     1       2.050   3.791  19.286  0.00  0.00    +0.000 A 
BRANCH  13  15
ATOM     15  O   UNL     1       0.082   4.410  20.422  0.00  0.00    +0.000 OA
ATOM     16  H   UNL     1       0.029   4.927  19.602  0.00  0.00    +0.000 HD
ENDBRANCH  13  15
ENDBRANCH   5   9
BRANCH   1  18
ATOM     17  O   UNL     1       6.501   7.387  16.530  0.00  0.00    +0.000 OA
ATOM     18  C   UNL     1       7.320   7.327  17.445  0.00  0.00    +0.000 C 
BRANCH  18  19
ATOM     19  C   UNL     1       7.942   8.600  17.936  0.00  0.00    +0.000 A 
ATOM     20  C   UNL     1       7.613   9.797  17.293  0.00  0.00    +0.000 A 
ATOM     21  C   UNL     1       8.224  11.005  17.665  0.00  0.00    +0.000 A 
ATOM     22  C   UNL     1       9.186  11.053  18.679  0.00  0.00    +0.000 A 
ATOM     23  C   UNL     1       9.464   9.850  19.346  0.00  0.00    +0.000 A 
ATOM     24  C   UNL     1       8.853   8.641  18.992  0.00  0.00    +0.000 A 
BRANCH  22  25
ATOM     25  N   UNL     1       9.838  12.213  19.070  0.00  0.00    +0.000 N 
ATOM     26  C   UNL     1       9.098  13.456  19.357  0.00  0.00    +0.000 C 
ATOM     27  C   UNL     1       9.145  14.428  18.169  0.00  0.00    +0.000 C 
ATOM     28  O   UNL     1      10.495  14.690  17.754  0.00  0.00    +0.000 OA
ATOM     29  C   UNL     1      11.133  13.465  17.358  0.00  0.00    +0.000 C 
ATOM     30  C   UNL     1      11.189  12.454  18.517  0.00  0.00    +0.000 C 
ENDBRANCH  22  25
ENDBRANCH  18  19
ENDBRANCH   1  18
TORSDOF 5
ENDMDL
MODEL 5
REMARK VINA RESULT:      -8.1      5.124      8.028
REMARK  Name = 
REMARK  5 active torsions:
REMARK  status: ('A' for Active; 'I' for Inactive)
REMARK    1  A    between atoms: C_2  and  C_3
REMARK    2  A    between atoms: C_2  and  C_15
REMARK    3  A    between atoms: C_6  and  N_7
REMARK    4  A    between atoms: C_19  and  C_21
REMARK    5  A    between atoms: C_25  and  O_26
REMARK                            x       y       z     vdW  Elec       q    Type
REMARK                         _______ _______ _______ _____ _____    ______ ____
ROOT
ATOM      1  C   UNL     1       3.840   3.337  18.764  0.00  0.00    +0.000 C 
ATOM      2  C   UNL     1       4.934   4.323  19.189  0.00  0.00    +0.000 C 
ATOM      3  C   UNL     1       5.319   5.332  18.109  0.00  0.00    +0.000 C 
ATOM      4  N   UNL     1       5.541   4.717  16.798  0.00  0.00    +0.000 N 
ATOM      5  C   UNL     1       6.475   5.346  15.960  0.00  0.00    +0.000 C 
ATOM      6  O   UNL     1       7.217   6.246  16.362  0.00  0.00    +0.000 OA
ATOM      7  C   UNL     1       4.517   3.770  16.365  0.00  0.00    +0.000 C 
ATOM      8  C   UNL     1       4.197   2.718  17.418  0.00  0.00    +0.000 C 
ENDROOT
BRANCH   5   9
ATOM      9  C   UNL     1       6.688   4.904  14.552  0.00  0.00    +0.000 A 
ATOM     10  C   UNL     1       7.675   5.572  13.810  0.00  0.00    +0.000 A 
ATOM     11  C   UNL     1       7.956   5.192  12.495  0.00  0.00    +0.000 A 
ATOM     12  C   UNL     1       7.270   4.124  11.922  0.00  0.00    +0.000 A 
ATOM     13  C   UNL     1       6.266   3.490  12.644  0.00  0.00    +0.000 A 
ATOM     14  C   UNL     1       5.937   3.902  13.932  0.00  0.00    +0.000 A 
BRANCH  13  15
ATOM     15  O   UNL     1       5.594   2.415  12.138  0.00  0.00    +0.000 OA
ATOM     16  H   UNL     1       5.859   1.622  12.632  0.00  0.00    +0.000 HD
ENDBRANCH  13  15
ENDBRANCH   5   9
BRANCH   1  18
ATOM     17  O   UNL     1       1.459   3.336  18.355  0.00  0.00    +0.000 OA
ATOM     18  C   UNL     1       2.447   3.972  18.717  0.00  0.00    +0.000 C 
BRANCH  18  19
ATOM     19  C   UNL     1       2.270   5.402  19.129  0.00  0.00    +0.000 A 
ATOM     20  C   UNL     1       1.937   5.679  20.459  0.00  0.00    +0.000 A 
ATOM     21  C   UNL     1       1.686   6.994  20.879  0.00  0.00    +0.000 A 
ATOM     22  C   UNL     1       1.749   8.069  19.987  0.00  0.00    +0.000 A 
ATOM     23  C   UNL     1       2.135   7.776  18.669  0.00  0.00    +0.000 A 
ATOM     24  C   UNL     1       2.398   6.470  18.240  0.00  0.00    +0.000 A 
BRANCH  22  25
ATOM     25  N   UNL     1       1.489   9.384  20.342  0.00  0.00    +0.000 N 
ATOM     26  C   UNL     1       1.021   9.742  21.694  0.00  0.00    +0.000 C 
ATOM     27  C   UNL     1      -0.499   9.959  21.727  0.00  0.00    +0.000 C 
ATOM     28  O   UNL     1      -0.917  10.919  20.743  0.00  0.00    +0.000 OA
ATOM     29  C   UNL     1      -0.556  10.462  19.429  0.00  0.00    +0.000 C 
ATOM     30  C   UNL     1       0.966  10.282  19.288  0.00  0.00    +0.000 C 
ENDBRANCH  22  25
ENDBRANCH  18  19
ENDBRANCH   1  18
TORSDOF 5
ENDMDL
MODEL 6
REMARK VINA RESULT:      -8.1      5.180      8.168
REMARK  Name = 
REMARK  5 active torsions:
REMARK  status: ('A' for Active; 'I' for Inactive)
REMARK    1  A    between atoms: C_2  and  C_3
REMARK    2  A    between atoms: C_2  and  C_15
REMARK    3  A    between atoms: C_6  and  N_7
REMARK    4  A    between atoms: C_19  and  C_21
REMARK    5  A    between atoms: C_25  and  O_26
REMARK                            x       y       z     vdW  Elec       q    Type
REMARK                         _______ _______ _______ _____ _____    ______ ____
ROOT
ATOM      1  C   UNL     1       3.720   3.285  18.578  0.00  0.00    +0.000 C 
ATOM      2  C   UNL     1       4.786   4.279  19.049  0.00  0.00    +0.000 C 
ATOM      3  C   UNL     1       5.201   5.299  17.989  0.00  0.00    +0.000 C 
ATOM      4  N   UNL     1       5.478   4.693  16.684  0.00  0.00    +0.000 N 
ATOM      5  C   UNL     1       6.436   5.336  15.885  0.00  0.00    +0.000 C 
ATOM      6  O   UNL     1       7.152   6.241  16.319  0.00  0.00    +0.000 OA
ATOM      7  C   UNL     1       4.481   3.738  16.209  0.00  0.00    +0.000 C 
ATOM      8  C   UNL     1       4.133   2.676  17.243  0.00  0.00    +0.000 C 
ENDROOT
BRANCH   5   9
ATOM      9  C   UNL     1       6.706   4.904  14.483  0.00  0.00    +0.000 A 
ATOM     10  C   UNL     1       7.685   5.612  13.769  0.00  0.00    +0.000 A 
ATOM     11  C   UNL     1       8.017   5.245  12.463  0.00  0.00    +0.000 A 
ATOM     12  C   UNL     1       7.392   4.150  11.871  0.00  0.00    +0.000 A 
ATOM     13  C   UNL     1       6.395   3.476  12.565  0.00  0.00    +0.000 A 
ATOM     14  C   UNL     1       6.014   3.873  13.843  0.00  0.00    +0.000 A 
BRANCH  13  15
ATOM     15  O   UNL     1       5.782   2.375  12.041  0.00  0.00    +0.000 OA
ATOM     16  H   UNL     1       5.052   2.667  11.471  0.00  0.00    +0.000 HD
ENDBRANCH  13  15
ENDBRANCH   5   9
BRANCH   1  18
ATOM     17  O   UNL     1       1.403   3.339  17.895  0.00  0.00    +0.000 OA
ATOM     18  C   UNL     1       2.323   3.905  18.482  0.00  0.00    +0.000 C 
BRANCH  18  19
ATOM     19  C   UNL     1       2.055   5.233  19.125  0.00  0.00    +0.000 A 
ATOM     20  C   UNL     1       2.205   6.391  18.355  0.00  0.00    +0.000 A 
ATOM     21  C   UNL     1       2.040   7.662  18.928  0.00  0.00    +0.000 A 
ATOM     22  C   UNL     1       1.733   7.816  20.284  0.00  0.00    +0.000 A 
ATOM     23  C   UNL     1       1.537   6.641  21.026  0.00  0.00    +0.000 A 
ATOM     24  C   UNL     1       1.687   5.367  20.464  0.00  0.00    +0.000 A 
BRANCH  22  25
ATOM     25  N   UNL     1       1.582   9.046  20.907  0.00  0.00    +0.000 N 
ATOM     26  C   UNL     1       1.301   9.152  22.350  0.00  0.00    +0.000 C 
ATOM     27  C   UNL     1      -0.191   9.396  22.619  0.00  0.00    +0.000 C 
ATOM     28  O   UNL     1      -0.680  10.534  21.892  0.00  0.00    +0.000 OA
ATOM     29  C   UNL     1      -0.505  10.326  20.481  0.00  0.00    +0.000 C 
ATOM     30  C   UNL     1       0.977  10.140  20.113  0.00  0.00    +0.000 C 
ENDBRANCH  22  25
ENDBRANCH  18  19
ENDBRANCH   1  18
TORSDOF 5
ENDMDL
MODEL 7
REMARK VINA RESULT:      -8.0      8.591     11.145
REMARK  Name = 
REMARK  5 active torsions:
REMARK  status: ('A' for Active; 'I' for Inactive)
REMARK    1  A    between atoms: C_2  and  C_3
REMARK    2  A    between atoms: C_2  and  C_15
REMARK    3  A    between atoms: C_6  and  N_7
REMARK    4  A    between atoms: C_19  and  C_21
REMARK    5  A    between atoms: C_25  and  O_26
REMARK                            x       y       z     vdW  Elec       q    Type
REMARK                         _______ _______ _______ _____ _____    ______ ____
ROOT
ATOM      1  C   UNL     1      -0.427  11.778  18.538  0.00  0.00    +0.000 C 
ATOM      2  C   UNL     1      -0.540  13.297  18.375  0.00  0.00    +0.000 C 
ATOM      3  C   UNL     1      -0.882  14.040  19.666  0.00  0.00    +0.000 C 
ATOM      4  N   UNL     1      -1.991  13.429  20.405  0.00  0.00    +0.000 N 
ATOM      5  C   UNL     1      -2.790  14.297  21.166  0.00  0.00    +0.000 C 
ATOM      6  O   UNL     1      -2.701  15.523  21.073  0.00  0.00    +0.000 OA
ATOM      7  C   UNL     1      -1.913  11.981  20.574  0.00  0.00    +0.000 C 
ATOM      8  C   UNL     1      -1.653  11.243  19.268  0.00  0.00    +0.000 C 
ENDROOT
BRANCH   5   9
ATOM      9  C   UNL     1      -3.859  13.787  22.072  0.00  0.00    +0.000 A 
ATOM     10  C   UNL     1      -5.151  13.663  21.537  0.00  0.00    +0.000 A 
ATOM     11  C   UNL     1      -6.197  13.160  22.314  0.00  0.00    +0.000 A 
ATOM     12  C   UNL     1      -5.954  12.753  23.624  0.00  0.00    +0.000 A 
ATOM     13  C   UNL     1      -4.684  12.914  24.164  0.00  0.00    +0.000 A 
ATOM     14  C   UNL     1      -3.650  13.470  23.417  0.00  0.00    +0.000 A 
BRANCH  13  15
ATOM     15  O   UNL     1      -4.389  12.494  25.428  0.00  0.00    +0.000 OA
ATOM     16  H   UNL     1      -4.362  11.523  25.436  0.00  0.00    +0.000 HD
ENDBRANCH  13  15
ENDBRANCH   5   9
BRANCH   1  18
ATOM     17  O   UNL     1       1.574  12.152  19.839  0.00  0.00    +0.000 OA
ATOM     18  C   UNL     1       0.859  11.345  19.247  0.00  0.00    +0.000 C 
BRANCH  18  19
ATOM     19  C   UNL     1       1.264   9.902  19.235  0.00  0.00    +0.000 A 
ATOM     20  C   UNL     1       1.166   9.169  20.423  0.00  0.00    +0.000 A 
ATOM     21  C   UNL     1       1.601   7.837  20.484  0.00  0.00    +0.000 A 
ATOM     22  C   UNL     1       2.156   7.199  19.370  0.00  0.00    +0.000 A 
ATOM     23  C   UNL     1       2.198   7.934  18.175  0.00  0.00    +0.000 A 
ATOM     24  C   UNL     1       1.756   9.261  18.098  0.00  0.00    +0.000 A 
BRANCH  22  25
ATOM     25  N   UNL     1       2.623   5.893  19.380  0.00  0.00    +0.000 N 
ATOM     26  C   UNL     1       2.801   5.126  18.133  0.00  0.00    +0.000 C 
ATOM     27  C   UNL     1       1.624   4.172  17.883  0.00  0.00    +0.000 C 
ATOM     28  O   UNL     1       1.389   3.315  19.012  0.00  0.00    +0.000 OA
ATOM     29  C   UNL     1       1.089   4.106  20.174  0.00  0.00    +0.000 C 
ATOM     30  C   UNL     1       2.251   5.047  20.536  0.00  0.00    +0.000 C 
ENDBRANCH  22  25
ENDBRANCH  18  19
ENDBRANCH   1  18
TORSDOF 5
ENDMDL
MODEL 8
REMARK VINA RESULT:      -7.9      7.354     10.261
REMARK  Name = 
REMARK  5 active torsions:
REMARK  status: ('A' for Active; 'I' for Inactive)
REMARK    1  A    between atoms: C_2  and  C_3
REMARK    2  A    between atoms: C_2  and  C_15
REMARK    3  A    between atoms: C_6  and  N_7
REMARK    4  A    between atoms: C_19  and  C_21
REMARK    5  A    between atoms: C_25  and  O_26
REMARK                            x       y       z     vdW  Elec       q    Type
REMARK                         _______ _______ _______ _____ _____    ______ ____
ROOT
ATOM      1  C   UNL     1       0.920  10.315  18.532  0.00  0.00    +0.000 C 
ATOM      2  C   UNL     1       0.938  11.755  19.056  0.00  0.00    +0.000 C 
ATOM      3  C   UNL     1      -0.250  12.110  19.949  0.00  0.00    +0.000 C 
ATOM      4  N   UNL     1      -1.537  11.690  19.389  0.00  0.00    +0.000 N 
ATOM      5  C   UNL     1      -2.652  12.475  19.722  0.00  0.00    +0.000 C 
ATOM      6  O   UNL     1      -2.541  13.566  20.287  0.00  0.00    +0.000 OA
ATOM      7  C   UNL     1      -1.586  10.323  18.879  0.00  0.00    +0.000 C 
ATOM      8  C   UNL     1      -0.443  10.003  17.925  0.00  0.00    +0.000 C 
ENDROOT
BRANCH   5   9
ATOM      9  C   UNL     1      -4.036  12.077  19.335  0.00  0.00    +0.000 A 
ATOM     10  C   UNL     1      -4.249  11.713  17.996  0.00  0.00    +0.000 A 
ATOM     11  C   UNL     1      -5.511  11.296  17.565  0.00  0.00    +0.000 A 
ATOM     12  C   UNL     1      -6.562  11.215  18.475  0.00  0.00    +0.000 A 
ATOM     13  C   UNL     1      -6.358  11.615  19.790  0.00  0.00    +0.000 A 
ATOM     14  C   UNL     1      -5.121  12.090  20.214  0.00  0.00    +0.000 A 
BRANCH  13  15
ATOM     15  O   UNL     1      -7.347  11.517  20.726  0.00  0.00    +0.000 OA
ATOM     16  H   UNL     1      -7.585  10.581  20.831  0.00  0.00    +0.000 HD
ENDBRANCH  13  15
ENDBRANCH   5   9
BRANCH   1  18
ATOM     17  O   UNL     1       1.036   9.468  20.792  0.00  0.00    +0.000 OA
ATOM     18  C   UNL     1       1.286   9.283  19.603  0.00  0.00    +0.000 C 
BRANCH  18  19
ATOM     19  C   UNL     1       1.960   8.006  19.202  0.00  0.00    +0.000 A 
ATOM     20  C   UNL     1       1.917   6.920  20.083  0.00  0.00    +0.000 A 
ATOM     21  C   UNL     1       2.594   5.727  19.789  0.00  0.00    +0.000 A 
ATOM     22  C   UNL     1       3.343   5.584  18.616  0.00  0.00    +0.000 A 
ATOM     23  C   UNL     1       3.332   6.665  17.722  0.00  0.00    +0.000 A 
ATOM     24  C   UNL     1       2.650   7.857  17.998  0.00  0.00    +0.000 A 
BRANCH  22  25
ATOM     25  N   UNL     1       4.050   4.437  18.287  0.00  0.00    +0.000 N 
ATOM     26  C   UNL     1       3.576   3.509  17.244  0.00  0.00    +0.000 C 
ATOM     27  C   UNL     1       2.864   2.291  17.852  0.00  0.00    +0.000 C 
ATOM     28  O   UNL     1       3.689   1.630  18.825  0.00  0.00    +0.000 OA
ATOM     29  C   UNL     1       4.016   2.538  19.890  0.00  0.00    +0.000 C 
ATOM     30  C   UNL     1       4.794   3.761  19.374  0.00  0.00    +0.000 C 
ENDBRANCH  22  25
ENDBRANCH  18  19
ENDBRANCH   1  18
TORSDOF 5
ENDMDL
MODEL 9
REMARK VINA RESULT:      -7.9      7.419     10.331
REMARK  Name = 
REMARK  5 active torsions:
REMARK  status: ('A' for Active; 'I' for Inactive)
REMARK    1  A    between atoms: C_2  and  C_3
REMARK    2  A    between atoms: C_2  and  C_15
REMARK    3  A    between atoms: C_6  and  N_7
REMARK    4  A    between atoms: C_19  and  C_21
REMARK    5  A    between atoms: C_25  and  O_26
REMARK                            x       y       z     vdW  Elec       q    Type
REMARK                         _______ _______ _______ _____ _____    ______ ____
ROOT
ATOM      1  C   UNL     1       0.903  10.314  18.528  0.00  0.00    +0.000 C 
ATOM      2  C   UNL     1       1.073  11.771  18.971  0.00  0.00    +0.000 C 
ATOM      3  C   UNL     1       0.026  12.244  19.979  0.00  0.00    +0.000 C 
ATOM      4  N   UNL     1      -1.343  11.887  19.597  0.00  0.00    +0.000 N 
ATOM      5  C   UNL     1      -2.359  12.759  20.019  0.00  0.00    +0.000 C 
ATOM      6  O   UNL     1      -2.115  13.864  20.509  0.00  0.00    +0.000 OA
ATOM      7  C   UNL     1      -1.537  10.505  19.168  0.00  0.00    +0.000 C 
ATOM      8  C   UNL     1      -0.540  10.068  18.104  0.00  0.00    +0.000 C 
ENDROOT
BRANCH   5   9
ATOM      9  C   UNL     1      -3.801  12.438  19.819  0.00  0.00    +0.000 A 
ATOM     10  C   UNL     1      -4.647  12.557  20.932  0.00  0.00    +0.000 A 
ATOM     11  C   UNL     1      -6.017  12.306  20.815  0.00  0.00    +0.000 A 
ATOM     12  C   UNL     1      -6.554  11.959  19.577  0.00  0.00    +0.000 A 
ATOM     13  C   UNL     1      -5.709  11.803  18.486  0.00  0.00    +0.000 A 
ATOM     14  C   UNL     1      -4.335  11.991  18.607  0.00  0.00    +0.000 A 
BRANCH  13  15
ATOM     15  O   UNL     1      -6.194  11.502  17.246  0.00  0.00    +0.000 OA
ATOM     16  H   UNL     1      -6.916  12.117  17.037  0.00  0.00    +0.000 HD
ENDBRANCH  13  15
ENDBRANCH   5   9
BRANCH   1  18
ATOM     17  O   UNL     1       1.135   9.513  20.796  0.00  0.00    +0.000 OA
ATOM     18  C   UNL     1       1.333   9.308  19.600  0.00  0.00    +0.000 C 
BRANCH  18  19
ATOM     19  C   UNL     1       2.005   8.032  19.192  0.00  0.00    +0.000 A 
ATOM     20  C   UNL     1       1.996   6.955  20.085  0.00  0.00    +0.000 A 
ATOM     21  C   UNL     1       2.675   5.765  19.783  0.00  0.00    +0.000 A 
ATOM     22  C   UNL     1       3.389   5.615  18.591  0.00  0.00    +0.000 A 
ATOM     23  C   UNL     1       3.343   6.687  17.686  0.00  0.00    +0.000 A 
ATOM     24  C   UNL     1       2.660   7.876  17.970  0.00  0.00    +0.000 A 
BRANCH  22  25
ATOM     25  N   UNL     1       4.096   4.471  18.252  0.00  0.00    +0.000 N 
ATOM     26  C   UNL     1       3.630   3.561  17.189  0.00  0.00    +0.000 C 
ATOM     27  C   UNL     1       2.906   2.337  17.769  0.00  0.00    +0.000 C 
ATOM     28  O   UNL     1       3.716   1.657  18.742  0.00  0.00    +0.000 OA
ATOM     29  C   UNL     1       4.034   2.547  19.824  0.00  0.00    +0.000 C 
ATOM     30  C   UNL     1       4.823   3.774  19.337  0.00  0.00    +0.000 C 
ENDBRANCH  22  25
ENDBRANCH  18  19
ENDBRANCH   1  18
TORSDOF 5
ENDMDL
