MODEL 1
REMARK VINA RESULT:     -10.2      0.000      0.000
REMARK  Name = 
REMARK  8 active torsions:
REMARK  status: ('A' for Active; 'I' for Inactive)
REMARK    1  A    between atoms: C_1  and  O_2
REMARK    2  A    between atoms: O_2  and  C_3
REMARK    3  A    between atoms: C_9  and  C_10
REMARK    4  A    between atoms: N_17  and  C_18
REMARK    5  A    between atoms: N_26  and  C_27
REMARK    6  A    between atoms: C_27  and  C_28
REMARK    7  A    between atoms: N_30  and  C_31
REMARK    8  A    between atoms: N_30  and  C_32
REMARK                            x       y       z     vdW  Elec       q    Type
REMARK                         _______ _______ _______ _____ _____    ______ ____
ROOT
ATOM      1  C   UNL     1       4.062   4.262  18.796  0.00  0.00    +0.000 A 
ATOM      2  C   UNL     1       3.973   3.048  19.390  0.00  0.00    +0.000 A 
ATOM      3  C   UNL     1       3.067   2.790  20.498  0.00  0.00    +0.000 A 
ATOM      4  C   UNL     1       2.300   3.792  20.949  0.00  0.00    +0.000 A 
ATOM      5  N   UNL     1       2.379   5.041  20.344  0.00  0.00    +0.000 N 
ATOM      6  N   UNL     1       1.682   6.143  20.657  0.00  0.00    +0.000 NA
ATOM      7  C   UNL     1       2.110   7.040  19.768  0.00  0.00    +0.000 A 
ATOM      8  N   UNL     1       1.694   8.313  19.637  0.00  0.00    +0.000 N 
ATOM      9  N   UNL     1       3.038   6.569  18.884  0.00  0.00    +0.000 NA
ATOM     10  C   UNL     1       3.218   5.321  19.269  0.00  0.00    +0.000 A 
ATOM     11  H   UNL     1       2.021   8.816  18.824  0.00  0.00    +0.000 HD
ENDROOT
BRANCH   8  12
ATOM     12  C   UNL     1       0.870   9.054  20.502  0.00  0.00    +0.000 A 
ATOM     13  C   UNL     1       0.993   8.913  21.882  0.00  0.00    +0.000 A 
ATOM     14  C   UNL     1       0.276   9.745  22.746  0.00  0.00    +0.000 A 
ATOM     15  C   UNL     1      -0.583  10.751  22.259  0.00  0.00    +0.000 A 
ATOM     16  C   UNL     1      -0.747  10.877  20.872  0.00  0.00    +0.000 A 
ATOM     17  C   UNL     1      -0.008  10.035  20.024  0.00  0.00    +0.000 A 
ATOM     18  C   UNL     1      -1.720  11.824  20.209  0.00  0.00    +0.000 C 
ATOM     19  C   UNL     1      -1.562  13.293  20.603  0.00  0.00    +0.000 C 
ATOM     20  N   UNL     1      -2.062  13.676  21.930  0.00  0.00    +0.000 NA
ATOM     21  C   UNL     1      -1.225  13.126  23.004  0.00  0.00    +0.000 C 
ATOM     22  C   UNL     1      -1.308  11.613  23.262  0.00  0.00    +0.000 C 
BRANCH  20  23
ATOM     23  C   UNL     1      -3.497  13.380  22.139  0.00  0.00    +0.000 C 
BRANCH  23  24
ATOM     24  C   UNL     1      -4.267  14.572  22.718  0.00  0.00    +0.000 C 
ATOM     25  O   UNL     1      -3.724  15.682  22.755  0.00  0.00    +0.000 OA
ATOM     26  N   UNL     1      -5.568  14.369  23.159  0.00  0.00    +0.000 N 
ATOM     27  C   UNL     1      -6.214  13.070  23.261  0.00  0.00    +0.000 C 
ATOM     28  C   UNL     1      -6.296  15.490  23.727  0.00  0.00    +0.000 C 
ENDBRANCH  23  24
ENDBRANCH  20  23
ENDBRANCH   8  12
BRANCH   1  35
ATOM     29  C   UNL     1       6.373   4.805  17.954  0.00  0.00    +0.000 A 
ATOM     30  C   UNL     1       7.269   4.918  16.888  0.00  0.00    +0.000 A 
ATOM     31  C   UNL     1       6.836   4.653  15.592  0.00  0.00    +0.000 A 
ATOM     32  F   UNL     1       7.707   4.747  14.579  0.00  0.00    +0.000 F 
ATOM     33  C   UNL     1       5.525   4.277  15.329  0.00  0.00    +0.000 A 
ATOM     34  C   UNL     1       4.623   4.161  16.385  0.00  0.00    +0.000 A 
ATOM     35  C   UNL     1       5.040   4.416  17.702  0.00  0.00    +0.000 A 
BRANCH  29  37
ATOM     36  C   UNL     1       7.904   5.757  19.503  0.00  0.00    +0.000 C 
ATOM     37  O   UNL     1       6.727   4.991  19.268  0.00  0.00    +0.000 OA
ENDBRANCH  29  37
ENDBRANCH   1  35
TORSDOF 5
ENDMDL
MODEL 2
REMARK VINA RESULT:      -9.9      1.008      1.107
REMARK  Name = 
REMARK  8 active torsions:
REMARK  status: ('A' for Active; 'I' for Inactive)
REMARK    1  A    between atoms: C_1  and  O_2
REMARK    2  A    between atoms: O_2  and  C_3
REMARK    3  A    between atoms: C_9  and  C_10
REMARK    4  A    between atoms: N_17  and  C_18
REMARK    5  A    between atoms: N_26  and  C_27
REMARK    6  A    between atoms: C_27  and  C_28
REMARK    7  A    between atoms: N_30  and  C_31
REMARK    8  A    between atoms: N_30  and  C_32
REMARK                            x       y       z     vdW  Elec       q    Type
REMARK                         _______ _______ _______ _____ _____    ______ ____
ROOT
ATOM      1  C   UNL     1       4.067   4.107  17.866  0.00  0.00    +0.000 A 
ATOM      2  C   UNL     1       3.865   2.829  18.268  0.00  0.00    +0.000 A 
ATOM      3  C   UNL     1       2.884   2.480  19.283  0.00  0.00    +0.000 A 
ATOM      4  C   UNL     1       2.162   3.460  19.844  0.00  0.00    +0.000 A 
ATOM      5  N   UNL     1       2.356   4.775  19.435  0.00  0.00    +0.000 N 
ATOM      6  N   UNL     1       1.718   5.868  19.877  0.00  0.00    +0.000 NA
ATOM      7  C   UNL     1       2.253   6.850  19.152  0.00  0.00    +0.000 A 
ATOM      8  N   UNL     1       1.930   8.157  19.193  0.00  0.00    +0.000 N 
ATOM      9  N   UNL     1       3.195   6.446  18.250  0.00  0.00    +0.000 NA
ATOM     10  C   UNL     1       3.271   5.146  18.452  0.00  0.00    +0.000 A 
ATOM     11  H   UNL     1       2.335   8.747  18.480  0.00  0.00    +0.000 HD
ENDROOT
BRANCH   8  12
ATOM     12  C   UNL     1       1.110   8.823  20.121  0.00  0.00    +0.000 A 
ATOM     13  C   UNL     1       1.270   8.599  21.486  0.00  0.00    +0.000 A 
ATOM     14  C   UNL     1       0.555   9.359  22.416  0.00  0.00    +0.000 A 
ATOM     15  C   UNL     1      -0.338  10.372  22.013  0.00  0.00    +0.000 A 
ATOM     16  C   UNL     1      -0.539  10.579  20.640  0.00  0.00    +0.000 A 
ATOM     17  C   UNL     1       0.199   9.810  19.725  0.00  0.00    +0.000 A 
ATOM     18  C   UNL     1      -1.548  11.541  20.060  0.00  0.00    +0.000 C 
ATOM     19  C   UNL     1      -1.415  12.987  20.540  0.00  0.00    +0.000 C 
ATOM     20  N   UNL     1      -1.891  13.275  21.899  0.00  0.00    +0.000 NA
ATOM     21  C   UNL     1      -1.016  12.680  22.918  0.00  0.00    +0.000 C 
ATOM     22  C   UNL     1      -1.058  11.153  23.084  0.00  0.00    +0.000 C 
BRANCH  20  23
ATOM     23  C   UNL     1      -3.313  12.931  22.122  0.00  0.00    +0.000 C 
BRANCH  23  24
ATOM     24  C   UNL     1      -3.935  13.719  23.281  0.00  0.00    +0.000 C 
ATOM     25  O   UNL     1      -4.052  13.177  24.386  0.00  0.00    +0.000 OA
ATOM     26  N   UNL     1      -4.325  15.032  23.056  0.00  0.00    +0.000 N 
ATOM     27  C   UNL     1      -4.333  15.682  21.754  0.00  0.00    +0.000 C 
ATOM     28  C   UNL     1      -4.933  15.777  24.143  0.00  0.00    +0.000 C 
ENDBRANCH  23  24
ENDBRANCH  20  23
ENDBRANCH   8  12
BRANCH   1  35
ATOM     29  C   UNL     1       6.457   4.573  17.218  0.00  0.00    +0.000 A 
ATOM     30  C   UNL     1       7.415   4.774  16.222  0.00  0.00    +0.000 A 
ATOM     31  C   UNL     1       7.033   4.755  14.883  0.00  0.00    +0.000 A 
ATOM     32  F   UNL     1       7.963   4.932  13.935  0.00  0.00    +0.000 F 
ATOM     33  C   UNL     1       5.713   4.542  14.510  0.00  0.00    +0.000 A 
ATOM     34  C   UNL     1       4.749   4.340  15.494  0.00  0.00    +0.000 A 
ATOM     35  C   UNL     1       5.113   4.347  16.851  0.00  0.00    +0.000 A 
BRANCH  29  37
ATOM     36  C   UNL     1       7.271   5.707  19.140  0.00  0.00    +0.000 C 
ATOM     37  O   UNL     1       6.752   4.516  18.558  0.00  0.00    +0.000 OA
ENDBRANCH  29  37
ENDBRANCH   1  35
TORSDOF 5
ENDMDL
MODEL 3
REMARK VINA RESULT:      -9.5      1.175      1.332
REMARK  Name = 
REMARK  8 active torsions:
REMARK  status: ('A' for Active; 'I' for Inactive)
REMARK    1  A    between atoms: C_1  and  O_2
REMARK    2  A    between atoms: O_2  and  C_3
REMARK    3  A    between atoms: C_9  and  C_10
REMARK    4  A    between atoms: N_17  and  C_18
REMARK    5  A    between atoms: N_26  and  C_27
REMARK    6  A    between atoms: C_27  and  C_28
REMARK    7  A    between atoms: N_30  and  C_31
REMARK    8  A    between atoms: N_30  and  C_32
REMARK                            x       y       z     vdW  Elec       q    Type
REMARK                         _______ _______ _______ _____ _____    ______ ____
ROOT
ATOM      1  C   UNL     1       4.336   4.139  17.247  0.00  0.00    +0.000 A 
ATOM      2  C   UNL     1       4.189   2.847  17.628  0.00  0.00    +0.000 A 
ATOM      3  C   UNL     1       3.249   2.444  18.661  0.00  0.00    +0.000 A 
ATOM      4  C   UNL     1       2.509   3.387  19.262  0.00  0.00    +0.000 A 
ATOM      5  N   UNL     1       2.647   4.716  18.875  0.00  0.00    +0.000 N 
ATOM      6  N   UNL     1       1.985   5.777  19.357  0.00  0.00    +0.000 NA
ATOM      7  C   UNL     1       2.466   6.791  18.639  0.00  0.00    +0.000 A 
ATOM      8  N   UNL     1       2.099   8.085  18.716  0.00  0.00    +0.000 N 
ATOM      9  N   UNL     1       3.396   6.438  17.703  0.00  0.00    +0.000 NA
ATOM     10  C   UNL     1       3.522   5.137  17.877  0.00  0.00    +0.000 A 
ATOM     11  H   UNL     1       2.464   8.703  18.004  0.00  0.00    +0.000 HD
ENDROOT
BRANCH   8  12
ATOM     12  C   UNL     1       1.283   8.703  19.679  0.00  0.00    +0.000 A 
ATOM     13  C   UNL     1       1.444   8.407  21.030  0.00  0.00    +0.000 A 
ATOM     14  C   UNL     1       0.732   9.118  22.000  0.00  0.00    +0.000 A 
ATOM     15  C   UNL     1      -0.157  10.155  21.652  0.00  0.00    +0.000 A 
ATOM     16  C   UNL     1      -0.358  10.436  20.293  0.00  0.00    +0.000 A 
ATOM     17  C   UNL     1       0.376   9.714  19.337  0.00  0.00    +0.000 A 
ATOM     18  C   UNL     1      -1.364  11.432  19.766  0.00  0.00    +0.000 C 
ATOM     19  C   UNL     1      -1.224  12.849  20.323  0.00  0.00    +0.000 C 
ATOM     20  N   UNL     1      -1.698  13.066  21.696  0.00  0.00    +0.000 NA
ATOM     21  C   UNL     1      -0.824  12.414  22.681  0.00  0.00    +0.000 C 
ATOM     22  C   UNL     1      -0.873  10.880  22.765  0.00  0.00    +0.000 C 
BRANCH  20  23
ATOM     23  C   UNL     1      -3.121  12.717  21.902  0.00  0.00    +0.000 C 
BRANCH  23  24
ATOM     24  C   UNL     1      -3.980  13.933  22.268  0.00  0.00    +0.000 C 
ATOM     25  O   UNL     1      -4.218  14.786  21.407  0.00  0.00    +0.000 OA
ATOM     26  N   UNL     1      -4.487  14.021  23.558  0.00  0.00    +0.000 N 
ATOM     27  C   UNL     1      -4.139  13.123  24.648  0.00  0.00    +0.000 C 
ATOM     28  C   UNL     1      -5.283  15.181  23.918  0.00  0.00    +0.000 C 
ENDBRANCH  23  24
ENDBRANCH  20  23
ENDBRANCH   8  12
BRANCH   1  35
ATOM     29  C   UNL     1       6.627   4.920  16.547  0.00  0.00    +0.000 A 
ATOM     30  C   UNL     1       7.555   5.166  15.532  0.00  0.00    +0.000 A 
ATOM     31  C   UNL     1       7.204   4.935  14.205  0.00  0.00    +0.000 A 
ATOM     32  F   UNL     1       8.108   5.158  13.241  0.00  0.00    +0.000 F 
ATOM     33  C   UNL     1       5.944   4.464  13.860  0.00  0.00    +0.000 A 
ATOM     34  C   UNL     1       5.010   4.216  14.864  0.00  0.00    +0.000 A 
ATOM     35  C   UNL     1       5.345   4.434  16.211  0.00  0.00    +0.000 A 
BRANCH  29  37
ATOM     36  C   UNL     1       7.468   6.309  18.281  0.00  0.00    +0.000 C 
ATOM     37  O   UNL     1       6.905   5.063  17.884  0.00  0.00    +0.000 OA
ENDBRANCH  29  37
ENDBRANCH   1  35
TORSDOF 5
ENDMDL
MODEL 4
REMARK VINA RESULT:      -9.0      1.026      1.654
REMARK  Name = 
REMARK  8 active torsions:
REMARK  status: ('A' for Active; 'I' for Inactive)
REMARK    1  A    between atoms: C_1  and  O_2
REMARK    2  A    between atoms: O_2  and  C_3
REMARK    3  A    between atoms: C_9  and  C_10
REMARK    4  A    between atoms: N_17  and  C_18
REMARK    5  A    between atoms: N_26  and  C_27
REMARK    6  A    between atoms: C_27  and  C_28
REMARK    7  A    between atoms: N_30  and  C_31
REMARK    8  A    between atoms: N_30  and  C_32
REMARK                            x       y       z     vdW  Elec       q    Type
REMARK                         _______ _______ _______ _____ _____    ______ ____
ROOT
ATOM      1  C   UNL     1       3.870   4.211  19.380  0.00  0.00    +0.000 A 
ATOM      2  C   UNL     1       3.757   3.051  20.072  0.00  0.00    +0.000 A 
ATOM      3  C   UNL     1       2.830   2.895  21.181  0.00  0.00    +0.000 A 
ATOM      4  C   UNL     1       2.066   3.938  21.533  0.00  0.00    +0.000 A 
ATOM      5  N   UNL     1       2.169   5.132  20.827  0.00  0.00    +0.000 N 
ATOM      6  N   UNL     1       1.479   6.263  21.035  0.00  0.00    +0.000 NA
ATOM      7  C   UNL     1       1.932   7.078  20.082  0.00  0.00    +0.000 A 
ATOM      8  N   UNL     1       1.532   8.340  19.838  0.00  0.00    +0.000 N 
ATOM      9  N   UNL     1       2.870   6.527  19.257  0.00  0.00    +0.000 NA
ATOM     10  C   UNL     1       3.030   5.314  19.748  0.00  0.00    +0.000 A 
ATOM     11  H   UNL     1       1.879   8.771  18.992  0.00  0.00    +0.000 HD
ENDROOT
BRANCH   8  12
ATOM     12  C   UNL     1       0.701   9.159  20.623  0.00  0.00    +0.000 A 
ATOM     13  C   UNL     1       0.684   9.019  22.008  0.00  0.00    +0.000 A 
ATOM     14  C   UNL     1      -0.033   9.918  22.802  0.00  0.00    +0.000 A 
ATOM     15  C   UNL     1      -0.750  10.992  22.238  0.00  0.00    +0.000 A 
ATOM     16  C   UNL     1      -0.775  11.120  20.841  0.00  0.00    +0.000 A 
ATOM     17  C   UNL     1      -0.038  10.209  20.066  0.00  0.00    +0.000 A 
ATOM     18  C   UNL     1      -1.594  12.144  20.092  0.00  0.00    +0.000 C 
ATOM     19  C   UNL     1      -1.344  13.596  20.498  0.00  0.00    +0.000 C 
ATOM     20  N   UNL     1      -1.927  14.034  21.773  0.00  0.00    +0.000 NA
ATOM     21  C   UNL     1      -1.244  13.421  22.920  0.00  0.00    +0.000 C 
ATOM     22  C   UNL     1      -1.485  11.923  23.170  0.00  0.00    +0.000 C 
BRANCH  20  23
ATOM     23  C   UNL     1      -3.396  13.867  21.849  0.00  0.00    +0.000 C 
BRANCH  23  24
ATOM     24  C   UNL     1      -4.086  15.039  22.555  0.00  0.00    +0.000 C 
ATOM     25  O   UNL     1      -3.663  16.187  22.375  0.00  0.00    +0.000 OA
ATOM     26  N   UNL     1      -5.188  14.774  23.356  0.00  0.00    +0.000 N 
ATOM     27  C   UNL     1      -5.653  13.441  23.710  0.00  0.00    +0.000 C 
ATOM     28  C   UNL     1      -5.834  15.877  24.044  0.00  0.00    +0.000 C 
ENDBRANCH  23  24
ENDBRANCH  20  23
ENDBRANCH   8  12
BRANCH   1  35
ATOM     29  C   UNL     1       4.526   3.952  16.962  0.00  0.00    +0.000 A 
ATOM     30  C   UNL     1       5.501   4.036  15.965  0.00  0.00    +0.000 A 
ATOM     31  C   UNL     1       6.797   4.420  16.298  0.00  0.00    +0.000 A 
ATOM     32  F   UNL     1       7.720   4.514  15.331  0.00  0.00    +0.000 F 
ATOM     33  C   UNL     1       7.149   4.722  17.607  0.00  0.00    +0.000 A 
ATOM     34  C   UNL     1       6.185   4.642  18.609  0.00  0.00    +0.000 A 
ATOM     35  C   UNL     1       4.869   4.264  18.295  0.00  0.00    +0.000 A 
BRANCH  29  37
ATOM     36  C   UNL     1       2.820   2.298  16.991  0.00  0.00    +0.000 C 
ATOM     37  O   UNL     1       3.211   3.640  16.716  0.00  0.00    +0.000 OA
ENDBRANCH  29  37
ENDBRANCH   1  35
TORSDOF 5
ENDMDL
MODEL 5
REMARK VINA RESULT:      -8.9      1.410      1.942
REMARK  Name = 
REMARK  8 active torsions:
REMARK  status: ('A' for Active; 'I' for Inactive)
REMARK    1  A    between atoms: C_1  and  O_2
REMARK    2  A    between atoms: O_2  and  C_3
REMARK    3  A    between atoms: C_9  and  C_10
REMARK    4  A    between atoms: N_17  and  C_18
REMARK    5  A    between atoms: N_26  and  C_27
REMARK    6  A    between atoms: C_27  and  C_28
REMARK    7  A    between atoms: N_30  and  C_31
REMARK    8  A    between atoms: N_30  and  C_32
REMARK                            x       y       z     vdW  Elec       q    Type
REMARK                         _______ _______ _______ _____ _____    ______ ____
ROOT
ATOM      1  C   UNL     1       3.882   4.171  19.366  0.00  0.00    +0.000 A 
ATOM      2  C   UNL     1       3.773   3.006  20.048  0.00  0.00    +0.000 A 
ATOM      3  C   UNL     1       2.849   2.840  21.159  0.00  0.00    +0.000 A 
ATOM      4  C   UNL     1       2.086   3.880  21.522  0.00  0.00    +0.000 A 
ATOM      5  N   UNL     1       2.186   5.080  20.825  0.00  0.00    +0.000 N 
ATOM      6  N   UNL     1       1.496   6.208  21.044  0.00  0.00    +0.000 NA
ATOM      7  C   UNL     1       1.946   7.031  20.097  0.00  0.00    +0.000 A 
ATOM      8  N   UNL     1       1.544   8.295  19.864  0.00  0.00    +0.000 N 
ATOM      9  N   UNL     1       2.881   6.487  19.264  0.00  0.00    +0.000 NA
ATOM     10  C   UNL     1       3.043   5.270  19.745  0.00  0.00    +0.000 A 
ATOM     11  H   UNL     1       1.889   8.733  19.020  0.00  0.00    +0.000 HD
ENDROOT
BRANCH   8  12
ATOM     12  C   UNL     1       0.716   9.107  20.658  0.00  0.00    +0.000 A 
ATOM     13  C   UNL     1       0.765   9.015  22.047  0.00  0.00    +0.000 A 
ATOM     14  C   UNL     1       0.047   9.912  22.842  0.00  0.00    +0.000 A 
ATOM     15  C   UNL     1      -0.737  10.937  22.276  0.00  0.00    +0.000 A 
ATOM     16  C   UNL     1      -0.828  11.015  20.878  0.00  0.00    +0.000 A 
ATOM     17  C   UNL     1      -0.089  10.108  20.101  0.00  0.00    +0.000 A 
ATOM     18  C   UNL     1      -1.721  11.979  20.133  0.00  0.00    +0.000 C 
ATOM     19  C   UNL     1      -1.513  13.454  20.479  0.00  0.00    +0.000 C 
ATOM     20  N   UNL     1      -2.057  13.911  21.764  0.00  0.00    +0.000 NA
ATOM     21  C   UNL     1      -1.300  13.366  22.899  0.00  0.00    +0.000 C 
ATOM     22  C   UNL     1      -1.468  11.870  23.209  0.00  0.00    +0.000 C 
BRANCH  20  23
ATOM     23  C   UNL     1      -3.513  13.689  21.912  0.00  0.00    +0.000 C 
BRANCH  23  24
ATOM     24  C   UNL     1      -4.345  14.642  21.046  0.00  0.00    +0.000 C 
ATOM     25  O   UNL     1      -4.038  15.839  20.996  0.00  0.00    +0.000 OA
ATOM     26  N   UNL     1      -5.407  14.120  20.320  0.00  0.00    +0.000 N 
ATOM     27  C   UNL     1      -5.898  12.755  20.435  0.00  0.00    +0.000 C 
ATOM     28  C   UNL     1      -6.212  15.020  19.514  0.00  0.00    +0.000 C 
ENDBRANCH  23  24
ENDBRANCH  20  23
ENDBRANCH   8  12
BRANCH   1  35
ATOM     29  C   UNL     1       4.530   3.935  16.942  0.00  0.00    +0.000 A 
ATOM     30  C   UNL     1       5.501   4.028  15.943  0.00  0.00    +0.000 A 
ATOM     31  C   UNL     1       6.799   4.406  16.275  0.00  0.00    +0.000 A 
ATOM     32  F   UNL     1       7.719   4.508  15.307  0.00  0.00    +0.000 F 
ATOM     33  C   UNL     1       7.157   4.694  17.586  0.00  0.00    +0.000 A 
ATOM     34  C   UNL     1       6.196   4.605  18.591  0.00  0.00    +0.000 A 
ATOM     35  C   UNL     1       4.878   4.233  18.277  0.00  0.00    +0.000 A 
BRANCH  29  37
ATOM     36  C   UNL     1       2.806   2.301  17.016  0.00  0.00    +0.000 C 
ATOM     37  O   UNL     1       3.214   3.628  16.698  0.00  0.00    +0.000 OA
ENDBRANCH  29  37
ENDBRANCH   1  35
TORSDOF 5
ENDMDL
MODEL 6
REMARK VINA RESULT:      -8.5      1.525      2.274
REMARK  Name = 
REMARK  8 active torsions:
REMARK  status: ('A' for Active; 'I' for Inactive)
REMARK    1  A    between atoms: C_1  and  O_2
REMARK    2  A    between atoms: O_2  and  C_3
REMARK    3  A    between atoms: C_9  and  C_10
REMARK    4  A    between atoms: N_17  and  C_18
REMARK    5  A    between atoms: N_26  and  C_27
REMARK    6  A    between atoms: C_27  and  C_28
REMARK    7  A    between atoms: N_30  and  C_31
REMARK    8  A    between atoms: N_30  and  C_32
REMARK                            x       y       z     vdW  Elec       q    Type
REMARK                         _______ _______ _______ _____ _____    ______ ____
ROOT
ATOM      1  C   UNL     1       4.018   5.307  18.379  0.00  0.00    +0.000 A 
ATOM      2  C   UNL     1       3.937   4.300  19.281  0.00  0.00    +0.000 A 
ATOM      3  C   UNL     1       3.029   4.344  20.416  0.00  0.00    +0.000 A 
ATOM      4  C   UNL     1       2.252   5.425  20.576  0.00  0.00    +0.000 A 
ATOM      5  N   UNL     1       2.322   6.462  19.653  0.00  0.00    +0.000 N 
ATOM      6  N   UNL     1       1.615   7.601  19.653  0.00  0.00    +0.000 NA
ATOM      7  C   UNL     1       2.039   8.226  18.555  0.00  0.00    +0.000 A 
ATOM      8  N   UNL     1       1.612   9.412  18.081  0.00  0.00    +0.000 N 
ATOM      9  N   UNL     1       2.974   7.541  17.833  0.00  0.00    +0.000 NA
ATOM     10  C   UNL     1       3.164   6.447  18.544  0.00  0.00    +0.000 A 
ATOM     11  H   UNL     1       1.939   9.677  17.162  0.00  0.00    +0.000 HD
ENDROOT
BRANCH   8  12
ATOM     12  C   UNL     1       0.778  10.353  18.710  0.00  0.00    +0.000 A 
ATOM     13  C   UNL     1      -0.114  11.113  17.959  0.00  0.00    +0.000 A 
ATOM     14  C   UNL     1      -1.039  11.948  18.590  0.00  0.00    +0.000 A 
ATOM     15  C   UNL     1      -1.110  12.044  19.995  0.00  0.00    +0.000 A 
ATOM     16  C   UNL     1      -0.190  11.315  20.762  0.00  0.00    +0.000 A 
ATOM     17  C   UNL     1       0.724  10.475  20.104  0.00  0.00    +0.000 A 
ATOM     18  C   UNL     1      -0.066  11.409  22.264  0.00  0.00    +0.000 C 
ATOM     19  C   UNL     1      -1.354  11.130  23.039  0.00  0.00    +0.000 C 
ATOM     20  N   UNL     1      -2.367  12.193  23.036  0.00  0.00    +0.000 NA
ATOM     21  C   UNL     1      -2.995  12.340  21.716  0.00  0.00    +0.000 C 
ATOM     22  C   UNL     1      -2.149  12.960  20.593  0.00  0.00    +0.000 C 
BRANCH  20  23
ATOM     23  C   UNL     1      -1.880  13.488  23.564  0.00  0.00    +0.000 C 
BRANCH  23  24
ATOM     24  C   UNL     1      -2.969  14.268  24.308  0.00  0.00    +0.000 C 
ATOM     25  O   UNL     1      -3.762  13.657  25.034  0.00  0.00    +0.000 OA
ATOM     26  N   UNL     1      -3.013  15.648  24.162  0.00  0.00    +0.000 N 
ATOM     27  C   UNL     1      -2.196  16.408  23.227  0.00  0.00    +0.000 C 
ATOM     28  C   UNL     1      -4.055  16.391  24.847  0.00  0.00    +0.000 C 
ENDBRANCH  23  24
ENDBRANCH  20  23
ENDBRANCH   8  12
BRANCH   1  35
ATOM     29  C   UNL     1       6.305   5.692  17.395  0.00  0.00    +0.000 A 
ATOM     30  C   UNL     1       7.206   5.517  16.343  0.00  0.00    +0.000 A 
ATOM     31  C   UNL     1       6.806   4.833  15.198  0.00  0.00    +0.000 A 
ATOM     32  F   UNL     1       7.683   4.655  14.201  0.00  0.00    +0.000 F 
ATOM     33  C   UNL     1       5.522   4.318  15.075  0.00  0.00    +0.000 A 
ATOM     34  C   UNL     1       4.615   4.487  16.118  0.00  0.00    +0.000 A 
ATOM     35  C   UNL     1       5.000   5.167  17.286  0.00  0.00    +0.000 A 
BRANCH  29  37
ATOM     36  C   UNL     1       7.762   5.777  19.271  0.00  0.00    +0.000 C 
ATOM     37  O   UNL     1       6.631   6.301  18.583  0.00  0.00    +0.000 OA
ENDBRANCH  29  37
ENDBRANCH   1  35
TORSDOF 5
ENDMDL
MODEL 7
REMARK VINA RESULT:      -8.5      2.656      3.507
REMARK  Name = 
REMARK  8 active torsions:
REMARK  status: ('A' for Active; 'I' for Inactive)
REMARK    1  A    between atoms: C_1  and  O_2
REMARK    2  A    between atoms: O_2  and  C_3
REMARK    3  A    between atoms: C_9  and  C_10
REMARK    4  A    between atoms: N_17  and  C_18
REMARK    5  A    between atoms: N_26  and  C_27
REMARK    6  A    between atoms: C_27  and  C_28
REMARK    7  A    between atoms: N_30  and  C_31
REMARK    8  A    between atoms: N_30  and  C_32
REMARK                            x       y       z     vdW  Elec       q    Type
REMARK                         _______ _______ _______ _____ _____    ______ ____
ROOT
ATOM      1  C   UNL     1       4.551   5.139  17.627  0.00  0.00    +0.000 A 
ATOM      2  C   UNL     1       4.619   4.128  18.525  0.00  0.00    +0.000 A 
ATOM      3  C   UNL     1       3.858   4.137  19.764  0.00  0.00    +0.000 A 
ATOM      4  C   UNL     1       3.069   5.188  20.027  0.00  0.00    +0.000 A 
ATOM      5  N   UNL     1       2.987   6.230  19.110  0.00  0.00    +0.000 N 
ATOM      6  N   UNL     1       2.246   7.343  19.205  0.00  0.00    +0.000 NA
ATOM      7  C   UNL     1       2.508   7.985  18.067  0.00  0.00    +0.000 A 
ATOM      8  N   UNL     1       1.984   9.156  17.658  0.00  0.00    +0.000 N 
ATOM      9  N   UNL     1       3.370   7.336  17.230  0.00  0.00    +0.000 NA
ATOM     10  C   UNL     1       3.684   6.248  17.904  0.00  0.00    +0.000 A 
ATOM     11  H   UNL     1       2.184   9.435  16.707  0.00  0.00    +0.000 HD
ENDROOT
BRANCH   8  12
ATOM     12  C   UNL     1       1.202  10.065  18.392  0.00  0.00    +0.000 A 
ATOM     13  C   UNL     1      -0.014   9.664  18.937  0.00  0.00    +0.000 A 
ATOM     14  C   UNL     1      -0.729  10.519  19.781  0.00  0.00    +0.000 A 
ATOM     15  C   UNL     1      -0.246  11.801  20.115  0.00  0.00    +0.000 A 
ATOM     16  C   UNL     1       0.958  12.233  19.539  0.00  0.00    +0.000 A 
ATOM     17  C   UNL     1       1.662  11.351  18.701  0.00  0.00    +0.000 A 
ATOM     18  C   UNL     1       1.536  13.618  19.706  0.00  0.00    +0.000 C 
ATOM     19  C   UNL     1       1.748  14.060  21.154  0.00  0.00    +0.000 C 
ATOM     20  N   UNL     1       0.548  14.449  21.906  0.00  0.00    +0.000 NA
ATOM     21  C   UNL     1      -0.300  13.289  22.210  0.00  0.00    +0.000 C 
ATOM     22  C   UNL     1      -1.074  12.652  21.044  0.00  0.00    +0.000 C 
BRANCH  20  23
ATOM     23  C   UNL     1      -0.221  15.549  21.283  0.00  0.00    +0.000 C 
BRANCH  23  24
ATOM     24  C   UNL     1       0.590  16.845  21.171  0.00  0.00    +0.000 C 
ATOM     25  O   UNL     1       1.055  17.358  22.195  0.00  0.00    +0.000 OA
ATOM     26  N   UNL     1       0.800  17.389  19.911  0.00  0.00    +0.000 N 
ATOM     27  C   UNL     1       0.175  16.909  18.687  0.00  0.00    +0.000 C 
ATOM     28  C   UNL     1       1.549  18.627  19.799  0.00  0.00    +0.000 C 
ENDBRANCH  23  24
ENDBRANCH  20  23
ENDBRANCH   8  12
BRANCH   1  35
ATOM     29  C   UNL     1       6.715   5.532  16.398  0.00  0.00    +0.000 A 
ATOM     30  C   UNL     1       7.481   5.393  15.238  0.00  0.00    +0.000 A 
ATOM     31  C   UNL     1       6.932   4.776  14.118  0.00  0.00    +0.000 A 
ATOM     32  F   UNL     1       7.681   4.633  13.016  0.00  0.00    +0.000 F 
ATOM     33  C   UNL     1       5.630   4.292  14.123  0.00  0.00    +0.000 A 
ATOM     34  C   UNL     1       4.857   4.424  15.274  0.00  0.00    +0.000 A 
ATOM     35  C   UNL     1       5.394   5.037  16.419  0.00  0.00    +0.000 A 
BRANCH  29  37
ATOM     36  C   UNL     1       7.491   7.465  17.541  0.00  0.00    +0.000 C 
ATOM     37  O   UNL     1       7.194   6.073  17.566  0.00  0.00    +0.000 OA
ENDBRANCH  29  37
ENDBRANCH   1  35
TORSDOF 5
ENDMDL
MODEL 8
REMARK VINA RESULT:      -8.4      2.211      2.627
REMARK  Name = 
REMARK  8 active torsions:
REMARK  status: ('A' for Active; 'I' for Inactive)
REMARK    1  A    between atoms: C_1  and  O_2
REMARK    2  A    between atoms: O_2  and  C_3
REMARK    3  A    between atoms: C_9  and  C_10
REMARK    4  A    between atoms: N_17  and  C_18
REMARK    5  A    between atoms: N_26  and  C_27
REMARK    6  A    between atoms: C_27  and  C_28
REMARK    7  A    between atoms: N_30  and  C_31
REMARK    8  A    between atoms: N_30  and  C_32
REMARK                            x       y       z     vdW  Elec       q    Type
REMARK                         _______ _______ _______ _____ _____    ______ ____
ROOT
ATOM      1  C   UNL     1       4.105   5.380  18.086  0.00  0.00    +0.000 A 
ATOM      2  C   UNL     1       3.991   4.353  18.961  0.00  0.00    +0.000 A 
ATOM      3  C   UNL     1       3.097   4.404  20.107  0.00  0.00    +0.000 A 
ATOM      4  C   UNL     1       2.368   5.511  20.306  0.00  0.00    +0.000 A 
ATOM      5  N   UNL     1       2.473   6.570  19.411  0.00  0.00    +0.000 N 
ATOM      6  N   UNL     1       1.815   7.738  19.450  0.00  0.00    +0.000 NA
ATOM      7  C   UNL     1       2.253   8.374  18.364  0.00  0.00    +0.000 A 
ATOM      8  N   UNL     1       1.872   9.590  17.927  0.00  0.00    +0.000 N 
ATOM      9  N   UNL     1       3.151   7.671  17.613  0.00  0.00    +0.000 NA
ATOM     10  C   UNL     1       3.302   6.550  18.292  0.00  0.00    +0.000 A 
ATOM     11  H   UNL     1       2.201   9.866  17.012  0.00  0.00    +0.000 HD
ENDROOT
BRANCH   8  12
ATOM     12  C   UNL     1       1.086  10.547  18.591  0.00  0.00    +0.000 A 
ATOM     13  C   UNL     1      -0.216  10.240  18.978  0.00  0.00    +0.000 A 
ATOM     14  C   UNL     1      -0.953  11.135  19.758  0.00  0.00    +0.000 A 
ATOM     15  C   UNL     1      -0.410  12.365  20.183  0.00  0.00    +0.000 A 
ATOM     16  C   UNL     1       0.885  12.704  19.766  0.00  0.00    +0.000 A 
ATOM     17  C   UNL     1       1.609  11.783  18.991  0.00  0.00    +0.000 A 
ATOM     18  C   UNL     1       1.550  14.032  20.040  0.00  0.00    +0.000 C 
ATOM     19  C   UNL     1       1.624  14.426  21.516  0.00  0.00    +0.000 C 
ATOM     20  N   UNL     1       0.378  14.900  22.133  0.00  0.00    +0.000 NA
ATOM     21  C   UNL     1      -0.592  13.810  22.300  0.00  0.00    +0.000 C 
ATOM     22  C   UNL     1      -1.271  13.265  21.034  0.00  0.00    +0.000 C 
BRANCH  20  23
ATOM     23  C   UNL     1      -0.218  16.074  21.456  0.00  0.00    +0.000 C 
BRANCH  23  24
ATOM     24  C   UNL     1      -1.151  16.872  22.374  0.00  0.00    +0.000 C 
ATOM     25  O   UNL     1      -0.767  17.178  23.509  0.00  0.00    +0.000 OA
ATOM     26  N   UNL     1      -2.394  17.251  21.887  0.00  0.00    +0.000 N 
ATOM     27  C   UNL     1      -2.954  16.816  20.617  0.00  0.00    +0.000 C 
ATOM     28  C   UNL     1      -3.291  17.990  22.758  0.00  0.00    +0.000 C 
ENDBRANCH  23  24
ENDBRANCH  20  23
ENDBRANCH   8  12
BRANCH   1  35
ATOM     29  C   UNL     1       6.364   5.784  17.047  0.00  0.00    +0.000 A 
ATOM     30  C   UNL     1       7.248   5.597  15.982  0.00  0.00    +0.000 A 
ATOM     31  C   UNL     1       6.841   4.873  14.866  0.00  0.00    +0.000 A 
ATOM     32  F   UNL     1       7.702   4.685  13.857  0.00  0.00    +0.000 F 
ATOM     33  C   UNL     1       5.566   4.328  14.782  0.00  0.00    +0.000 A 
ATOM     34  C   UNL     1       4.676   4.508  15.838  0.00  0.00    +0.000 A 
ATOM     35  C   UNL     1       5.069   5.229  16.978  0.00  0.00    +0.000 A 
BRANCH  29  37
ATOM     36  C   UNL     1       7.707   5.817  19.007  0.00  0.00    +0.000 C 
ATOM     37  O   UNL     1       6.700   6.432  18.211  0.00  0.00    +0.000 OA
ENDBRANCH  29  37
ENDBRANCH   1  35
TORSDOF 5
ENDMDL
MODEL 9
REMARK VINA RESULT:      -8.3      1.598      1.805
REMARK  Name = 
REMARK  8 active torsions:
REMARK  status: ('A' for Active; 'I' for Inactive)
REMARK    1  A    between atoms: C_1  and  O_2
REMARK    2  A    between atoms: O_2  and  C_3
REMARK    3  A    between atoms: C_9  and  C_10
REMARK    4  A    between atoms: N_17  and  C_18
REMARK    5  A    between atoms: N_26  and  C_27
REMARK    6  A    between atoms: C_27  and  C_28
REMARK    7  A    between atoms: N_30  and  C_31
REMARK    8  A    between atoms: N_30  and  C_32
REMARK                            x       y       z     vdW  Elec       q    Type
REMARK                         _______ _______ _______ _____ _____    ______ ____
ROOT
ATOM      1  C   UNL     1       4.556   4.877  17.754  0.00  0.00    +0.000 A 
ATOM      2  C   UNL     1       4.644   3.784  18.550  0.00  0.00    +0.000 A 
ATOM      3  C   UNL     1       3.872   3.651  19.775  0.00  0.00    +0.000 A 
ATOM      4  C   UNL     1       3.052   4.650  20.130  0.00  0.00    +0.000 A 
ATOM      5  N   UNL     1       2.950   5.775  19.319  0.00  0.00    +0.000 N 
ATOM      6  N   UNL     1       2.178   6.853  19.514  0.00  0.00    +0.000 NA
ATOM      7  C   UNL     1       2.431   7.610  18.447  0.00  0.00    +0.000 A 
ATOM      8  N   UNL     1       1.879   8.802  18.149  0.00  0.00    +0.000 N 
ATOM      9  N   UNL     1       3.318   7.070  17.561  0.00  0.00    +0.000 NA
ATOM     10  C   UNL     1       3.657   5.929  18.129  0.00  0.00    +0.000 A 
ATOM     11  H   UNL     1       2.080   9.178  17.233  0.00  0.00    +0.000 HD
ENDROOT
BRANCH   8  12
ATOM     12  C   UNL     1       1.066   9.613  18.960  0.00  0.00    +0.000 A 
ATOM     13  C   UNL     1       1.619  10.318  20.025  0.00  0.00    +0.000 A 
ATOM     14  C   UNL     1       0.846  11.231  20.748  0.00  0.00    +0.000 A 
ATOM     15  C   UNL     1      -0.504  11.475  20.424  0.00  0.00    +0.000 A 
ATOM     16  C   UNL     1      -1.084  10.741  19.379  0.00  0.00    +0.000 A 
ATOM     17  C   UNL     1      -0.283   9.836  18.661  0.00  0.00    +0.000 A 
ATOM     18  C   UNL     1      -2.544  10.806  18.997  0.00  0.00    +0.000 C 
ATOM     19  C   UNL     1      -3.067  12.206  18.675  0.00  0.00    +0.000 C 
ATOM     20  N   UNL     1      -3.305  13.099  19.816  0.00  0.00    +0.000 NA
ATOM     21  C   UNL     1      -2.046  13.531  20.438  0.00  0.00    +0.000 C 
ATOM     22  C   UNL     1      -1.261  12.487  21.247  0.00  0.00    +0.000 C 
BRANCH  20  23
ATOM     23  C   UNL     1      -4.257  12.559  20.812  0.00  0.00    +0.000 C 
BRANCH  23  24
ATOM     24  C   UNL     1      -4.989  13.662  21.586  0.00  0.00    +0.000 C 
ATOM     25  O   UNL     1      -5.650  14.501  20.964  0.00  0.00    +0.000 OA
ATOM     26  N   UNL     1      -4.905  13.665  22.972  0.00  0.00    +0.000 N 
ATOM     27  C   UNL     1      -4.044  12.789  23.752  0.00  0.00    +0.000 C 
ATOM     28  C   UNL     1      -5.578  14.718  23.710  0.00  0.00    +0.000 C 
ENDBRANCH  23  24
ENDBRANCH  20  23
ENDBRANCH   8  12
BRANCH   1  35
ATOM     29  C   UNL     1       6.643   5.606  16.545  0.00  0.00    +0.000 A 
ATOM     30  C   UNL     1       7.427   5.597  15.389  0.00  0.00    +0.000 A 
ATOM     31  C   UNL     1       6.985   4.915  14.259  0.00  0.00    +0.000 A 
ATOM     32  F   UNL     1       7.754   4.899  13.162  0.00  0.00    +0.000 F 
ATOM     33  C   UNL     1       5.772   4.239  14.250  0.00  0.00    +0.000 A 
ATOM     34  C   UNL     1       4.981   4.240  15.397  0.00  0.00    +0.000 A 
ATOM     35  C   UNL     1       5.412   4.916  16.551  0.00  0.00    +0.000 A 
BRANCH  29  37
ATOM     36  C   UNL     1       7.571   7.513  17.616  0.00  0.00    +0.000 C 
ATOM     37  O   UNL     1       7.026   6.201  17.721  0.00  0.00    +0.000 OA
ENDBRANCH  29  37
ENDBRANCH   1  35
TORSDOF 5
ENDMDL
