MODEL 1
REMARK VINA RESULT:      -7.0      0.000      0.000
REMARK  Name = 
REMARK  7 active torsions:
REMARK  status: ('A' for Active; 'I' for Inactive)
REMARK    1  A    between atoms: C_1  and  O_2
REMARK    2  A    between atoms: O_2  and  C_3
REMARK    3  A    between atoms: C_6  and  N_7
REMARK    4  A    between atoms: C_11  and  O_13
REMARK    5  A    between atoms: O_13  and  C_14
REMARK    6  A    between atoms: C_14  and  C_15
REMARK    7  A    between atoms: C_14  and  C_19
REMARK                            x       y       z     vdW  Elec       q    Type
REMARK                         _______ _______ _______ _____ _____    ______ ____
ROOT
ATOM      1  N   UNL     1       1.429   9.190  19.225  0.00  0.00    +0.000 N 
ATOM      2  C   UNL     1       1.700   8.245  20.327  0.00  0.00    +0.000 C 
ATOM      3  C   UNL     1       1.921   6.829  19.762  0.00  0.00    +0.000 C 
ATOM      4  N   UNL     1       2.938   6.825  18.706  0.00  0.00    +0.000 N 
ATOM      5  C   UNL     1       4.056   6.038  18.825  0.00  0.00    +0.000 C 
ATOM      6  O   UNL     1       4.302   5.316  19.781  0.00  0.00    +0.000 OA
ATOM      7  C   UNL     1       2.678   7.769  17.611  0.00  0.00    +0.000 C 
ATOM      8  C   UNL     1       2.439   9.195  18.148  0.00  0.00    +0.000 C 
ENDROOT
BRANCH   1  12
ATOM      9  C   UNL     1      -2.124  11.495  19.162  0.00  0.00    +0.000 A 
ATOM     10  C   UNL     1      -1.295  11.503  20.276  0.00  0.00    +0.000 A 
ATOM     11  C   UNL     1      -0.107  10.756  20.282  0.00  0.00    +0.000 A 
ATOM     12  C   UNL     1       0.278   9.955  19.195  0.00  0.00    +0.000 A 
ATOM     13  C   UNL     1      -0.582   9.967  18.088  0.00  0.00    +0.000 A 
ATOM     14  C   UNL     1      -1.766  10.719  18.066  0.00  0.00    +0.000 A 
BRANCH   9  16
ATOM     15  C   UNL     1      -3.475  12.860  20.532  0.00  0.00    +0.000 C 
ATOM     16  O   UNL     1      -3.264  12.242  19.268  0.00  0.00    +0.000 OA
ENDBRANCH   9  16
ENDBRANCH   1  12
BRANCH   5  17
ATOM     17  O   UNL     1       4.891   6.144  17.760  0.00  0.00    +0.000 OA
BRANCH  17  18
ATOM     18  C   UNL     1       5.666   4.943  17.455  0.00  0.00    +0.000 C 
BRANCH  18  19
ATOM     19  C   UNL     1       5.233   4.282  16.158  0.00  0.00    +0.000 C 
ATOM     20  F   UNL     1       5.186   5.181  15.137  0.00  0.00    +0.000 F 
ATOM     21  F   UNL     1       6.014   3.275  15.728  0.00  0.00    +0.000 F 
ATOM     22  F   UNL     1       3.984   3.772  16.280  0.00  0.00    +0.000 F 
ENDBRANCH  18  19
BRANCH  18  23
ATOM     23  C   UNL     1       7.144   5.272  17.484  0.00  0.00    +0.000 C 
ATOM     24  F   UNL     1       7.472   6.154  16.505  0.00  0.00    +0.000 F 
ATOM     25  F   UNL     1       7.453   5.888  18.656  0.00  0.00    +0.000 F 
ATOM     26  F   UNL     1       7.991   4.237  17.359  0.00  0.00    +0.000 F 
ENDBRANCH  18  23
ENDBRANCH  17  18
ENDBRANCH   5  17
TORSDOF 6
ENDMDL
MODEL 2
REMARK VINA RESULT:      -7.0      0.592      1.581
REMARK  Name = 
REMARK  7 active torsions:
REMARK  status: ('A' for Active; 'I' for Inactive)
REMARK    1  A    between atoms: C_1  and  O_2
REMARK    2  A    between atoms: O_2  and  C_3
REMARK    3  A    between atoms: C_6  and  N_7
REMARK    4  A    between atoms: C_11  and  O_13
REMARK    5  A    between atoms: O_13  and  C_14
REMARK    6  A    between atoms: C_14  and  C_15
REMARK    7  A    between atoms: C_14  and  C_19
REMARK                            x       y       z     vdW  Elec       q    Type
REMARK                         _______ _______ _______ _____ _____    ______ ____
ROOT
ATOM      1  N   UNL     1       1.428   9.121  19.063  0.00  0.00    +0.000 N 
ATOM      2  C   UNL     1       1.736   8.224  20.195  0.00  0.00    +0.000 C 
ATOM      3  C   UNL     1       2.028   6.803  19.676  0.00  0.00    +0.000 C 
ATOM      4  N   UNL     1       3.051   6.816  18.626  0.00  0.00    +0.000 N 
ATOM      5  C   UNL     1       4.204   6.087  18.776  0.00  0.00    +0.000 C 
ATOM      6  O   UNL     1       4.477   5.407  19.755  0.00  0.00    +0.000 OA
ATOM      7  C   UNL     1       2.755   7.713  17.502  0.00  0.00    +0.000 C 
ATOM      8  C   UNL     1       2.445   9.141  17.992  0.00  0.00    +0.000 C 
ENDROOT
BRANCH   1  12
ATOM      9  C   UNL     1      -2.178  11.332  18.849  0.00  0.00    +0.000 A 
ATOM     10  C   UNL     1      -1.799  10.492  17.809  0.00  0.00    +0.000 A 
ATOM     11  C   UNL     1      -0.615   9.744  17.896  0.00  0.00    +0.000 A 
ATOM     12  C   UNL     1       0.243   9.830  19.003  0.00  0.00    +0.000 A 
ATOM     13  C   UNL     1      -0.166  10.689  20.033  0.00  0.00    +0.000 A 
ATOM     14  C   UNL     1      -1.354  11.432  19.962  0.00  0.00    +0.000 A 
BRANCH   9  16
ATOM     15  C   UNL     1      -4.136  11.594  17.558  0.00  0.00    +0.000 C 
ATOM     16  O   UNL     1      -3.338  12.028  18.654  0.00  0.00    +0.000 OA
ENDBRANCH   9  16
ENDBRANCH   1  12
BRANCH   5  17
ATOM     17  O   UNL     1       5.041   6.200  17.713  0.00  0.00    +0.000 OA
BRANCH  17  18
ATOM     18  C   UNL     1       5.775   4.985  17.368  0.00  0.00    +0.000 C 
BRANCH  18  19
ATOM     19  C   UNL     1       5.204   4.282  16.148  0.00  0.00    +0.000 C 
ATOM     20  F   UNL     1       6.033   3.297  15.711  0.00  0.00    +0.000 F 
ATOM     21  F   UNL     1       4.001   3.705  16.319  0.00  0.00    +0.000 F 
ATOM     22  F   UNL     1       5.066   5.155  15.121  0.00  0.00    +0.000 F 
ENDBRANCH  18  19
BRANCH  18  23
ATOM     23  C   UNL     1       7.249   5.305  17.226  0.00  0.00    +0.000 C 
ATOM     24  F   UNL     1       8.010   4.186  17.341  0.00  0.00    +0.000 F 
ATOM     25  F   UNL     1       7.494   5.793  15.981  0.00  0.00    +0.000 F 
ATOM     26  F   UNL     1       7.755   6.197  18.094  0.00  0.00    +0.000 F 
ENDBRANCH  18  23
ENDBRANCH  17  18
ENDBRANCH   5  17
TORSDOF 6
ENDMDL
MODEL 3
REMARK VINA RESULT:      -7.0      0.496      1.453
REMARK  Name = 
REMARK  7 active torsions:
REMARK  status: ('A' for Active; 'I' for Inactive)
REMARK    1  A    between atoms: C_1  and  O_2
REMARK    2  A    between atoms: O_2  and  C_3
REMARK    3  A    between atoms: C_6  and  N_7
REMARK    4  A    between atoms: C_11  and  O_13
REMARK    5  A    between atoms: O_13  and  C_14
REMARK    6  A    between atoms: C_14  and  C_15
REMARK    7  A    between atoms: C_14  and  C_19
REMARK                            x       y       z     vdW  Elec       q    Type
REMARK                         _______ _______ _______ _____ _____    ______ ____
ROOT
ATOM      1  N   UNL     1       1.425   9.187  19.242  0.00  0.00    +0.000 N 
ATOM      2  C   UNL     1       1.748   8.250  20.337  0.00  0.00    +0.000 C 
ATOM      3  C   UNL     1       1.976   6.836  19.769  0.00  0.00    +0.000 C 
ATOM      4  N   UNL     1       2.958   6.847  18.681  0.00  0.00    +0.000 N 
ATOM      5  C   UNL     1       4.093   6.080  18.765  0.00  0.00    +0.000 C 
ATOM      6  O   UNL     1       4.382   5.365  19.715  0.00  0.00    +0.000 OA
ATOM      7  C   UNL     1       2.646   7.783  17.593  0.00  0.00    +0.000 C 
ATOM      8  C   UNL     1       2.400   9.206  18.133  0.00  0.00    +0.000 C 
ENDROOT
BRANCH   1  12
ATOM      9  C   UNL     1      -2.115  11.511  19.232  0.00  0.00    +0.000 A 
ATOM     10  C   UNL     1      -1.751  10.771  18.114  0.00  0.00    +0.000 A 
ATOM     11  C   UNL     1      -0.590   9.984  18.132  0.00  0.00    +0.000 A 
ATOM     12  C   UNL     1       0.261   9.932  19.248  0.00  0.00    +0.000 A 
ATOM     13  C   UNL     1      -0.133  10.693  20.357  0.00  0.00    +0.000 A 
ATOM     14  C   UNL     1      -1.298  11.474  20.355  0.00  0.00    +0.000 A 
BRANCH   9  16
ATOM     15  C   UNL     1      -4.329  11.619  18.422  0.00  0.00    +0.000 C 
ATOM     16  O   UNL     1      -3.254  12.257  19.102  0.00  0.00    +0.000 OA
ENDBRANCH   9  16
ENDBRANCH   1  12
BRANCH   5  17
ATOM     17  O   UNL     1       4.891   6.197  17.674  0.00  0.00    +0.000 OA
BRANCH  17  18
ATOM     18  C   UNL     1       5.676   5.009  17.347  0.00  0.00    +0.000 C 
BRANCH  18  19
ATOM     19  C   UNL     1       5.172   4.299  16.102  0.00  0.00    +0.000 C 
ATOM     20  F   UNL     1       3.929   3.781  16.299  0.00  0.00    +0.000 F 
ATOM     21  F   UNL     1       5.086   5.056  14.994  0.00  0.00    +0.000 F 
ATOM     22  F   UNL     1       5.979   3.257  15.791  0.00  0.00    +0.000 F 
ENDBRANCH  18  19
BRANCH  18  23
ATOM     23  C   UNL     1       7.143   5.377  17.261  0.00  0.00    +0.000 C 
ATOM     24  F   UNL     1       7.471   6.311  18.190  0.00  0.00    +0.000 F 
ATOM     25  F   UNL     1       7.906   4.289  17.546  0.00  0.00    +0.000 F 
ATOM     26  F   UNL     1       7.574   5.850  16.080  0.00  0.00    +0.000 F 
ENDBRANCH  18  23
ENDBRANCH  17  18
ENDBRANCH   5  17
TORSDOF 6
ENDMDL
MODEL 4
REMARK VINA RESULT:      -6.8      0.745      1.092
REMARK  Name = 
REMARK  7 active torsions:
REMARK  status: ('A' for Active; 'I' for Inactive)
REMARK    1  A    between atoms: C_1  and  O_2
REMARK    2  A    between atoms: O_2  and  C_3
REMARK    3  A    between atoms: C_6  and  N_7
REMARK    4  A    between atoms: C_11  and  O_13
REMARK    5  A    between atoms: O_13  and  C_14
REMARK    6  A    between atoms: C_14  and  C_15
REMARK    7  A    between atoms: C_14  and  C_19
REMARK                            x       y       z     vdW  Elec       q    Type
REMARK                         _______ _______ _______ _____ _____    ______ ____
ROOT
ATOM      1  N   UNL     1       1.569   9.027  19.129  0.00  0.00    +0.000 N 
ATOM      2  C   UNL     1       1.788   8.047  20.212  0.00  0.00    +0.000 C 
ATOM      3  C   UNL     1       2.036   6.649  19.614  0.00  0.00    +0.000 C 
ATOM      4  N   UNL     1       3.101   6.677  18.608  0.00  0.00    +0.000 N 
ATOM      5  C   UNL     1       4.212   5.885  18.755  0.00  0.00    +0.000 C 
ATOM      6  O   UNL     1       4.413   5.133  19.698  0.00  0.00    +0.000 OA
ATOM      7  C   UNL     1       2.893   7.655  17.532  0.00  0.00    +0.000 C 
ATOM      8  C   UNL     1       2.630   9.064  18.102  0.00  0.00    +0.000 C 
ENDROOT
BRANCH   1  12
ATOM      9  C   UNL     1      -1.976  11.338  18.971  0.00  0.00    +0.000 A 
ATOM     10  C   UNL     1      -1.194  11.320  20.119  0.00  0.00    +0.000 A 
ATOM     11  C   UNL     1      -0.008  10.571  20.157  0.00  0.00    +0.000 A 
ATOM     12  C   UNL     1       0.421   9.794  19.069  0.00  0.00    +0.000 A 
ATOM     13  C   UNL     1      -0.393   9.831  17.928  0.00  0.00    +0.000 A 
ATOM     14  C   UNL     1      -1.574  10.586  17.874  0.00  0.00    +0.000 A 
BRANCH   9  16
ATOM     15  C   UNL     1      -4.218  11.600  18.282  0.00  0.00    +0.000 C 
ATOM     16  O   UNL     1      -3.119  12.084  19.047  0.00  0.00    +0.000 OA
ENDBRANCH   9  16
ENDBRANCH   1  12
BRANCH   5  17
ATOM     17  O   UNL     1       5.097   6.023  17.734  0.00  0.00    +0.000 OA
BRANCH  17  18
ATOM     18  C   UNL     1       5.981   4.880  17.518  0.00  0.00    +0.000 C 
BRANCH  18  19
ATOM     19  C   UNL     1       5.965   4.393  16.080  0.00  0.00    +0.000 C 
ATOM     20  F   UNL     1       7.183   4.549  15.492  0.00  0.00    +0.000 F 
ATOM     21  F   UNL     1       5.633   3.101  15.905  0.00  0.00    +0.000 F 
ATOM     22  F   UNL     1       5.087   5.116  15.344  0.00  0.00    +0.000 F 
ENDBRANCH  18  19
BRANCH  18  23
ATOM     23  C   UNL     1       7.373   5.214  18.012  0.00  0.00    +0.000 C 
ATOM     24  F   UNL     1       8.259   4.238  17.685  0.00  0.00    +0.000 F 
ATOM     25  F   UNL     1       7.820   6.340  17.397  0.00  0.00    +0.000 F 
ATOM     26  F   UNL     1       7.507   5.419  19.333  0.00  0.00    +0.000 F 
ENDBRANCH  18  23
ENDBRANCH  17  18
ENDBRANCH   5  17
TORSDOF 6
ENDMDL
MODEL 5
REMARK VINA RESULT:      -6.6      1.754      2.312
REMARK  Name = 
REMARK  7 active torsions:
REMARK  status: ('A' for Active; 'I' for Inactive)
REMARK    1  A    between atoms: C_1  and  O_2
REMARK    2  A    between atoms: O_2  and  C_3
REMARK    3  A    between atoms: C_6  and  N_7
REMARK    4  A    between atoms: C_11  and  O_13
REMARK    5  A    between atoms: O_13  and  C_14
REMARK    6  A    between atoms: C_14  and  C_15
REMARK    7  A    between atoms: C_14  and  C_19
REMARK                            x       y       z     vdW  Elec       q    Type
REMARK                         _______ _______ _______ _____ _____    ______ ____
ROOT
ATOM      1  N   UNL     1       1.980   7.581  20.035  0.00  0.00    +0.000 N 
ATOM      2  C   UNL     1       2.096   6.277  20.719  0.00  0.00    +0.000 C 
ATOM      3  C   UNL     1       1.812   5.135  19.724  0.00  0.00    +0.000 C 
ATOM      4  N   UNL     1       2.639   5.256  18.519  0.00  0.00    +0.000 N 
ATOM      5  C   UNL     1       3.478   4.234  18.151  0.00  0.00    +0.000 C 
ATOM      6  O   UNL     1       3.618   3.189  18.771  0.00  0.00    +0.000 OA
ATOM      7  C   UNL     1       2.534   6.554  17.840  0.00  0.00    +0.000 C 
ATOM      8  C   UNL     1       2.800   7.718  18.814  0.00  0.00    +0.000 C 
ENDROOT
BRANCH   1  12
ATOM      9  C   UNL     1      -0.627  10.615  21.427  0.00  0.00    +0.000 A 
ATOM     10  C   UNL     1      -0.168  10.623  20.116  0.00  0.00    +0.000 A 
ATOM     11  C   UNL     1       0.677   9.602  19.654  0.00  0.00    +0.000 A 
ATOM     12  C   UNL     1       1.115   8.560  20.487  0.00  0.00    +0.000 A 
ATOM     13  C   UNL     1       0.637   8.583  21.804  0.00  0.00    +0.000 A 
ATOM     14  C   UNL     1      -0.218   9.592  22.274  0.00  0.00    +0.000 A 
BRANCH   9  16
ATOM     15  C   UNL     1      -1.876  11.667  23.130  0.00  0.00    +0.000 C 
ATOM     16  O   UNL     1      -1.429  11.665  21.779  0.00  0.00    +0.000 OA
ENDBRANCH   9  16
ENDBRANCH   1  12
BRANCH   5  17
ATOM     17  O   UNL     1       4.164   4.501  17.011  0.00  0.00    +0.000 OA
BRANCH  17  18
ATOM     18  C   UNL     1       5.619   4.428  17.128  0.00  0.00    +0.000 C 
BRANCH  18  19
ATOM     19  C   UNL     1       6.310   4.312  15.781  0.00  0.00    +0.000 C 
ATOM     20  F   UNL     1       5.919   5.306  14.939  0.00  0.00    +0.000 F 
ATOM     21  F   UNL     1       7.654   4.357  15.809  0.00  0.00    +0.000 F 
ATOM     22  F   UNL     1       5.980   3.144  15.178  0.00  0.00    +0.000 F 
ENDBRANCH  18  19
BRANCH  18  23
ATOM     23  C   UNL     1       6.121   5.597  17.949  0.00  0.00    +0.000 C 
ATOM     24  F   UNL     1       7.478   5.652  17.950  0.00  0.00    +0.000 F 
ATOM     25  F   UNL     1       5.705   6.763  17.388  0.00  0.00    +0.000 F 
ATOM     26  F   UNL     1       5.741   5.634  19.237  0.00  0.00    +0.000 F 
ENDBRANCH  18  23
ENDBRANCH  17  18
ENDBRANCH   5  17
TORSDOF 6
ENDMDL
MODEL 6
REMARK VINA RESULT:      -6.6      0.665      1.260
REMARK  Name = 
REMARK  7 active torsions:
REMARK  status: ('A' for Active; 'I' for Inactive)
REMARK    1  A    between atoms: C_1  and  O_2
REMARK    2  A    between atoms: O_2  and  C_3
REMARK    3  A    between atoms: C_6  and  N_7
REMARK    4  A    between atoms: C_11  and  O_13
REMARK    5  A    between atoms: O_13  and  C_14
REMARK    6  A    between atoms: C_14  and  C_15
REMARK    7  A    between atoms: C_14  and  C_19
REMARK                            x       y       z     vdW  Elec       q    Type
REMARK                         _______ _______ _______ _____ _____    ______ ____
ROOT
ATOM      1  N   UNL     1       1.241   9.483  19.295  0.00  0.00    +0.000 N 
ATOM      2  C   UNL     1       1.599   8.557  20.389  0.00  0.00    +0.000 C 
ATOM      3  C   UNL     1       1.753   7.127  19.837  0.00  0.00    +0.000 C 
ATOM      4  N   UNL     1       2.670   7.088  18.695  0.00  0.00    +0.000 N 
ATOM      5  C   UNL     1       3.786   6.289  18.730  0.00  0.00    +0.000 C 
ATOM      6  O   UNL     1       4.109   5.584  19.676  0.00  0.00    +0.000 OA
ATOM      7  C   UNL     1       2.324   8.012  17.607  0.00  0.00    +0.000 C 
ATOM      8  C   UNL     1       2.150   9.452  18.131  0.00  0.00    +0.000 C 
ENDROOT
BRANCH   1  12
ATOM      9  C   UNL     1      -2.277  11.832  19.499  0.00  0.00    +0.000 A 
ATOM     10  C   UNL     1      -1.362  11.835  20.545  0.00  0.00    +0.000 A 
ATOM     11  C   UNL     1      -0.187  11.073  20.461  0.00  0.00    +0.000 A 
ATOM     12  C   UNL     1       0.101  10.263  19.352  0.00  0.00    +0.000 A 
ATOM     13  C   UNL     1      -0.844  10.279  18.316  0.00  0.00    +0.000 A 
ATOM     14  C   UNL     1      -2.017  11.046  18.384  0.00  0.00    +0.000 A 
BRANCH   9  16
ATOM     15  C   UNL     1      -4.597  12.066  19.140  0.00  0.00    +0.000 C 
ATOM     16  O   UNL     1      -3.396  12.594  19.691  0.00  0.00    +0.000 OA
ENDBRANCH   9  16
ENDBRANCH   1  12
BRANCH   5  17
ATOM     17  O   UNL     1       4.522   6.362  17.592  0.00  0.00    +0.000 OA
BRANCH  17  18
ATOM     18  C   UNL     1       5.485   5.278  17.404  0.00  0.00    +0.000 C 
BRANCH  18  19
ATOM     19  C   UNL     1       5.137   4.386  16.225  0.00  0.00    +0.000 C 
ATOM     20  F   UNL     1       3.955   3.743  16.423  0.00  0.00    +0.000 F 
ATOM     21  F   UNL     1       5.025   5.008  15.037  0.00  0.00    +0.000 F 
ATOM     22  F   UNL     1       6.077   3.424  16.065  0.00  0.00    +0.000 F 
ENDBRANCH  18  19
BRANCH  18  23
ATOM     23  C   UNL     1       6.884   5.850  17.317  0.00  0.00    +0.000 C 
ATOM     24  F   UNL     1       7.768   5.100  18.025  0.00  0.00    +0.000 F 
ATOM     25  F   UNL     1       7.316   5.813  16.029  0.00  0.00    +0.000 F 
ATOM     26  F   UNL     1       7.041   7.116  17.738  0.00  0.00    +0.000 F 
ENDBRANCH  18  23
ENDBRANCH  17  18
ENDBRANCH   5  17
TORSDOF 6
ENDMDL
MODEL 7
REMARK VINA RESULT:      -6.6      2.819      4.182
REMARK  Name = 
REMARK  7 active torsions:
REMARK  status: ('A' for Active; 'I' for Inactive)
REMARK    1  A    between atoms: C_1  and  O_2
REMARK    2  A    between atoms: O_2  and  C_3
REMARK    3  A    between atoms: C_6  and  N_7
REMARK    4  A    between atoms: C_11  and  O_13
REMARK    5  A    between atoms: O_13  and  C_14
REMARK    6  A    between atoms: C_14  and  C_15
REMARK    7  A    between atoms: C_14  and  C_19
REMARK                            x       y       z     vdW  Elec       q    Type
REMARK                         _______ _______ _______ _____ _____    ______ ____
ROOT
ATOM      1  N   UNL     1      -0.276   9.834  20.518  0.00  0.00    +0.000 N 
ATOM      2  C   UNL     1       0.089   9.822  19.086  0.00  0.00    +0.000 C 
ATOM      3  C   UNL     1       1.574   9.447  18.925  0.00  0.00    +0.000 C 
ATOM      4  N   UNL     1       1.894   8.205  19.635  0.00  0.00    +0.000 N 
ATOM      5  C   UNL     1       2.421   7.136  18.955  0.00  0.00    +0.000 C 
ATOM      6  O   UNL     1       2.648   7.117  17.753  0.00  0.00    +0.000 OA
ATOM      7  C   UNL     1       1.526   8.207  21.057  0.00  0.00    +0.000 C 
ATOM      8  C   UNL     1       0.046   8.592  21.251  0.00  0.00    +0.000 C 
ENDROOT
BRANCH   1  12
ATOM      9  C   UNL     1      -1.981  13.242  22.365  0.00  0.00    +0.000 A 
ATOM     10  C   UNL     1      -1.392  12.242  23.130  0.00  0.00    +0.000 A 
ATOM     11  C   UNL     1      -0.808  11.127  22.511  0.00  0.00    +0.000 A 
ATOM     12  C   UNL     1      -0.817  10.955  21.117  0.00  0.00    +0.000 A 
ATOM     13  C   UNL     1      -1.422  11.980  20.375  0.00  0.00    +0.000 A 
ATOM     14  C   UNL     1      -1.998  13.105  20.983  0.00  0.00    +0.000 A 
BRANCH   9  16
ATOM     15  C   UNL     1      -3.377  13.894  24.152  0.00  0.00    +0.000 C 
ATOM     16  O   UNL     1      -2.537  14.274  23.068  0.00  0.00    +0.000 OA
ENDBRANCH   9  16
ENDBRANCH   1  12
BRANCH   5  17
ATOM     17  O   UNL     1       2.667   6.069  19.758  0.00  0.00    +0.000 OA
BRANCH  17  18
ATOM     18  C   UNL     1       2.243   4.777  19.223  0.00  0.00    +0.000 C 
BRANCH  18  19
ATOM     19  C   UNL     1       3.414   3.884  18.853  0.00  0.00    +0.000 C 
ATOM     20  F   UNL     1       4.415   3.976  19.770  0.00  0.00    +0.000 F 
ATOM     21  F   UNL     1       3.135   2.573  18.741  0.00  0.00    +0.000 F 
ATOM     22  F   UNL     1       3.943   4.265  17.665  0.00  0.00    +0.000 F 
ENDBRANCH  18  19
BRANCH  18  23
ATOM     23  C   UNL     1       1.283   4.118  20.192  0.00  0.00    +0.000 C 
ATOM     24  F   UNL     1       1.946   3.536  21.224  0.00  0.00    +0.000 F 
ATOM     25  F   UNL     1       0.479   5.060  20.753  0.00  0.00    +0.000 F 
ATOM     26  F   UNL     1       0.472   3.175  19.684  0.00  0.00    +0.000 F 
ENDBRANCH  18  23
ENDBRANCH  17  18
ENDBRANCH   5  17
TORSDOF 6
ENDMDL
MODEL 8
REMARK VINA RESULT:      -6.6      1.721      2.258
REMARK  Name = 
REMARK  7 active torsions:
REMARK  status: ('A' for Active; 'I' for Inactive)
REMARK    1  A    between atoms: C_1  and  O_2
REMARK    2  A    between atoms: O_2  and  C_3
REMARK    3  A    between atoms: C_6  and  N_7
REMARK    4  A    between atoms: C_11  and  O_13
REMARK    5  A    between atoms: O_13  and  C_14
REMARK    6  A    between atoms: C_14  and  C_15
REMARK    7  A    between atoms: C_14  and  C_19
REMARK                            x       y       z     vdW  Elec       q    Type
REMARK                         _______ _______ _______ _____ _____    ______ ____
ROOT
ATOM      1  N   UNL     1       2.015   7.699  19.897  0.00  0.00    +0.000 N 
ATOM      2  C   UNL     1       2.215   6.405  20.581  0.00  0.00    +0.000 C 
ATOM      3  C   UNL     1       1.941   5.246  19.604  0.00  0.00    +0.000 C 
ATOM      4  N   UNL     1       2.712   5.395  18.366  0.00  0.00    +0.000 N 
ATOM      5  C   UNL     1       3.579   4.408  17.968  0.00  0.00    +0.000 C 
ATOM      6  O   UNL     1       3.788   3.373  18.587  0.00  0.00    +0.000 OA
ATOM      7  C   UNL     1       2.524   6.683  17.686  0.00  0.00    +0.000 C 
ATOM      8  C   UNL     1       2.780   7.863  18.644  0.00  0.00    +0.000 C 
ENDROOT
BRANCH   1  12
ATOM      9  C   UNL     1      -0.661  10.626  21.383  0.00  0.00    +0.000 A 
ATOM     10  C   UNL     1      -0.221  10.672  20.066  0.00  0.00    +0.000 A 
ATOM     11  C   UNL     1       0.647   9.687  19.573  0.00  0.00    +0.000 A 
ATOM     12  C   UNL     1       1.128   8.643  20.379  0.00  0.00    +0.000 A 
ATOM     13  C   UNL     1       0.669   8.627  21.704  0.00  0.00    +0.000 A 
ATOM     14  C   UNL     1      -0.208   9.601  22.204  0.00  0.00    +0.000 A 
BRANCH   9  16
ATOM     15  C   UNL     1      -1.711  11.759  23.167  0.00  0.00    +0.000 C 
ATOM     16  O   UNL     1      -1.488  11.645  21.766  0.00  0.00    +0.000 OA
ENDBRANCH   9  16
ENDBRANCH   1  12
BRANCH   5  17
ATOM     17  O   UNL     1       4.206   4.696  16.800  0.00  0.00    +0.000 OA
BRANCH  17  18
ATOM     18  C   UNL     1       5.666   4.665  16.854  0.00  0.00    +0.000 C 
BRANCH  18  19
ATOM     19  C   UNL     1       6.294   4.355  15.506  0.00  0.00    +0.000 C 
ATOM     20  F   UNL     1       7.653   4.355  15.583  0.00  0.00    +0.000 F 
ATOM     21  F   UNL     1       5.954   3.173  14.962  0.00  0.00    +0.000 F 
ATOM     22  F   UNL     1       5.959   5.304  14.599  0.00  0.00    +0.000 F 
ENDBRANCH  18  19
BRANCH  18  23
ATOM     23  C   UNL     1       6.180   5.954  17.461  0.00  0.00    +0.000 C 
ATOM     24  F   UNL     1       5.573   7.035  16.907  0.00  0.00    +0.000 F 
ATOM     25  F   UNL     1       5.868   5.994  18.784  0.00  0.00    +0.000 F 
ATOM     26  F   UNL     1       7.501   6.175  17.371  0.00  0.00    +0.000 F 
ENDBRANCH  18  23
ENDBRANCH  17  18
ENDBRANCH   5  17
TORSDOF 6
ENDMDL
MODEL 9
REMARK VINA RESULT:      -6.6      3.153      4.416
REMARK  Name = 
REMARK  7 active torsions:
REMARK  status: ('A' for Active; 'I' for Inactive)
REMARK    1  A    between atoms: C_1  and  O_2
REMARK    2  A    between atoms: O_2  and  C_3
REMARK    3  A    between atoms: C_6  and  N_7
REMARK    4  A    between atoms: C_11  and  O_13
REMARK    5  A    between atoms: O_13  and  C_14
REMARK    6  A    between atoms: C_14  and  C_15
REMARK    7  A    between atoms: C_14  and  C_19
REMARK                            x       y       z     vdW  Elec       q    Type
REMARK                         _______ _______ _______ _____ _____    ______ ____
ROOT
ATOM      1  N   UNL     1       1.100   9.546  19.269  0.00  0.00    +0.000 N 
ATOM      2  C   UNL     1       1.481   9.081  17.920  0.00  0.00    +0.000 C 
ATOM      3  C   UNL     1       2.752   8.214  18.003  0.00  0.00    +0.000 C 
ATOM      4  N   UNL     1       2.605   7.139  18.988  0.00  0.00    +0.000 N 
ATOM      5  C   UNL     1       2.754   5.828  18.609  0.00  0.00    +0.000 C 
ATOM      6  O   UNL     1       2.997   5.455  17.470  0.00  0.00    +0.000 OA
ATOM      7  C   UNL     1       2.217   7.594  20.329  0.00  0.00    +0.000 C 
ATOM      8  C   UNL     1       0.954   8.476  20.277  0.00  0.00    +0.000 C 
ENDROOT
BRANCH   1  12
ATOM      9  C   UNL     1       0.716  13.665  20.176  0.00  0.00    +0.000 A 
ATOM     10  C   UNL     1       1.425  13.250  19.056  0.00  0.00    +0.000 A 
ATOM     11  C   UNL     1       1.529  11.885  18.748  0.00  0.00    +0.000 A 
ATOM     12  C   UNL     1       0.958  10.890  19.557  0.00  0.00    +0.000 A 
ATOM     13  C   UNL     1       0.252  11.342  20.681  0.00  0.00    +0.000 A 
ATOM     14  C   UNL     1       0.132  12.705  20.993  0.00  0.00    +0.000 A 
BRANCH   9  16
ATOM     15  C   UNL     1       1.623  15.494  21.359  0.00  0.00    +0.000 C 
ATOM     16  O   UNL     1       0.693  15.015  20.395  0.00  0.00    +0.000 OA
ENDBRANCH   9  16
ENDBRANCH   1  12
BRANCH   5  17
ATOM     17  O   UNL     1       2.595   4.960  19.640  0.00  0.00    +0.000 OA
BRANCH  17  18
ATOM     18  C   UNL     1       2.286   3.585  19.253  0.00  0.00    +0.000 C 
BRANCH  18  19
ATOM     19  C   UNL     1       3.448   2.636  19.487  0.00  0.00    +0.000 C 
ATOM     20  F   UNL     1       4.572   3.066  18.853  0.00  0.00    +0.000 F 
ATOM     21  F   UNL     1       3.798   2.449  20.773  0.00  0.00    +0.000 F 
ATOM     22  F   UNL     1       3.167   1.409  18.986  0.00  0.00    +0.000 F 
ENDBRANCH  18  19
BRANCH  18  23
ATOM     23  C   UNL     1       1.013   3.138  19.941  0.00  0.00    +0.000 C 
ATOM     24  F   UNL     1       0.261   4.202  20.325  0.00  0.00    +0.000 F 
ATOM     25  F   UNL     1       0.242   2.437  19.068  0.00  0.00    +0.000 F 
ATOM     26  F   UNL     1       1.159   2.365  21.030  0.00  0.00    +0.000 F 
ENDBRANCH  18  23
ENDBRANCH  17  18
ENDBRANCH   5  17
TORSDOF 6
ENDMDL
