MODEL 1
REMARK VINA RESULT:      -6.8      0.000      0.000
REMARK  Name = 
REMARK  8 active torsions:
REMARK  status: ('A' for Active; 'I' for Inactive)
REMARK    1  A    between atoms: C_1  and  C_2
REMARK    2  A    between atoms: C_2  and  C_3
REMARK    3  A    between atoms: C_4  and  C_5
REMARK    4  A    between atoms: C_5  and  O_7
REMARK    5  A    between atoms: C_8  and  C_9
REMARK    6  A    between atoms: C_9  and  C_10
REMARK    7  A    between atoms: C_9  and  O_11
REMARK    8  A    between atoms: O_11  and  C_12
REMARK                            x       y       z     vdW  Elec       q    Type
REMARK                         _______ _______ _______ _____ _____    ______ ____
ROOT
ATOM      1  C   UNL     1       6.674   5.306  17.879  0.00  0.00    +0.000 C 
ATOM      2  C   UNL     1       7.599   6.525  17.785  0.00  0.00    +0.000 C 
ENDROOT
BRANCH   1   5
ATOM      3  C   UNL     1       5.293   5.923  15.181  0.00  0.00    +0.000 C 
ATOM      4  C   UNL     1       6.184   4.737  15.435  0.00  0.00    +0.000 C 
ATOM      5  C   UNL     1       6.823   4.508  16.599  0.00  0.00    +0.000 C 
BRANCH   4   6
ATOM      6  C   UNL     1       6.244   3.784  14.334  0.00  0.00    +0.000 C 
ATOM      7  C   UNL     1       6.245   4.117  13.038  0.00  0.00    +0.000 C 
BRANCH   7   8
ATOM      8  C   UNL     1       6.293   3.056  12.014  0.00  0.00    +0.000 C 
ATOM      9  O   UNL     1       7.317   2.610  11.521  0.00  0.00    +0.000 OA
BRANCH   8  10
ATOM     10  O   UNL     1       5.063   2.628  11.673  0.00  0.00    +0.000 OA
ATOM     11  H   UNL     1       4.842   1.722  11.954  0.00  0.00    +0.000 HD
ENDBRANCH   8  10
ENDBRANCH   7   8
ENDBRANCH   4   6
ENDBRANCH   1   5
BRANCH   1  12
ATOM     12  O   UNL     1       5.305   5.717  17.977  0.00  0.00    +0.000 OA
BRANCH  12  13
ATOM     13  C   UNL     1       4.458   4.979  18.766  0.00  0.00    +0.000 A 
ATOM     14  C   UNL     1       4.769   3.716  19.282  0.00  0.00    +0.000 A 
ATOM     15  C   UNL     1       3.867   3.032  20.101  0.00  0.00    +0.000 A 
ATOM     16  C   UNL     1       2.640   3.605  20.411  0.00  0.00    +0.000 A 
ATOM     17 BR   UNL     1       1.418   2.662  21.502  0.00  0.00    +0.000 Br
ATOM     18  C   UNL     1       2.310   4.866  19.922  0.00  0.00    +0.000 A 
ATOM     19  C   UNL     1       3.222   5.552  19.108  0.00  0.00    +0.000 A 
ATOM     20 BR   UNL     1       2.713   7.269  18.473  0.00  0.00    +0.000 Br
ENDBRANCH  12  13
ENDBRANCH   1  12
TORSDOF 6
ENDMDL
MODEL 2
REMARK VINA RESULT:      -6.6      3.176      5.146
REMARK  Name = 
REMARK  8 active torsions:
REMARK  status: ('A' for Active; 'I' for Inactive)
REMARK    1  A    between atoms: C_1  and  C_2
REMARK    2  A    between atoms: C_2  and  C_3
REMARK    3  A    between atoms: C_4  and  C_5
REMARK    4  A    between atoms: C_5  and  O_7
REMARK    5  A    between atoms: C_8  and  C_9
REMARK    6  A    between atoms: C_9  and  C_10
REMARK    7  A    between atoms: C_9  and  O_11
REMARK    8  A    between atoms: O_11  and  C_12
REMARK                            x       y       z     vdW  Elec       q    Type
REMARK                         _______ _______ _______ _____ _____    ______ ____
ROOT
ATOM      1  C   UNL     1       3.137   2.895  17.412  0.00  0.00    +0.000 C 
ATOM      2  C   UNL     1       3.429   1.531  18.049  0.00  0.00    +0.000 C 
ENDROOT
BRANCH   1   5
ATOM      3  C   UNL     1       5.444   3.971  15.656  0.00  0.00    +0.000 C 
ATOM      4  C   UNL     1       5.258   4.290  17.115  0.00  0.00    +0.000 C 
ATOM      5  C   UNL     1       4.219   3.859  17.856  0.00  0.00    +0.000 C 
BRANCH   4   6
ATOM      6  C   UNL     1       6.351   5.050  17.708  0.00  0.00    +0.000 C 
ATOM      7  C   UNL     1       6.669   5.038  19.009  0.00  0.00    +0.000 C 
BRANCH   7   8
ATOM      8  C   UNL     1       7.791   5.865  19.491  0.00  0.00    +0.000 C 
ATOM      9  O   UNL     1       8.265   6.815  18.888  0.00  0.00    +0.000 OA
BRANCH   8  10
ATOM     10  O   UNL     1       8.247   5.450  20.688  0.00  0.00    +0.000 OA
ATOM     11  H   UNL     1       8.274   4.485  20.814  0.00  0.00    +0.000 HD
ENDBRANCH   8  10
ENDBRANCH   7   8
ENDBRANCH   4   6
ENDBRANCH   1   5
BRANCH   1  12
ATOM     12  O   UNL     1       1.882   3.410  17.872  0.00  0.00    +0.000 OA
BRANCH  12  13
ATOM     13  C   UNL     1       1.879   4.589  18.574  0.00  0.00    +0.000 A 
ATOM     14  C   UNL     1       2.064   5.849  17.992  0.00  0.00    +0.000 A 
ATOM     15  C   UNL     1       2.024   7.012  18.766  0.00  0.00    +0.000 A 
ATOM     16  C   UNL     1       1.801   6.926  20.135  0.00  0.00    +0.000 A 
ATOM     17 BR   UNL     1       1.771   8.503  21.176  0.00  0.00    +0.000 Br
ATOM     18  C   UNL     1       1.601   5.687  20.738  0.00  0.00    +0.000 A 
ATOM     19  C   UNL     1       1.633   4.525  19.956  0.00  0.00    +0.000 A 
ATOM     20 BR   UNL     1       1.352   2.865  20.838  0.00  0.00    +0.000 Br
ENDBRANCH  12  13
ENDBRANCH   1  12
TORSDOF 6
ENDMDL
MODEL 3
REMARK VINA RESULT:      -6.6      1.102      1.260
REMARK  Name = 
REMARK  8 active torsions:
REMARK  status: ('A' for Active; 'I' for Inactive)
REMARK    1  A    between atoms: C_1  and  C_2
REMARK    2  A    between atoms: C_2  and  C_3
REMARK    3  A    between atoms: C_4  and  C_5
REMARK    4  A    between atoms: C_5  and  O_7
REMARK    5  A    between atoms: C_8  and  C_9
REMARK    6  A    between atoms: C_9  and  C_10
REMARK    7  A    between atoms: C_9  and  O_11
REMARK    8  A    between atoms: O_11  and  C_12
REMARK                            x       y       z     vdW  Elec       q    Type
REMARK                         _______ _______ _______ _____ _____    ______ ____
ROOT
ATOM      1  C   UNL     1       6.891   5.184  18.517  0.00  0.00    +0.000 C 
ATOM      2  C   UNL     1       7.932   6.243  18.897  0.00  0.00    +0.000 C 
ENDROOT
BRANCH   1   5
ATOM      3  C   UNL     1       5.797   6.407  15.896  0.00  0.00    +0.000 C 
ATOM      4  C   UNL     1       6.689   5.198  15.969  0.00  0.00    +0.000 C 
ATOM      5  C   UNL     1       7.203   4.706  17.113  0.00  0.00    +0.000 C 
BRANCH   4   6
ATOM      6  C   UNL     1       6.897   4.527  14.692  0.00  0.00    +0.000 C 
ATOM      7  C   UNL     1       5.936   4.289  13.791  0.00  0.00    +0.000 C 
BRANCH   7   8
ATOM      8  C   UNL     1       6.270   3.585  12.538  0.00  0.00    +0.000 C 
ATOM      9  O   UNL     1       5.722   2.568  12.144  0.00  0.00    +0.000 OA
BRANCH   8  10
ATOM     10  O   UNL     1       7.266   4.195  11.867  0.00  0.00    +0.000 OA
ATOM     11  H   UNL     1       7.554   3.750  11.051  0.00  0.00    +0.000 HD
ENDBRANCH   8  10
ENDBRANCH   7   8
ENDBRANCH   4   6
ENDBRANCH   1   5
BRANCH   1  12
ATOM     12  O   UNL     1       5.575   5.750  18.500  0.00  0.00    +0.000 OA
BRANCH  12  13
ATOM     13  C   UNL     1       4.500   4.906  18.631  0.00  0.00    +0.000 A 
ATOM     14  C   UNL     1       4.605   3.549  18.960  0.00  0.00    +0.000 A 
ATOM     15  C   UNL     1       3.465   2.754  19.102  0.00  0.00    +0.000 A 
ATOM     16  C   UNL     1       2.205   3.308  18.913  0.00  0.00    +0.000 A 
ATOM     17 BR   UNL     1       0.671   2.218  19.086  0.00  0.00    +0.000 Br
ATOM     18  C   UNL     1       2.071   4.658  18.598  0.00  0.00    +0.000 A 
ATOM     19  C   UNL     1       3.217   5.453  18.466  0.00  0.00    +0.000 A 
ATOM     20 BR   UNL     1       2.968   7.287  18.035  0.00  0.00    +0.000 Br
ENDBRANCH  12  13
ENDBRANCH   1  12
TORSDOF 6
ENDMDL
MODEL 4
REMARK VINA RESULT:      -6.6      2.146      3.692
REMARK  Name = 
REMARK  8 active torsions:
REMARK  status: ('A' for Active; 'I' for Inactive)
REMARK    1  A    between atoms: C_1  and  C_2
REMARK    2  A    between atoms: C_2  and  C_3
REMARK    3  A    between atoms: C_4  and  C_5
REMARK    4  A    between atoms: C_5  and  O_7
REMARK    5  A    between atoms: C_8  and  C_9
REMARK    6  A    between atoms: C_9  and  C_10
REMARK    7  A    between atoms: C_9  and  O_11
REMARK    8  A    between atoms: O_11  and  C_12
REMARK                            x       y       z     vdW  Elec       q    Type
REMARK                         _______ _______ _______ _____ _____    ______ ____
ROOT
ATOM      1  C   UNL     1       3.750   4.051  17.393  0.00  0.00    +0.000 C 
ATOM      2  C   UNL     1       3.733   2.618  17.935  0.00  0.00    +0.000 C 
ENDROOT
BRANCH   1   5
ATOM      3  C   UNL     1       6.772   4.571  17.800  0.00  0.00    +0.000 C 
ATOM      4  C   UNL     1       6.105   4.404  16.462  0.00  0.00    +0.000 C 
ATOM      5  C   UNL     1       4.797   4.124  16.299  0.00  0.00    +0.000 C 
BRANCH   4   6
ATOM      6  C   UNL     1       6.976   4.653  15.320  0.00  0.00    +0.000 C 
ATOM      7  C   UNL     1       6.562   4.740  14.050  0.00  0.00    +0.000 C 
BRANCH   7   8
ATOM      8  C   UNL     1       7.546   4.980  12.978  0.00  0.00    +0.000 C 
ATOM      9  O   UNL     1       7.495   4.486  11.863  0.00  0.00    +0.000 OA
BRANCH   8  10
ATOM     10  O   UNL     1       8.526   5.816  13.371  0.00  0.00    +0.000 OA
ATOM     11  H   UNL     1       8.914   6.367  12.668  0.00  0.00    +0.000 HD
ENDBRANCH   8  10
ENDBRANCH   7   8
ENDBRANCH   4   6
ENDBRANCH   1   5
BRANCH   1  12
ATOM     12  O   UNL     1       4.132   4.976  18.420  0.00  0.00    +0.000 OA
BRANCH  12  13
ATOM     13  C   UNL     1       3.429   6.149  18.534  0.00  0.00    +0.000 A 
ATOM     14  C   UNL     1       3.543   7.221  17.640  0.00  0.00    +0.000 A 
ATOM     15  C   UNL     1       2.776   8.378  17.804  0.00  0.00    +0.000 A 
ATOM     16  C   UNL     1       1.888   8.477  18.868  0.00  0.00    +0.000 A 
ATOM     17 BR   UNL     1       0.874  10.055  19.092  0.00  0.00    +0.000 Br
ATOM     18  C   UNL     1       1.747   7.422  19.765  0.00  0.00    +0.000 A 
ATOM     19  C   UNL     1       2.511   6.260  19.591  0.00  0.00    +0.000 A 
ATOM     20 BR   UNL     1       2.270   4.855  20.848  0.00  0.00    +0.000 Br
ENDBRANCH  12  13
ENDBRANCH   1  12
TORSDOF 6
ENDMDL
MODEL 5
REMARK VINA RESULT:      -6.6      1.320      1.682
REMARK  Name = 
REMARK  8 active torsions:
REMARK  status: ('A' for Active; 'I' for Inactive)
REMARK    1  A    between atoms: C_1  and  C_2
REMARK    2  A    between atoms: C_2  and  C_3
REMARK    3  A    between atoms: C_4  and  C_5
REMARK    4  A    between atoms: C_5  and  O_7
REMARK    5  A    between atoms: C_8  and  C_9
REMARK    6  A    between atoms: C_9  and  C_10
REMARK    7  A    between atoms: C_9  and  O_11
REMARK    8  A    between atoms: O_11  and  C_12
REMARK                            x       y       z     vdW  Elec       q    Type
REMARK                         _______ _______ _______ _____ _____    ______ ____
ROOT
ATOM      1  C   UNL     1       4.510   5.853  17.388  0.00  0.00    +0.000 C 
ATOM      2  C   UNL     1       4.786   7.343  17.152  0.00  0.00    +0.000 C 
ENDROOT
BRANCH   1   5
ATOM      3  C   UNL     1       7.307   4.588  17.011  0.00  0.00    +0.000 C 
ATOM      4  C   UNL     1       6.219   4.585  15.971  0.00  0.00    +0.000 C 
ATOM      5  C   UNL     1       4.986   5.092  16.167  0.00  0.00    +0.000 C 
BRANCH   4   6
ATOM      6  C   UNL     1       6.627   4.056  14.676  0.00  0.00    +0.000 C 
ATOM      7  C   UNL     1       5.847   4.020  13.588  0.00  0.00    +0.000 C 
BRANCH   7   8
ATOM      8  C   UNL     1       6.372   3.444  12.336  0.00  0.00    +0.000 C 
ATOM      9  O   UNL     1       7.212   3.973  11.625  0.00  0.00    +0.000 OA
BRANCH   8  10
ATOM     10  O   UNL     1       5.813   2.252  12.055  0.00  0.00    +0.000 OA
ATOM     11  H   UNL     1       5.201   2.244  11.298  0.00  0.00    +0.000 HD
ENDBRANCH   8  10
ENDBRANCH   7   8
ENDBRANCH   4   6
ENDBRANCH   1   5
BRANCH   1  12
ATOM     12  O   UNL     1       3.104   5.614  17.527  0.00  0.00    +0.000 OA
BRANCH  12  13
ATOM     13  C   UNL     1       2.677   4.817  18.559  0.00  0.00    +0.000 A 
ATOM     14  C   UNL     1       2.730   3.418  18.541  0.00  0.00    +0.000 A 
ATOM     15  C   UNL     1       2.301   2.668  19.640  0.00  0.00    +0.000 A 
ATOM     16  C   UNL     1       1.810   3.313  20.769  0.00  0.00    +0.000 A 
ATOM     17 BR   UNL     1       1.211   2.288  22.240  0.00  0.00    +0.000 Br
ATOM     18  C   UNL     1       1.757   4.703  20.818  0.00  0.00    +0.000 A 
ATOM     19  C   UNL     1       2.198   5.450  19.717  0.00  0.00    +0.000 A 
ATOM     20 BR   UNL     1       2.102   7.343  19.846  0.00  0.00    +0.000 Br
ENDBRANCH  12  13
ENDBRANCH   1  12
TORSDOF 6
ENDMDL
MODEL 6
REMARK VINA RESULT:      -6.6      0.856      1.043
REMARK  Name = 
REMARK  8 active torsions:
REMARK  status: ('A' for Active; 'I' for Inactive)
REMARK    1  A    between atoms: C_1  and  C_2
REMARK    2  A    between atoms: C_2  and  C_3
REMARK    3  A    between atoms: C_4  and  C_5
REMARK    4  A    between atoms: C_5  and  O_7
REMARK    5  A    between atoms: C_8  and  C_9
REMARK    6  A    between atoms: C_9  and  C_10
REMARK    7  A    between atoms: C_9  and  O_11
REMARK    8  A    between atoms: O_11  and  C_12
REMARK                            x       y       z     vdW  Elec       q    Type
REMARK                         _______ _______ _______ _____ _____    ______ ____
ROOT
ATOM      1  C   UNL     1       6.502   6.226  17.480  0.00  0.00    +0.000 C 
ATOM      2  C   UNL     1       7.530   7.355  17.613  0.00  0.00    +0.000 C 
ENDROOT
BRANCH   1   5
ATOM      3  C   UNL     1       5.703   3.428  16.430  0.00  0.00    +0.000 C 
ATOM      4  C   UNL     1       6.174   4.565  15.564  0.00  0.00    +0.000 C 
ATOM      5  C   UNL     1       6.468   5.796  16.026  0.00  0.00    +0.000 C 
BRANCH   4   6
ATOM      6  C   UNL     1       6.375   4.211  14.164  0.00  0.00    +0.000 C 
ATOM      7  C   UNL     1       5.496   3.530  13.418  0.00  0.00    +0.000 C 
BRANCH   7   8
ATOM      8  C   UNL     1       5.823   3.218  12.013  0.00  0.00    +0.000 C 
ATOM      9  O   UNL     1       6.956   3.114  11.569  0.00  0.00    +0.000 OA
BRANCH   8  10
ATOM     10  O   UNL     1       4.718   3.062  11.260  0.00  0.00    +0.000 OA
ATOM     11  H   UNL     1       4.048   2.454  11.621  0.00  0.00    +0.000 HD
ENDBRANCH   8  10
ENDBRANCH   7   8
ENDBRANCH   4   6
ENDBRANCH   1   5
BRANCH   1  12
ATOM     12  O   UNL     1       5.192   6.690  17.826  0.00  0.00    +0.000 OA
BRANCH  12  13
ATOM     13  C   UNL     1       4.386   5.870  18.575  0.00  0.00    +0.000 A 
ATOM     14  C   UNL     1       4.804   4.655  19.130  0.00  0.00    +0.000 A 
ATOM     15  C   UNL     1       3.935   3.882  19.905  0.00  0.00    +0.000 A 
ATOM     16  C   UNL     1       2.634   4.316  20.130  0.00  0.00    +0.000 A 
ATOM     17 BR   UNL     1       1.461   3.251  21.161  0.00  0.00    +0.000 Br
ATOM     18  C   UNL     1       2.196   5.526  19.600  0.00  0.00    +0.000 A 
ATOM     19  C   UNL     1       3.074   6.302  18.831  0.00  0.00    +0.000 A 
ATOM     20 BR   UNL     1       2.416   7.944  18.137  0.00  0.00    +0.000 Br
ENDBRANCH  12  13
ENDBRANCH   1  12
TORSDOF 6
ENDMDL
MODEL 7
REMARK VINA RESULT:      -6.5      3.771      5.529
REMARK  Name = 
REMARK  8 active torsions:
REMARK  status: ('A' for Active; 'I' for Inactive)
REMARK    1  A    between atoms: C_1  and  C_2
REMARK    2  A    between atoms: C_2  and  C_3
REMARK    3  A    between atoms: C_4  and  C_5
REMARK    4  A    between atoms: C_5  and  O_7
REMARK    5  A    between atoms: C_8  and  C_9
REMARK    6  A    between atoms: C_9  and  C_10
REMARK    7  A    between atoms: C_9  and  O_11
REMARK    8  A    between atoms: O_11  and  C_12
REMARK                            x       y       z     vdW  Elec       q    Type
REMARK                         _______ _______ _______ _____ _____    ______ ____
ROOT
ATOM      1  C   UNL     1       2.345   6.373  19.398  0.00  0.00    +0.000 C 
ATOM      2  C   UNL     1       2.261   5.278  20.467  0.00  0.00    +0.000 C 
ENDROOT
BRANCH   1   5
ATOM      3  C   UNL     1       2.985   4.161  17.334  0.00  0.00    +0.000 C 
ATOM      4  C   UNL     1       3.961   5.208  17.796  0.00  0.00    +0.000 C 
ATOM      5  C   UNL     1       3.655   6.200  18.655  0.00  0.00    +0.000 C 
BRANCH   4   6
ATOM      6  C   UNL     1       5.320   5.023  17.302  0.00  0.00    +0.000 C 
ATOM      7  C   UNL     1       5.705   5.234  16.036  0.00  0.00    +0.000 C 
BRANCH   7   8
ATOM      8  C   UNL     1       7.109   4.995  15.654  0.00  0.00    +0.000 C 
ATOM      9  O   UNL     1       7.600   5.303  14.579  0.00  0.00    +0.000 OA
BRANCH   8  10
ATOM     10  O   UNL     1       7.803   4.388  16.635  0.00  0.00    +0.000 OA
ATOM     11  H   UNL     1       7.378   3.604  17.025  0.00  0.00    +0.000 HD
ENDBRANCH   8  10
ENDBRANCH   7   8
ENDBRANCH   4   6
ENDBRANCH   1   5
BRANCH   1  12
ATOM     12  O   UNL     1       2.359   7.672  20.003  0.00  0.00    +0.000 OA
BRANCH  12  13
ATOM     13  C   UNL     1       1.485   8.620  19.532  0.00  0.00    +0.000 A 
ATOM     14  C   UNL     1       1.260   8.872  18.174  0.00  0.00    +0.000 A 
ATOM     15  C   UNL     1       0.336   9.837  17.765  0.00  0.00    +0.000 A 
ATOM     16  C   UNL     1      -0.373  10.564  18.714  0.00  0.00    +0.000 A 
ATOM     17 BR   UNL     1      -1.604  11.882  18.150  0.00  0.00    +0.000 Br
ATOM     18  C   UNL     1      -0.177  10.326  20.071  0.00  0.00    +0.000 A 
ATOM     19  C   UNL     1       0.744   9.350  20.476  0.00  0.00    +0.000 A 
ATOM     20 BR   UNL     1       0.964   9.071  22.343  0.00  0.00    +0.000 Br
ENDBRANCH  12  13
ENDBRANCH   1  12
TORSDOF 6
ENDMDL
MODEL 8
REMARK VINA RESULT:      -6.5      3.086      4.820
REMARK  Name = 
REMARK  8 active torsions:
REMARK  status: ('A' for Active; 'I' for Inactive)
REMARK    1  A    between atoms: C_1  and  C_2
REMARK    2  A    between atoms: C_2  and  C_3
REMARK    3  A    between atoms: C_4  and  C_5
REMARK    4  A    between atoms: C_5  and  O_7
REMARK    5  A    between atoms: C_8  and  C_9
REMARK    6  A    between atoms: C_9  and  C_10
REMARK    7  A    between atoms: C_9  and  O_11
REMARK    8  A    between atoms: O_11  and  C_12
REMARK                            x       y       z     vdW  Elec       q    Type
REMARK                         _______ _______ _______ _____ _____    ______ ____
ROOT
ATOM      1  C   UNL     1       3.405   2.649  17.640  0.00  0.00    +0.000 C 
ATOM      2  C   UNL     1       3.757   1.405  18.462  0.00  0.00    +0.000 C 
ENDROOT
BRANCH   1   5
ATOM      3  C   UNL     1       5.347   3.962  15.622  0.00  0.00    +0.000 C 
ATOM      4  C   UNL     1       5.314   4.260  17.097  0.00  0.00    +0.000 C 
ATOM      5  C   UNL     1       4.428   3.722  17.957  0.00  0.00    +0.000 C 
BRANCH   4   6
ATOM      6  C   UNL     1       6.388   5.131  17.558  0.00  0.00    +0.000 C 
ATOM      7  C   UNL     1       6.413   6.460  17.398  0.00  0.00    +0.000 C 
BRANCH   7   8
ATOM      8  C   UNL     1       7.567   7.232  17.896  0.00  0.00    +0.000 C 
ATOM      9  O   UNL     1       8.280   6.893  18.828  0.00  0.00    +0.000 OA
BRANCH   8  10
ATOM     10  O   UNL     1       7.751   8.371  17.202  0.00  0.00    +0.000 OA
ATOM     11  H   UNL     1       6.959   8.926  17.092  0.00  0.00    +0.000 HD
ENDBRANCH   8  10
ENDBRANCH   7   8
ENDBRANCH   4   6
ENDBRANCH   1   5
BRANCH   1  12
ATOM     12  O   UNL     1       2.117   3.155  18.012  0.00  0.00    +0.000 OA
BRANCH  12  13
ATOM     13  C   UNL     1       2.051   4.374  18.639  0.00  0.00    +0.000 A 
ATOM     14  C   UNL     1       2.253   5.599  17.993  0.00  0.00    +0.000 A 
ATOM     15  C   UNL     1       2.146   6.806  18.690  0.00  0.00    +0.000 A 
ATOM     16  C   UNL     1       1.838   6.799  20.045  0.00  0.00    +0.000 A 
ATOM     17 BR   UNL     1       1.717   8.436  20.982  0.00  0.00    +0.000 Br
ATOM     18  C   UNL     1       1.620   5.596  20.710  0.00  0.00    +0.000 A 
ATOM     19  C   UNL     1       1.720   4.389  20.004  0.00  0.00    +0.000 A 
ATOM     20 BR   UNL     1       1.410   2.781  20.968  0.00  0.00    +0.000 Br
ENDBRANCH  12  13
ENDBRANCH   1  12
TORSDOF 6
ENDMDL
MODEL 9
REMARK VINA RESULT:      -6.5      3.496      5.260
REMARK  Name = 
REMARK  8 active torsions:
REMARK  status: ('A' for Active; 'I' for Inactive)
REMARK    1  A    between atoms: C_1  and  C_2
REMARK    2  A    between atoms: C_2  and  C_3
REMARK    3  A    between atoms: C_4  and  C_5
REMARK    4  A    between atoms: C_5  and  O_7
REMARK    5  A    between atoms: C_8  and  C_9
REMARK    6  A    between atoms: C_9  and  C_10
REMARK    7  A    between atoms: C_9  and  O_11
REMARK    8  A    between atoms: O_11  and  C_12
REMARK                            x       y       z     vdW  Elec       q    Type
REMARK                         _______ _______ _______ _____ _____    ______ ____
ROOT
ATOM      1  C   UNL     1       2.210   5.924  19.729  0.00  0.00    +0.000 C 
ATOM      2  C   UNL     1       2.017   4.856  20.812  0.00  0.00    +0.000 C 
ENDROOT
BRANCH   1   5
ATOM      3  C   UNL     1       2.147   3.899  17.392  0.00  0.00    +0.000 C 
ATOM      4  C   UNL     1       3.386   4.593  17.891  0.00  0.00    +0.000 C 
ATOM      5  C   UNL     1       3.392   5.514  18.874  0.00  0.00    +0.000 C 
BRANCH   4   6
ATOM      6  C   UNL     1       4.623   4.128  17.277  0.00  0.00    +0.000 C 
ATOM      7  C   UNL     1       5.310   4.801  16.345  0.00  0.00    +0.000 C 
BRANCH   7   8
ATOM      8  C   UNL     1       6.544   4.215  15.787  0.00  0.00    +0.000 C 
ATOM      9  O   UNL     1       7.666   4.407  16.228  0.00  0.00    +0.000 OA
BRANCH   8  10
ATOM     10  O   UNL     1       6.294   3.435  14.719  0.00  0.00    +0.000 OA
ATOM     11  H   UNL     1       5.612   2.752  14.848  0.00  0.00    +0.000 HD
ENDBRANCH   8  10
ENDBRANCH   7   8
ENDBRANCH   4   6
ENDBRANCH   1   5
BRANCH   1  12
ATOM     12  O   UNL     1       2.521   7.193  20.318  0.00  0.00    +0.000 OA
BRANCH  12  13
ATOM     13  C   UNL     1       1.558   8.171  20.306  0.00  0.00    +0.000 A 
ATOM     14  C   UNL     1       0.706   8.445  21.383  0.00  0.00    +0.000 A 
ATOM     15  C   UNL     1      -0.236   9.475  21.310  0.00  0.00    +0.000 A 
ATOM     16  C   UNL     1      -0.338  10.241  20.155  0.00  0.00    +0.000 A 
ATOM     17 BR   UNL     1      -1.631  11.616  20.060  0.00  0.00    +0.000 Br
ATOM     18  C   UNL     1       0.504   9.997  19.074  0.00  0.00    +0.000 A 
ATOM     19  C   UNL     1       1.453   8.969  19.155  0.00  0.00    +0.000 A 
ATOM     20 BR   UNL     1       2.574   8.688  17.647  0.00  0.00    +0.000 Br
ENDBRANCH  12  13
ENDBRANCH   1  12
TORSDOF 6
ENDMDL
