MODEL 1
REMARK VINA RESULT:      -7.1      0.000      0.000
REMARK  Name = 
REMARK  7 active torsions:
REMARK  status: ('A' for Active; 'I' for Inactive)
REMARK    1  A    between atoms: C_1  and  O_2
REMARK    2  A    between atoms: O_2  and  C_3
REMARK    3  A    between atoms: C_6  and  C_7
REMARK    4  A    between atoms: N_9  and  C_10
REMARK    5  A    between atoms: C_14  and  O_15
REMARK    6  A    between atoms: C_18  and  O_19
REMARK    7  A    between atoms: O_19  and  C_20
REMARK                            x       y       z     vdW  Elec       q    Type
REMARK                         _______ _______ _______ _____ _____    ______ ____
ROOT
ATOM      1  C   UNL     1       4.806   5.160  16.571  0.00  0.00    +0.000 C 
ATOM      2  O   UNL     1       4.875   6.347  16.265  0.00  0.00    +0.000 OA
ATOM      3  N   UNL     1       5.233   4.088  15.806  0.00  0.00    +0.000 N 
ATOM      4  H   UNL     1       4.932   3.162  16.079  0.00  0.00    +0.000 HD
ENDROOT
BRANCH   1   8
ATOM      5  C   UNL     1       2.865   4.124  20.257  0.00  0.00    +0.000 A 
ATOM      6  C   UNL     1       3.577   3.174  19.513  0.00  0.00    +0.000 A 
ATOM      7  C   UNL     1       4.206   3.533  18.322  0.00  0.00    +0.000 A 
ATOM      8  C   UNL     1       4.103   4.838  17.840  0.00  0.00    +0.000 A 
ATOM      9  C   UNL     1       3.312   5.764  18.523  0.00  0.00    +0.000 A 
ATOM     10  C   UNL     1       2.679   5.415  19.730  0.00  0.00    +0.000 A 
BRANCH   5  12
ATOM     11  C   UNL     1       1.445   2.663  21.462  0.00  0.00    +0.000 C 
ATOM     12  O   UNL     1       2.323   3.790  21.470  0.00  0.00    +0.000 OA
ENDBRANCH   5  12
BRANCH  10  13
ATOM     13  O   UNL     1       1.947   6.452  20.245  0.00  0.00    +0.000 OA
ATOM     14  C   UNL     1       2.034   7.729  19.627  0.00  0.00    +0.000 C 
ENDBRANCH  10  13
ENDBRANCH   1   8
BRANCH   3  15
ATOM     15  C   UNL     1       5.882   4.195  14.553  0.00  0.00    +0.000 A 
ATOM     16  C   UNL     1       5.446   3.511  13.412  0.00  0.00    +0.000 A 
ATOM     17  C   UNL     1       6.141   3.605  12.203  0.00  0.00    +0.000 A 
ATOM     18  C   UNL     1       7.282   4.393  12.115  0.00  0.00    +0.000 A 
ATOM     19  C   UNL     1       7.706   5.092  13.242  0.00  0.00    +0.000 A 
ATOM     20  C   UNL     1       7.012   5.013  14.450  0.00  0.00    +0.000 A 
BRANCH  19  21
ATOM     21  O   UNL     1       8.826   5.875  13.191  0.00  0.00    +0.000 OA
ATOM     22  H   UNL     1       8.604   6.718  12.759  0.00  0.00    +0.000 HD
ENDBRANCH  19  21
ENDBRANCH   3  15
TORSDOF 5
ENDMDL
MODEL 2
REMARK VINA RESULT:      -7.1      2.835      4.364
REMARK  Name = 
REMARK  7 active torsions:
REMARK  status: ('A' for Active; 'I' for Inactive)
REMARK    1  A    between atoms: C_1  and  O_2
REMARK    2  A    between atoms: O_2  and  C_3
REMARK    3  A    between atoms: C_6  and  C_7
REMARK    4  A    between atoms: N_9  and  C_10
REMARK    5  A    between atoms: C_14  and  O_15
REMARK    6  A    between atoms: C_18  and  O_19
REMARK    7  A    between atoms: O_19  and  C_20
REMARK                            x       y       z     vdW  Elec       q    Type
REMARK                         _______ _______ _______ _____ _____    ______ ____
ROOT
ATOM      1  C   UNL     1       3.145   6.505  18.121  0.00  0.00    +0.000 C 
ATOM      2  O   UNL     1       2.683   5.372  18.015  0.00  0.00    +0.000 OA
ATOM      3  N   UNL     1       4.376   6.937  17.657  0.00  0.00    +0.000 N 
ATOM      4  H   UNL     1       4.720   7.829  17.988  0.00  0.00    +0.000 HD
ENDROOT
BRANCH   1   8
ATOM      5  C   UNL     1       0.891   9.257  20.524  0.00  0.00    +0.000 A 
ATOM      6  C   UNL     1       1.242   7.986  21.001  0.00  0.00    +0.000 A 
ATOM      7  C   UNL     1       1.980   7.110  20.206  0.00  0.00    +0.000 A 
ATOM      8  C   UNL     1       2.349   7.478  18.912  0.00  0.00    +0.000 A 
ATOM      9  C   UNL     1       1.918   8.702  18.395  0.00  0.00    +0.000 A 
ATOM     10  C   UNL     1       1.179   9.597  19.190  0.00  0.00    +0.000 A 
BRANCH   5  12
ATOM     11  C   UNL     1       0.002   9.698  22.673  0.00  0.00    +0.000 C 
ATOM     12  O   UNL     1       0.243  10.147  21.339  0.00  0.00    +0.000 OA
ENDBRANCH   5  12
BRANCH  10  13
ATOM     13  O   UNL     1       0.846  10.737  18.507  0.00  0.00    +0.000 OA
ATOM     14  C   UNL     1       1.681  11.880  18.628  0.00  0.00    +0.000 C 
ENDBRANCH  10  13
ENDBRANCH   1   8
BRANCH   3  15
ATOM     15  C   UNL     1       5.289   6.144  16.924  0.00  0.00    +0.000 A 
ATOM     16  C   UNL     1       5.193   5.960  15.539  0.00  0.00    +0.000 A 
ATOM     17  C   UNL     1       6.086   5.130  14.856  0.00  0.00    +0.000 A 
ATOM     18  C   UNL     1       7.099   4.477  15.549  0.00  0.00    +0.000 A 
ATOM     19  C   UNL     1       7.210   4.675  16.922  0.00  0.00    +0.000 A 
ATOM     20  C   UNL     1       6.330   5.510  17.611  0.00  0.00    +0.000 A 
BRANCH  19  21
ATOM     21  O   UNL     1       8.193   4.045  17.635  0.00  0.00    +0.000 OA
ATOM     22  H   UNL     1       8.939   3.849  17.042  0.00  0.00    +0.000 HD
ENDBRANCH  19  21
ENDBRANCH   3  15
TORSDOF 5
ENDMDL
MODEL 3
REMARK VINA RESULT:      -7.0      4.402      6.141
REMARK  Name = 
REMARK  7 active torsions:
REMARK  status: ('A' for Active; 'I' for Inactive)
REMARK    1  A    between atoms: C_1  and  O_2
REMARK    2  A    between atoms: O_2  and  C_3
REMARK    3  A    between atoms: C_6  and  C_7
REMARK    4  A    between atoms: N_9  and  C_10
REMARK    5  A    between atoms: C_14  and  O_15
REMARK    6  A    between atoms: C_18  and  O_19
REMARK    7  A    between atoms: O_19  and  C_20
REMARK                            x       y       z     vdW  Elec       q    Type
REMARK                         _______ _______ _______ _____ _____    ______ ____
ROOT
ATOM      1  C   UNL     1       2.640   6.687  18.582  0.00  0.00    +0.000 C 
ATOM      2  O   UNL     1       3.513   6.749  17.721  0.00  0.00    +0.000 OA
ATOM      3  N   UNL     1       2.134   5.534  19.158  0.00  0.00    +0.000 N 
ATOM      4  H   UNL     1       1.281   5.609  19.697  0.00  0.00    +0.000 HD
ENDROOT
BRANCH   1   8
ATOM      5  C   UNL     1       0.731  10.404  19.568  0.00  0.00    +0.000 A 
ATOM      6  C   UNL     1       1.201  10.144  18.273  0.00  0.00    +0.000 A 
ATOM      7  C   UNL     1       1.812   8.927  17.972  0.00  0.00    +0.000 A 
ATOM      8  C   UNL     1       1.993   7.968  18.969  0.00  0.00    +0.000 A 
ATOM      9  C   UNL     1       1.617   8.260  20.282  0.00  0.00    +0.000 A 
ATOM     10  C   UNL     1       0.994   9.481  20.596  0.00  0.00    +0.000 A 
BRANCH   5  12
ATOM     11  C   UNL     1      -1.352  11.527  19.585  0.00  0.00    +0.000 C 
ATOM     12  O   UNL     1       0.053  11.563  19.838  0.00  0.00    +0.000 OA
ENDBRANCH   5  12
BRANCH  10  13
ATOM     13  O   UNL     1       0.707   9.583  21.931  0.00  0.00    +0.000 OA
ATOM     14  C   UNL     1      -0.458   8.946  22.436  0.00  0.00    +0.000 C 
ENDBRANCH  10  13
ENDBRANCH   1   8
BRANCH   3  15
ATOM     15  C   UNL     1       2.590   4.224  18.883  0.00  0.00    +0.000 A 
ATOM     16  C   UNL     1       2.000   3.402  17.915  0.00  0.00    +0.000 A 
ATOM     17  C   UNL     1       2.449   2.095  17.705  0.00  0.00    +0.000 A 
ATOM     18  C   UNL     1       3.505   1.592  18.456  0.00  0.00    +0.000 A 
ATOM     19  C   UNL     1       4.109   2.415  19.403  0.00  0.00    +0.000 A 
ATOM     20  C   UNL     1       3.675   3.724  19.612  0.00  0.00    +0.000 A 
BRANCH  19  21
ATOM     21  O   UNL     1       5.150   1.951  20.160  0.00  0.00    +0.000 OA
ATOM     22  H   UNL     1       4.913   2.025  21.102  0.00  0.00    +0.000 HD
ENDBRANCH  19  21
ENDBRANCH   3  15
TORSDOF 5
ENDMDL
MODEL 4
REMARK VINA RESULT:      -6.9      1.203      1.728
REMARK  Name = 
REMARK  7 active torsions:
REMARK  status: ('A' for Active; 'I' for Inactive)
REMARK    1  A    between atoms: C_1  and  O_2
REMARK    2  A    between atoms: O_2  and  C_3
REMARK    3  A    between atoms: C_6  and  C_7
REMARK    4  A    between atoms: N_9  and  C_10
REMARK    5  A    between atoms: C_14  and  O_15
REMARK    6  A    between atoms: C_18  and  O_19
REMARK    7  A    between atoms: O_19  and  C_20
REMARK                            x       y       z     vdW  Elec       q    Type
REMARK                         _______ _______ _______ _____ _____    ______ ____
ROOT
ATOM      1  C   UNL     1       4.795   5.275  16.357  0.00  0.00    +0.000 C 
ATOM      2  O   UNL     1       4.831   6.449  15.999  0.00  0.00    +0.000 OA
ATOM      3  N   UNL     1       5.295   4.188  15.661  0.00  0.00    +0.000 N 
ATOM      4  H   UNL     1       5.019   3.263  15.966  0.00  0.00    +0.000 HD
ENDROOT
BRANCH   1   8
ATOM      5  C   UNL     1       2.735   4.526  20.048  0.00  0.00    +0.000 A 
ATOM      6  C   UNL     1       4.054   4.999  20.030  0.00  0.00    +0.000 A 
ATOM      7  C   UNL     1       4.703   5.242  18.819  0.00  0.00    +0.000 A 
ATOM      8  C   UNL     1       4.054   4.984  17.612  0.00  0.00    +0.000 A 
ATOM      9  C   UNL     1       2.777   4.418  17.623  0.00  0.00    +0.000 A 
ATOM     10  C   UNL     1       2.111   4.175  18.838  0.00  0.00    +0.000 A 
BRANCH   5  12
ATOM     11  C   UNL     1       2.169   3.078  21.832  0.00  0.00    +0.000 C 
ATOM     12  O   UNL     1       2.072   4.372  21.236  0.00  0.00    +0.000 OA
ENDBRANCH   5  12
BRANCH  10  13
ATOM     13  O   UNL     1       0.876   3.616  18.642  0.00  0.00    +0.000 OA
ATOM     14  C   UNL     1       0.751   2.201  18.655  0.00  0.00    +0.000 C 
ENDBRANCH  10  13
ENDBRANCH   1   8
BRANCH   3  15
ATOM     15  C   UNL     1       5.989   4.263  14.431  0.00  0.00    +0.000 A 
ATOM     16  C   UNL     1       5.622   3.515  13.305  0.00  0.00    +0.000 A 
ATOM     17  C   UNL     1       6.362   3.581  12.121  0.00  0.00    +0.000 A 
ATOM     18  C   UNL     1       7.478   4.404  12.042  0.00  0.00    +0.000 A 
ATOM     19  C   UNL     1       7.833   5.166  13.152  0.00  0.00    +0.000 A 
ATOM     20  C   UNL     1       7.094   5.115  14.335  0.00  0.00    +0.000 A 
BRANCH  19  21
ATOM     21  O   UNL     1       8.928   5.985  13.109  0.00  0.00    +0.000 OA
ATOM     22  H   UNL     1       9.732   5.438  13.095  0.00  0.00    +0.000 HD
ENDBRANCH  19  21
ENDBRANCH   3  15
TORSDOF 5
ENDMDL
MODEL 5
REMARK VINA RESULT:      -6.9      2.906      4.711
REMARK  Name = 
REMARK  7 active torsions:
REMARK  status: ('A' for Active; 'I' for Inactive)
REMARK    1  A    between atoms: C_1  and  O_2
REMARK    2  A    between atoms: O_2  and  C_3
REMARK    3  A    between atoms: C_6  and  C_7
REMARK    4  A    between atoms: N_9  and  C_10
REMARK    5  A    between atoms: C_14  and  O_15
REMARK    6  A    between atoms: C_18  and  O_19
REMARK    7  A    between atoms: O_19  and  C_20
REMARK                            x       y       z     vdW  Elec       q    Type
REMARK                         _______ _______ _______ _____ _____    ______ ____
ROOT
ATOM      1  C   UNL     1       3.219   6.660  17.953  0.00  0.00    +0.000 C 
ATOM      2  O   UNL     1       2.855   5.509  18.178  0.00  0.00    +0.000 OA
ATOM      3  N   UNL     1       4.374   7.041  17.292  0.00  0.00    +0.000 N 
ATOM      4  H   UNL     1       4.657   8.011  17.355  0.00  0.00    +0.000 HD
ENDROOT
BRANCH   1   8
ATOM      5  C   UNL     1       0.796   9.845  19.507  0.00  0.00    +0.000 A 
ATOM      6  C   UNL     1       1.396   9.931  18.243  0.00  0.00    +0.000 A 
ATOM      7  C   UNL     1       2.174   8.882  17.754  0.00  0.00    +0.000 A 
ATOM      8  C   UNL     1       2.391   7.747  18.536  0.00  0.00    +0.000 A 
ATOM      9  C   UNL     1       1.880   7.697  19.834  0.00  0.00    +0.000 A 
ATOM     10  C   UNL     1       1.088   8.746  20.335  0.00  0.00    +0.000 A 
BRANCH   5  12
ATOM     11  C   UNL     1       0.471  12.167  19.827  0.00  0.00    +0.000 C 
ATOM     12  O   UNL     1      -0.038  10.838  19.946  0.00  0.00    +0.000 OA
ENDBRANCH   5  12
BRANCH  10  13
ATOM     13  O   UNL     1       0.685   8.515  21.624  0.00  0.00    +0.000 OA
ATOM     14  C   UNL     1       1.216   9.322  22.666  0.00  0.00    +0.000 C 
ENDBRANCH  10  13
ENDBRANCH   1   8
BRANCH   3  15
ATOM     15  C   UNL     1       5.306   6.151  16.709  0.00  0.00    +0.000 A 
ATOM     16  C   UNL     1       5.298   5.827  15.347  0.00  0.00    +0.000 A 
ATOM     17  C   UNL     1       6.205   4.906  14.817  0.00  0.00    +0.000 A 
ATOM     18  C   UNL     1       7.144   4.298  15.643  0.00  0.00    +0.000 A 
ATOM     19  C   UNL     1       7.169   4.634  16.993  0.00  0.00    +0.000 A 
ATOM     20  C   UNL     1       6.274   5.561  17.529  0.00  0.00    +0.000 A 
BRANCH  19  21
ATOM     21  O   UNL     1       8.078   4.053  17.835  0.00  0.00    +0.000 OA
ATOM     22  H   UNL     1       8.210   3.127  17.568  0.00  0.00    +0.000 HD
ENDBRANCH  19  21
ENDBRANCH   3  15
TORSDOF 5
ENDMDL
MODEL 6
REMARK VINA RESULT:      -6.9      4.013      6.367
REMARK  Name = 
REMARK  7 active torsions:
REMARK  status: ('A' for Active; 'I' for Inactive)
REMARK    1  A    between atoms: C_1  and  O_2
REMARK    2  A    between atoms: O_2  and  C_3
REMARK    3  A    between atoms: C_6  and  C_7
REMARK    4  A    between atoms: N_9  and  C_10
REMARK    5  A    between atoms: C_14  and  O_15
REMARK    6  A    between atoms: C_18  and  O_19
REMARK    7  A    between atoms: O_19  and  C_20
REMARK                            x       y       z     vdW  Elec       q    Type
REMARK                         _______ _______ _______ _____ _____    ______ ____
ROOT
ATOM      1  C   UNL     1       1.966   7.891  19.330  0.00  0.00    +0.000 C 
ATOM      2  O   UNL     1       2.111   8.249  18.164  0.00  0.00    +0.000 OA
ATOM      3  N   UNL     1       2.274   6.646  19.851  0.00  0.00    +0.000 N 
ATOM      4  H   UNL     1       1.917   6.416  20.769  0.00  0.00    +0.000 HD
ENDROOT
BRANCH   1   8
ATOM      5  C   UNL     1       0.106  10.607  22.085  0.00  0.00    +0.000 A 
ATOM      6  C   UNL     1       0.445   9.300  22.462  0.00  0.00    +0.000 A 
ATOM      7  C   UNL     1       1.055   8.436  21.553  0.00  0.00    +0.000 A 
ATOM      8  C   UNL     1       1.303   8.855  20.246  0.00  0.00    +0.000 A 
ATOM      9  C   UNL     1       0.878  10.120  19.835  0.00  0.00    +0.000 A 
ATOM     10  C   UNL     1       0.268  11.002  20.745  0.00  0.00    +0.000 A 
BRANCH   5  12
ATOM     11  C   UNL     1      -1.833  11.458  23.142  0.00  0.00    +0.000 C 
ATOM     12  O   UNL     1      -0.412  11.480  23.005  0.00  0.00    +0.000 OA
ENDBRANCH   5  12
BRANCH  10  13
ATOM     13  O   UNL     1      -0.081  12.188  20.155  0.00  0.00    +0.000 OA
ATOM     14  C   UNL     1      -1.172  12.210  19.245  0.00  0.00    +0.000 C 
ENDBRANCH  10  13
ENDBRANCH   1   8
BRANCH   3  15
ATOM     15  C   UNL     1       2.868   5.588  19.124  0.00  0.00    +0.000 A 
ATOM     16  C   UNL     1       2.167   4.831  18.177  0.00  0.00    +0.000 A 
ATOM     17  C   UNL     1       2.775   3.762  17.513  0.00  0.00    +0.000 A 
ATOM     18  C   UNL     1       4.100   3.438  17.779  0.00  0.00    +0.000 A 
ATOM     19  C   UNL     1       4.806   4.203  18.704  0.00  0.00    +0.000 A 
ATOM     20  C   UNL     1       4.211   5.279  19.364  0.00  0.00    +0.000 A 
BRANCH  19  21
ATOM     21  O   UNL     1       6.111   3.910  18.993  0.00  0.00    +0.000 OA
ATOM     22  H   UNL     1       6.611   3.838  18.161  0.00  0.00    +0.000 HD
ENDBRANCH  19  21
ENDBRANCH   3  15
TORSDOF 5
ENDMDL
MODEL 7
REMARK VINA RESULT:      -6.8      2.942      7.966
REMARK  Name = 
REMARK  7 active torsions:
REMARK  status: ('A' for Active; 'I' for Inactive)
REMARK    1  A    between atoms: C_1  and  O_2
REMARK    2  A    between atoms: O_2  and  C_3
REMARK    3  A    between atoms: C_6  and  C_7
REMARK    4  A    between atoms: N_9  and  C_10
REMARK    5  A    between atoms: C_14  and  O_15
REMARK    6  A    between atoms: C_18  and  O_19
REMARK    7  A    between atoms: O_19  and  C_20
REMARK                            x       y       z     vdW  Elec       q    Type
REMARK                         _______ _______ _______ _____ _____    ______ ____
ROOT
ATOM      1  C   UNL     1       2.158   6.439  19.973  0.00  0.00    +0.000 C 
ATOM      2  O   UNL     1       1.465   5.803  20.762  0.00  0.00    +0.000 OA
ATOM      3  N   UNL     1       2.088   7.801  19.731  0.00  0.00    +0.000 N 
ATOM      4  H   UNL     1       2.566   8.162  18.916  0.00  0.00    +0.000 HD
ENDROOT
BRANCH   1   8
ATOM      5  C   UNL     1       4.770   4.198  17.407  0.00  0.00    +0.000 A 
ATOM      6  C   UNL     1       3.403   4.327  17.127  0.00  0.00    +0.000 A 
ATOM      7  C   UNL     1       2.573   5.065  17.970  0.00  0.00    +0.000 A 
ATOM      8  C   UNL     1       3.091   5.656  19.123  0.00  0.00    +0.000 A 
ATOM      9  C   UNL     1       4.430   5.448  19.461  0.00  0.00    +0.000 A 
ATOM     10  C   UNL     1       5.278   4.710  18.614  0.00  0.00    +0.000 A 
BRANCH   5  12
ATOM     11  C   UNL     1       5.935   4.274  15.349  0.00  0.00    +0.000 C 
ATOM     12  O   UNL     1       5.598   3.547  16.532  0.00  0.00    +0.000 OA
ENDBRANCH   5  12
BRANCH  10  13
ATOM     13  O   UNL     1       6.548   4.613  19.118  0.00  0.00    +0.000 OA
ATOM     14  C   UNL     1       7.399   5.749  19.063  0.00  0.00    +0.000 C 
ENDBRANCH  10  13
ENDBRANCH   1   8
BRANCH   3  15
ATOM     15  C   UNL     1       1.232   8.700  20.408  0.00  0.00    +0.000 A 
ATOM     16  C   UNL     1       0.390   9.597  19.738  0.00  0.00    +0.000 A 
ATOM     17  C   UNL     1      -0.406  10.504  20.442  0.00  0.00    +0.000 A 
ATOM     18  C   UNL     1      -0.380  10.523  21.831  0.00  0.00    +0.000 A 
ATOM     19  C   UNL     1       0.439   9.618  22.501  0.00  0.00    +0.000 A 
ATOM     20  C   UNL     1       1.230   8.701  21.808  0.00  0.00    +0.000 A 
BRANCH  19  21
ATOM     21  O   UNL     1       0.491   9.611  23.868  0.00  0.00    +0.000 OA
ATOM     22  H   UNL     1       1.240  10.160  24.159  0.00  0.00    +0.000 HD
ENDBRANCH  19  21
ENDBRANCH   3  15
TORSDOF 5
ENDMDL
MODEL 8
REMARK VINA RESULT:      -6.8      0.845      2.155
REMARK  Name = 
REMARK  7 active torsions:
REMARK  status: ('A' for Active; 'I' for Inactive)
REMARK    1  A    between atoms: C_1  and  O_2
REMARK    2  A    between atoms: O_2  and  C_3
REMARK    3  A    between atoms: C_6  and  C_7
REMARK    4  A    between atoms: N_9  and  C_10
REMARK    5  A    between atoms: C_14  and  O_15
REMARK    6  A    between atoms: C_18  and  O_19
REMARK    7  A    between atoms: O_19  and  C_20
REMARK                            x       y       z     vdW  Elec       q    Type
REMARK                         _______ _______ _______ _____ _____    ______ ____
ROOT
ATOM      1  C   UNL     1       4.911   5.235  16.435  0.00  0.00    +0.000 C 
ATOM      2  O   UNL     1       4.872   6.407  16.071  0.00  0.00    +0.000 OA
ATOM      3  N   UNL     1       5.432   4.170  15.719  0.00  0.00    +0.000 N 
ATOM      4  H   UNL     1       5.217   3.234  16.039  0.00  0.00    +0.000 HD
ENDROOT
BRANCH   1   8
ATOM      5  C   UNL     1       2.903   4.417  20.140  0.00  0.00    +0.000 A 
ATOM      6  C   UNL     1       2.955   5.712  19.606  0.00  0.00    +0.000 A 
ATOM      7  C   UNL     1       3.607   5.955  18.397  0.00  0.00    +0.000 A 
ATOM      8  C   UNL     1       4.245   4.913  17.723  0.00  0.00    +0.000 A 
ATOM      9  C   UNL     1       4.283   3.641  18.299  0.00  0.00    +0.000 A 
ATOM     10  C   UNL     1       3.623   3.384  19.514  0.00  0.00    +0.000 A 
BRANCH   5  12
ATOM     11  C   UNL     1       1.180   3.160  21.166  0.00  0.00    +0.000 C 
ATOM     12  O   UNL     1       2.188   4.167  21.280  0.00  0.00    +0.000 OA
ENDBRANCH   5  12
BRANCH  10  13
ATOM     13  O   UNL     1       3.779   2.084  19.917  0.00  0.00    +0.000 OA
ATOM     14  C   UNL     1       4.939   1.726  20.655  0.00  0.00    +0.000 C 
ENDBRANCH  10  13
ENDBRANCH   1   8
BRANCH   3  15
ATOM     15  C   UNL     1       6.063   4.273  14.458  0.00  0.00    +0.000 A 
ATOM     16  C   UNL     1       5.639   3.551  13.335  0.00  0.00    +0.000 A 
ATOM     17  C   UNL     1       6.318   3.644  12.117  0.00  0.00    +0.000 A 
ATOM     18  C   UNL     1       7.431   4.468  12.000  0.00  0.00    +0.000 A 
ATOM     19  C   UNL     1       7.842   5.204  13.108  0.00  0.00    +0.000 A 
ATOM     20  C   UNL     1       7.164   5.126  14.325  0.00  0.00    +0.000 A 
BRANCH  19  21
ATOM     21  O   UNL     1       8.935   6.023  13.030  0.00  0.00    +0.000 OA
ATOM     22  H   UNL     1       9.479   5.902  13.827  0.00  0.00    +0.000 HD
ENDBRANCH  19  21
ENDBRANCH   3  15
TORSDOF 5
ENDMDL
MODEL 9
REMARK VINA RESULT:      -6.8      3.237      8.182
REMARK  Name = 
REMARK  7 active torsions:
REMARK  status: ('A' for Active; 'I' for Inactive)
REMARK    1  A    between atoms: C_1  and  O_2
REMARK    2  A    between atoms: O_2  and  C_3
REMARK    3  A    between atoms: C_6  and  C_7
REMARK    4  A    between atoms: N_9  and  C_10
REMARK    5  A    between atoms: C_14  and  O_15
REMARK    6  A    between atoms: C_18  and  O_19
REMARK    7  A    between atoms: O_19  and  C_20
REMARK                            x       y       z     vdW  Elec       q    Type
REMARK                         _______ _______ _______ _____ _____    ______ ____
ROOT
ATOM      1  C   UNL     1       2.133   6.776  20.085  0.00  0.00    +0.000 C 
ATOM      2  O   UNL     1       1.431   6.082  20.816  0.00  0.00    +0.000 OA
ATOM      3  N   UNL     1       2.009   8.139  19.880  0.00  0.00    +0.000 N 
ATOM      4  H   UNL     1       2.512   8.548  19.103  0.00  0.00    +0.000 HD
ENDROOT
BRANCH   1   8
ATOM      5  C   UNL     1       5.088   4.841  17.646  0.00  0.00    +0.000 A 
ATOM      6  C   UNL     1       4.363   5.946  17.179  0.00  0.00    +0.000 A 
ATOM      7  C   UNL     1       3.412   6.564  17.990  0.00  0.00    +0.000 A 
ATOM      8  C   UNL     1       3.149   6.065  19.266  0.00  0.00    +0.000 A 
ATOM      9  C   UNL     1       3.795   4.906  19.700  0.00  0.00    +0.000 A 
ATOM     10  C   UNL     1       4.761   4.278  18.892  0.00  0.00    +0.000 A 
BRANCH   5  12
ATOM     11  C   UNL     1       7.413   4.665  17.241  0.00  0.00    +0.000 C 
ATOM     12  O   UNL     1       6.082   4.292  16.881  0.00  0.00    +0.000 OA
ENDBRANCH   5  12
BRANCH  10  13
ATOM     13  O   UNL     1       5.277   3.157  19.487  0.00  0.00    +0.000 OA
ATOM     14  C   UNL     1       4.385   2.175  19.995  0.00  0.00    +0.000 C 
ENDBRANCH  10  13
ENDBRANCH   1   8
BRANCH   3  15
ATOM     15  C   UNL     1       1.074   8.975  20.534  0.00  0.00    +0.000 A 
ATOM     16  C   UNL     1       0.293   9.917  19.854  0.00  0.00    +0.000 A 
ATOM     17  C   UNL     1      -0.586  10.759  20.542  0.00  0.00    +0.000 A 
ATOM     18  C   UNL     1      -0.704  10.664  21.923  0.00  0.00    +0.000 A 
ATOM     19  C   UNL     1       0.055   9.713  22.599  0.00  0.00    +0.000 A 
ATOM     20  C   UNL     1       0.927   8.862  21.921  0.00  0.00    +0.000 A 
BRANCH  19  21
ATOM     21  O   UNL     1      -0.035   9.595  23.959  0.00  0.00    +0.000 OA
ATOM     22  H   UNL     1      -0.086  10.484  24.352  0.00  0.00    +0.000 HD
ENDBRANCH  19  21
ENDBRANCH   3  15
TORSDOF 5
ENDMDL
