MODEL 1
REMARK VINA RESULT:      -8.8      0.000      0.000
REMARK  Name = 
REMARK  3 active torsions:
REMARK  status: ('A' for Active; 'I' for Inactive)
REMARK    1  A    between atoms: C_7  and  C_8
REMARK    2  A    between atoms: C_8  and  N_9
REMARK    3  A    between atoms: C_12  and  C_13
REMARK                            x       y       z     vdW  Elec       q    Type
REMARK                         _______ _______ _______ _____ _____    ______ ____
ROOT
ATOM      1  N   UNL     1       1.566   7.210  20.128  0.00  0.00    +0.000 NA
ATOM      2  C   UNL     1       2.394   7.742  19.045  0.00  0.00    +0.000 C 
ATOM      3  C   UNL     1       2.495   6.819  17.834  0.00  0.00    +0.000 C 
ATOM      4  C   UNL     1       2.886   5.392  18.207  0.00  0.00    +0.000 C 
ATOM      5  C   UNL     1       1.948   4.869  19.293  0.00  0.00    +0.000 C 
ATOM      6  C   UNL     1       1.837   5.816  20.488  0.00  0.00    +0.000 C 
ENDROOT
BRANCH   4   7
ATOM      7  C   UNL     1       4.341   5.200  18.532  0.00  0.00    +0.000 A 
ATOM      8  N   UNL     1       4.876   5.342  19.797  0.00  0.00    +0.000 NA
ATOM      9  N   UNL     1       6.196   5.138  19.739  0.00  0.00    +0.000 NA
ATOM     10  N   UNL     1       6.493   4.866  18.460  0.00  0.00    +0.000 N 
ATOM     11  C   UNL     1       7.776   4.601  17.957  0.00  0.00    +0.000 A 
ATOM     12  N   UNL     1       7.988   4.357  16.680  0.00  0.00    +0.000 NA
ATOM     13  C   UNL     1       6.857   4.385  15.906  0.00  0.00    +0.000 A 
ATOM     14  N   UNL     1       6.850   4.176  14.550  0.00  0.00    +0.000 N 
ATOM     15  C   UNL     1       5.561   4.291  14.078  0.00  0.00    +0.000 A 
ATOM     16  C   UNL     1       4.722   4.565  15.144  0.00  0.00    +0.000 A 
ATOM     17  C   UNL     1       5.548   4.629  16.268  0.00  0.00    +0.000 A 
ATOM     18  C   UNL     1       5.367   4.894  17.684  0.00  0.00    +0.000 A 
ATOM     19  H   UNL     1       7.674   3.979  13.998  0.00  0.00    +0.000 HD
ENDBRANCH   4   7
BRANCH   1  20
ATOM     20  C   UNL     1       1.553   8.097  21.316  0.00  0.00    +0.000 C 
BRANCH  20  27
ATOM     21  F   UNL     1       0.456   9.270  23.677  0.00  0.00    +0.000 F 
ATOM     22  C   UNL     1       0.089   9.801  22.501  0.00  0.00    +0.000 A 
ATOM     23  C   UNL     1      -0.779  10.891  22.508  0.00  0.00    +0.000 A 
ATOM     24  C   UNL     1      -1.192  11.457  21.304  0.00  0.00    +0.000 A 
ATOM     25  C   UNL     1      -0.738  10.922  20.101  0.00  0.00    +0.000 A 
ATOM     26  C   UNL     1       0.138   9.830  20.101  0.00  0.00    +0.000 A 
ATOM     27  C   UNL     1       0.578   9.259  21.308  0.00  0.00    +0.000 A 
ENDBRANCH  20  27
ENDBRANCH   1  20
TORSDOF 3
ENDMDL
MODEL 2
REMARK VINA RESULT:      -7.9      2.836      7.705
REMARK  Name = 
REMARK  3 active torsions:
REMARK  status: ('A' for Active; 'I' for Inactive)
REMARK    1  A    between atoms: C_7  and  C_8
REMARK    2  A    between atoms: C_8  and  N_9
REMARK    3  A    between atoms: C_12  and  C_13
REMARK                            x       y       z     vdW  Elec       q    Type
REMARK                         _______ _______ _______ _____ _____    ______ ____
ROOT
ATOM      1  N   UNL     1       4.245   4.545  18.493  0.00  0.00    +0.000 NA
ATOM      2  C   UNL     1       4.229   5.454  19.639  0.00  0.00    +0.000 C 
ATOM      3  C   UNL     1       2.838   5.687  20.223  0.00  0.00    +0.000 C 
ATOM      4  C   UNL     1       1.809   6.076  19.167  0.00  0.00    +0.000 C 
ATOM      5  C   UNL     1       1.828   5.055  18.030  0.00  0.00    +0.000 C 
ATOM      6  C   UNL     1       3.230   4.814  17.472  0.00  0.00    +0.000 C 
ENDROOT
BRANCH   4   7
ATOM      7  C   UNL     1       1.897   7.499  18.692  0.00  0.00    +0.000 A 
ATOM      8  N   UNL     1       2.503   7.885  17.512  0.00  0.00    +0.000 NA
ATOM      9  N   UNL     1       2.440   9.216  17.403  0.00  0.00    +0.000 NA
ATOM     10  N   UNL     1       1.801   9.667  18.492  0.00  0.00    +0.000 N 
ATOM     11  C   UNL     1       1.532  11.013  18.784  0.00  0.00    +0.000 A 
ATOM     12  N   UNL     1       0.910  11.378  19.887  0.00  0.00    +0.000 NA
ATOM     13  C   UNL     1       0.558  10.336  20.706  0.00  0.00    +0.000 A 
ATOM     14  N   UNL     1      -0.081  10.489  21.909  0.00  0.00    +0.000 N 
ATOM     15  C   UNL     1      -0.271   9.251  22.485  0.00  0.00    +0.000 A 
ATOM     16  C   UNL     1       0.240   8.285  21.635  0.00  0.00    +0.000 A 
ATOM     17  C   UNL     1       0.758   8.980  20.541  0.00  0.00    +0.000 A 
ATOM     18  C   UNL     1       1.449   8.630  19.312  0.00  0.00    +0.000 A 
ATOM     19  H   UNL     1      -0.353  11.379  22.303  0.00  0.00    +0.000 HD
ENDBRANCH   4   7
BRANCH   1  20
ATOM     20  C   UNL     1       5.599   4.403  17.905  0.00  0.00    +0.000 C 
BRANCH  20  27
ATOM     21  F   UNL     1       5.455   6.637  16.132  0.00  0.00    +0.000 F 
ATOM     22  C   UNL     1       6.389   6.676  17.093  0.00  0.00    +0.000 A 
ATOM     23  C   UNL     1       7.209   7.800  17.175  0.00  0.00    +0.000 A 
ATOM     24  C   UNL     1       8.200   7.866  18.151  0.00  0.00    +0.000 A 
ATOM     25  C   UNL     1       8.369   6.801  19.035  0.00  0.00    +0.000 A 
ATOM     26  C   UNL     1       7.540   5.677  18.949  0.00  0.00    +0.000 A 
ATOM     27  C   UNL     1       6.523   5.604  17.981  0.00  0.00    +0.000 A 
ENDBRANCH  20  27
ENDBRANCH   1  20
TORSDOF 3
ENDMDL
MODEL 3
REMARK VINA RESULT:      -7.8      0.924      1.298
REMARK  Name = 
REMARK  3 active torsions:
REMARK  status: ('A' for Active; 'I' for Inactive)
REMARK    1  A    between atoms: C_7  and  C_8
REMARK    2  A    between atoms: C_8  and  N_9
REMARK    3  A    between atoms: C_12  and  C_13
REMARK                            x       y       z     vdW  Elec       q    Type
REMARK                         _______ _______ _______ _____ _____    ______ ____
ROOT
ATOM      1  N   UNL     1       1.754   7.396  20.226  0.00  0.00    +0.000 NA
ATOM      2  C   UNL     1       2.566   7.877  19.108  0.00  0.00    +0.000 C 
ATOM      3  C   UNL     1       2.580   6.938  17.905  0.00  0.00    +0.000 C 
ATOM      4  C   UNL     1       2.916   5.498  18.280  0.00  0.00    +0.000 C 
ATOM      5  C   UNL     1       1.993   5.031  19.406  0.00  0.00    +0.000 C 
ATOM      6  C   UNL     1       1.971   5.995  20.592  0.00  0.00    +0.000 C 
ENDROOT
BRANCH   4   7
ATOM      7  C   UNL     1       4.370   5.239  18.556  0.00  0.00    +0.000 A 
ATOM      8  N   UNL     1       4.949   5.330  19.807  0.00  0.00    +0.000 NA
ATOM      9  N   UNL     1       6.257   5.074  19.704  0.00  0.00    +0.000 NA
ATOM     10  N   UNL     1       6.504   4.821  18.410  0.00  0.00    +0.000 N 
ATOM     11  C   UNL     1       7.759   4.517  17.862  0.00  0.00    +0.000 A 
ATOM     12  N   UNL     1       7.923   4.295  16.573  0.00  0.00    +0.000 NA
ATOM     13  C   UNL     1       6.772   4.387  15.835  0.00  0.00    +0.000 A 
ATOM     14  N   UNL     1       6.716   4.211  14.477  0.00  0.00    +0.000 N 
ATOM     15  C   UNL     1       5.419   4.389  14.047  0.00  0.00    +0.000 A 
ATOM     16  C   UNL     1       4.624   4.671  15.144  0.00  0.00    +0.000 A 
ATOM     17  C   UNL     1       5.485   4.675  16.243  0.00  0.00    +0.000 A 
ATOM     18  C   UNL     1       5.358   4.913  17.670  0.00  0.00    +0.000 A 
ATOM     19  H   UNL     1       7.513   3.995  13.895  0.00  0.00    +0.000 HD
ENDBRANCH   4   7
BRANCH   1  20
ATOM     20  C   UNL     1       1.826   8.294  21.403  0.00  0.00    +0.000 C 
BRANCH  20  27
ATOM     21  F   UNL     1       1.125  10.177  19.373  0.00  0.00    +0.000 F 
ATOM     22  C   UNL     1       0.423  10.218  20.516  0.00  0.00    +0.000 A 
ATOM     23  C   UNL     1      -0.603  11.153  20.630  0.00  0.00    +0.000 A 
ATOM     24  C   UNL     1      -1.340  11.233  21.809  0.00  0.00    +0.000 A 
ATOM     25  C   UNL     1      -1.040  10.379  22.869  0.00  0.00    +0.000 A 
ATOM     26  C   UNL     1      -0.011   9.439  22.745  0.00  0.00    +0.000 A 
ATOM     27  C   UNL     1       0.731   9.334  21.555  0.00  0.00    +0.000 A 
ENDBRANCH  20  27
ENDBRANCH   1  20
TORSDOF 3
ENDMDL
MODEL 4
REMARK VINA RESULT:      -7.8      3.475      9.200
REMARK  Name = 
REMARK  3 active torsions:
REMARK  status: ('A' for Active; 'I' for Inactive)
REMARK    1  A    between atoms: C_7  and  C_8
REMARK    2  A    between atoms: C_8  and  N_9
REMARK    3  A    between atoms: C_12  and  C_13
REMARK                            x       y       z     vdW  Elec       q    Type
REMARK                         _______ _______ _______ _____ _____    ______ ____
ROOT
ATOM      1  N   UNL     1       2.062   7.806  19.719  0.00  0.00    +0.000 NA
ATOM      2  C   UNL     1       2.031   8.273  18.333  0.00  0.00    +0.000 C 
ATOM      3  C   UNL     1       2.049   9.794  18.193  0.00  0.00    +0.000 C 
ATOM      4  C   UNL     1       0.994  10.481  19.055  0.00  0.00    +0.000 C 
ATOM      5  C   UNL     1       1.120  10.001  20.501  0.00  0.00    +0.000 C 
ATOM      6  C   UNL     1       1.125   8.477  20.622  0.00  0.00    +0.000 C 
ENDROOT
BRANCH   4   7
ATOM      7  C   UNL     1      -0.408  10.403  18.521  0.00  0.00    +0.000 A 
ATOM      8  N   UNL     1      -0.789   9.604  17.461  0.00  0.00    +0.000 NA
ATOM      9  N   UNL     1      -2.089   9.792  17.216  0.00  0.00    +0.000 NA
ATOM     10  N   UNL     1      -2.529  10.691  18.109  0.00  0.00    +0.000 N 
ATOM     11  C   UNL     1      -3.839  11.185  18.196  0.00  0.00    +0.000 A 
ATOM     12  N   UNL     1      -4.189  12.083  19.095  0.00  0.00    +0.000 NA
ATOM     13  C   UNL     1      -3.169  12.480  19.920  0.00  0.00    +0.000 A 
ATOM     14  N   UNL     1      -3.307  13.416  20.913  0.00  0.00    +0.000 N 
ATOM     15  C   UNL     1      -2.093  13.596  21.541  0.00  0.00    +0.000 A 
ATOM     16  C   UNL     1      -1.163  12.756  20.954  0.00  0.00    +0.000 A 
ATOM     17  C   UNL     1      -1.849  12.079  19.945  0.00  0.00    +0.000 A 
ATOM     18  C   UNL     1      -1.513  11.091  18.934  0.00  0.00    +0.000 A 
ATOM     19  H   UNL     1      -4.169  13.896  21.131  0.00  0.00    +0.000 HD
ENDBRANCH   4   7
BRANCH   1  20
ATOM     20  C   UNL     1       1.966   6.330  19.818  0.00  0.00    +0.000 C 
BRANCH  20  27
ATOM     21  F   UNL     1       1.329   4.705  17.557  0.00  0.00    +0.000 F 
ATOM     22  C   UNL     1       2.614   4.748  17.939  0.00  0.00    +0.000 A 
ATOM     23  C   UNL     1       3.548   4.019  17.206  0.00  0.00    +0.000 A 
ATOM     24  C   UNL     1       4.888   4.028  17.585  0.00  0.00    +0.000 A 
ATOM     25  C   UNL     1       5.283   4.762  18.702  0.00  0.00    +0.000 A 
ATOM     26  C   UNL     1       4.341   5.495  19.432  0.00  0.00    +0.000 A 
ATOM     27  C   UNL     1       2.987   5.511  19.051  0.00  0.00    +0.000 A 
ENDBRANCH  20  27
ENDBRANCH   1  20
TORSDOF 3
ENDMDL
MODEL 5
REMARK VINA RESULT:      -7.5      3.418      9.053
REMARK  Name = 
REMARK  3 active torsions:
REMARK  status: ('A' for Active; 'I' for Inactive)
REMARK    1  A    between atoms: C_7  and  C_8
REMARK    2  A    between atoms: C_8  and  N_9
REMARK    3  A    between atoms: C_12  and  C_13
REMARK                            x       y       z     vdW  Elec       q    Type
REMARK                         _______ _______ _______ _____ _____    ______ ____
ROOT
ATOM      1  N   UNL     1       2.046   7.723  19.801  0.00  0.00    +0.000 NA
ATOM      2  C   UNL     1       1.990   8.057  18.377  0.00  0.00    +0.000 C 
ATOM      3  C   UNL     1       2.064   9.555  18.091  0.00  0.00    +0.000 C 
ATOM      4  C   UNL     1       1.066  10.366  18.912  0.00  0.00    +0.000 C 
ATOM      5  C   UNL     1       1.218  10.022  20.393  0.00  0.00    +0.000 C 
ATOM      6  C   UNL     1       1.166   8.517  20.660  0.00  0.00    +0.000 C 
ENDROOT
BRANCH   4   7
ATOM      7  C   UNL     1      -0.354  10.298  18.426  0.00  0.00    +0.000 A 
ATOM      8  N   UNL     1      -0.785   9.472  17.407  0.00  0.00    +0.000 NA
ATOM      9  N   UNL     1      -2.089   9.678  17.198  0.00  0.00    +0.000 NA
ATOM     10  N   UNL     1      -2.481  10.614  18.074  0.00  0.00    +0.000 N 
ATOM     11  C   UNL     1      -3.779  11.136  18.187  0.00  0.00    +0.000 A 
ATOM     12  N   UNL     1      -4.082  12.070  19.066  0.00  0.00    +0.000 NA
ATOM     13  C   UNL     1      -3.028  12.474  19.845  0.00  0.00    +0.000 A 
ATOM     14  N   UNL     1      -3.115  13.444  20.809  0.00  0.00    +0.000 N 
ATOM     15  C   UNL     1      -1.878  13.622  21.391  0.00  0.00    +0.000 A 
ATOM     16  C   UNL     1      -0.983  12.745  20.802  0.00  0.00    +0.000 A 
ATOM     17  C   UNL     1      -1.715  12.048  19.839  0.00  0.00    +0.000 A 
ATOM     18  C   UNL     1      -1.432  11.021  18.852  0.00  0.00    +0.000 A 
ATOM     19  H   UNL     1      -3.960  13.949  21.038  0.00  0.00    +0.000 HD
ENDBRANCH   4   7
BRANCH   1  20
ATOM     20  C   UNL     1       1.894   6.268  20.045  0.00  0.00    +0.000 C 
BRANCH  20  27
ATOM     21  F   UNL     1       4.713   5.880  19.802  0.00  0.00    +0.000 F 
ATOM     22  C   UNL     1       3.923   5.164  18.989  0.00  0.00    +0.000 A 
ATOM     23  C   UNL     1       4.521   4.272  18.101  0.00  0.00    +0.000 A 
ATOM     24  C   UNL     1       3.731   3.525  17.230  0.00  0.00    +0.000 A 
ATOM     25  C   UNL     1       2.347   3.680  17.252  0.00  0.00    +0.000 A 
ATOM     26  C   UNL     1       1.752   4.574  18.149  0.00  0.00    +0.000 A 
ATOM     27  C   UNL     1       2.534   5.322  19.046  0.00  0.00    +0.000 A 
ENDBRANCH  20  27
ENDBRANCH   1  20
TORSDOF 3
ENDMDL
MODEL 6
REMARK VINA RESULT:      -7.5      2.861      7.598
REMARK  Name = 
REMARK  3 active torsions:
REMARK  status: ('A' for Active; 'I' for Inactive)
REMARK    1  A    between atoms: C_7  and  C_8
REMARK    2  A    between atoms: C_8  and  N_9
REMARK    3  A    between atoms: C_12  and  C_13
REMARK                            x       y       z     vdW  Elec       q    Type
REMARK                         _______ _______ _______ _____ _____    ______ ____
ROOT
ATOM      1  N   UNL     1       4.402   4.609  18.633  0.00  0.00    +0.000 NA
ATOM      2  C   UNL     1       4.254   5.512  19.775  0.00  0.00    +0.000 C 
ATOM      3  C   UNL     1       2.809   5.702  20.230  0.00  0.00    +0.000 C 
ATOM      4  C   UNL     1       1.869   6.066  19.085  0.00  0.00    +0.000 C 
ATOM      5  C   UNL     1       2.022   5.051  17.952  0.00  0.00    +0.000 C 
ATOM      6  C   UNL     1       3.477   4.854  17.525  0.00  0.00    +0.000 C 
ENDROOT
BRANCH   4   7
ATOM      7  C   UNL     1       1.958   7.492  18.623  0.00  0.00    +0.000 A 
ATOM      8  N   UNL     1       2.571   7.890  17.451  0.00  0.00    +0.000 NA
ATOM      9  N   UNL     1       2.507   9.221  17.353  0.00  0.00    +0.000 NA
ATOM     10  N   UNL     1       1.860   9.662  18.442  0.00  0.00    +0.000 N 
ATOM     11  C   UNL     1       1.587  11.005  18.744  0.00  0.00    +0.000 A 
ATOM     12  N   UNL     1       0.957  11.359  19.846  0.00  0.00    +0.000 NA
ATOM     13  C   UNL     1       0.602  10.309  20.653  0.00  0.00    +0.000 A 
ATOM     14  N   UNL     1      -0.045  10.450  21.854  0.00  0.00    +0.000 N 
ATOM     15  C   UNL     1      -0.237   9.208  22.417  0.00  0.00    +0.000 A 
ATOM     16  C   UNL     1       0.281   8.250  21.562  0.00  0.00    +0.000 A 
ATOM     17  C   UNL     1       0.805   8.955  20.478  0.00  0.00    +0.000 A 
ATOM     18  C   UNL     1       1.504   8.618  19.251  0.00  0.00    +0.000 A 
ATOM     19  H   UNL     1      -0.322  11.336  22.254  0.00  0.00    +0.000 HD
ENDBRANCH   4   7
BRANCH   1  20
ATOM     20  C   UNL     1       5.807   4.510  18.171  0.00  0.00    +0.000 C 
BRANCH  20  27
ATOM     21  F   UNL     1       7.893   5.207  19.993  0.00  0.00    +0.000 F 
ATOM     22  C   UNL     1       7.630   6.072  19.002  0.00  0.00    +0.000 A 
ATOM     23  C   UNL     1       8.394   7.233  18.915  0.00  0.00    +0.000 A 
ATOM     24  C   UNL     1       8.137   8.160  17.908  0.00  0.00    +0.000 A 
ATOM     25  C   UNL     1       7.109   7.920  16.997  0.00  0.00    +0.000 A 
ATOM     26  C   UNL     1       6.347   6.750  17.088  0.00  0.00    +0.000 A 
ATOM     27  C   UNL     1       6.607   5.796  18.088  0.00  0.00    +0.000 A 
ENDBRANCH  20  27
ENDBRANCH   1  20
TORSDOF 3
ENDMDL
MODEL 7
REMARK VINA RESULT:      -7.5      3.956      9.111
REMARK  Name = 
REMARK  3 active torsions:
REMARK  status: ('A' for Active; 'I' for Inactive)
REMARK    1  A    between atoms: C_7  and  C_8
REMARK    2  A    between atoms: C_8  and  N_9
REMARK    3  A    between atoms: C_12  and  C_13
REMARK                            x       y       z     vdW  Elec       q    Type
REMARK                         _______ _______ _______ _____ _____    ______ ____
ROOT
ATOM      1  N   UNL     1       2.330   8.013  18.829  0.00  0.00    +0.000 NA
ATOM      2  C   UNL     1       2.238   9.038  17.789  0.00  0.00    +0.000 C 
ATOM      3  C   UNL     1       1.954  10.439  18.327  0.00  0.00    +0.000 C 
ATOM      4  C   UNL     1       0.763  10.478  19.279  0.00  0.00    +0.000 C 
ATOM      5  C   UNL     1       0.948   9.431  20.377  0.00  0.00    +0.000 C 
ATOM      6  C   UNL     1       1.257   8.040  19.824  0.00  0.00    +0.000 C 
ENDROOT
BRANCH   4   7
ATOM      7  C   UNL     1      -0.582  10.412  18.613  0.00  0.00    +0.000 A 
ATOM      8  N   UNL     1      -0.855   9.649  17.495  0.00  0.00    +0.000 NA
ATOM      9  N   UNL     1      -2.129   9.839  17.136  0.00  0.00    +0.000 NA
ATOM     10  N   UNL     1      -2.657  10.704  18.014  0.00  0.00    +0.000 N 
ATOM     11  C   UNL     1      -3.974  11.187  17.995  0.00  0.00    +0.000 A 
ATOM     12  N   UNL     1      -4.414  12.051  18.887  0.00  0.00    +0.000 NA
ATOM     13  C   UNL     1      -3.480  12.423  19.819  0.00  0.00    +0.000 A 
ATOM     14  N   UNL     1      -3.718  13.322  20.826  0.00  0.00    +0.000 N 
ATOM     15  C   UNL     1      -2.570  13.487  21.571  0.00  0.00    +0.000 A 
ATOM     16  C   UNL     1      -1.581  12.673  21.045  0.00  0.00    +0.000 A 
ATOM     17  C   UNL     1      -2.164  12.029  19.953  0.00  0.00    +0.000 A 
ATOM     18  C   UNL     1      -1.727  11.079  18.944  0.00  0.00    +0.000 A 
ATOM     19  H   UNL     1      -4.601  13.791  20.978  0.00  0.00    +0.000 HD
ENDBRANCH   4   7
BRANCH   1  20
ATOM     20  C   UNL     1       2.530   6.656  18.266  0.00  0.00    +0.000 C 
BRANCH  20  27
ATOM     21  F   UNL     1       0.999   4.430  17.339  0.00  0.00    +0.000 F 
ATOM     22  C   UNL     1       1.406   4.405  18.617  0.00  0.00    +0.000 A 
ATOM     23  C   UNL     1       1.075   3.299  19.397  0.00  0.00    +0.000 A 
ATOM     24  C   UNL     1       1.467   3.249  20.732  0.00  0.00    +0.000 A 
ATOM     25  C   UNL     1       2.184   4.311  21.280  0.00  0.00    +0.000 A 
ATOM     26  C   UNL     1       2.517   5.418  20.490  0.00  0.00    +0.000 A 
ATOM     27  C   UNL     1       2.143   5.475  19.136  0.00  0.00    +0.000 A 
ENDBRANCH  20  27
ENDBRANCH   1  20
TORSDOF 3
ENDMDL
MODEL 8
REMARK VINA RESULT:      -7.4      3.797      9.309
REMARK  Name = 
REMARK  3 active torsions:
REMARK  status: ('A' for Active; 'I' for Inactive)
REMARK    1  A    between atoms: C_7  and  C_8
REMARK    2  A    between atoms: C_8  and  N_9
REMARK    3  A    between atoms: C_12  and  C_13
REMARK                            x       y       z     vdW  Elec       q    Type
REMARK                         _______ _______ _______ _____ _____    ______ ____
ROOT
ATOM      1  N   UNL     1       1.642   8.150  19.039  0.00  0.00    +0.000 NA
ATOM      2  C   UNL     1       1.385   8.581  20.413  0.00  0.00    +0.000 C 
ATOM      3  C   UNL     1       0.052   9.303  20.594  0.00  0.00    +0.000 C 
ATOM      4  C   UNL     1      -0.153  10.432  19.589  0.00  0.00    +0.000 C 
ATOM      5  C   UNL     1       0.065   9.905  18.172  0.00  0.00    +0.000 C 
ATOM      6  C   UNL     1       1.393   9.164  18.012  0.00  0.00    +0.000 C 
ENDROOT
BRANCH   4   7
ATOM      7  C   UNL     1       0.617  11.688  19.884  0.00  0.00    +0.000 A 
ATOM      8  N   UNL     1       1.753  12.077  19.201  0.00  0.00    +0.000 NA
ATOM      9  N   UNL     1       2.212  13.216  19.729  0.00  0.00    +0.000 NA
ATOM     10  N   UNL     1       1.380  13.548  20.726  0.00  0.00    +0.000 N 
ATOM     11  C   UNL     1       1.504  14.673  21.555  0.00  0.00    +0.000 A 
ATOM     12  N   UNL     1       0.650  14.922  22.527  0.00  0.00    +0.000 NA
ATOM     13  C   UNL     1      -0.352  13.994  22.647  0.00  0.00    +0.000 A 
ATOM     14  N   UNL     1      -1.337  14.048  23.600  0.00  0.00    +0.000 N 
ATOM     15  C   UNL     1      -2.170  12.960  23.457  0.00  0.00    +0.000 A 
ATOM     16  C   UNL     1      -1.726  12.200  22.389  0.00  0.00    +0.000 A 
ATOM     17  C   UNL     1      -0.591  12.854  21.906  0.00  0.00    +0.000 A 
ATOM     18  C   UNL     1       0.379  12.624  20.850  0.00  0.00    +0.000 A 
ATOM     19  H   UNL     1      -1.418  14.774  24.298  0.00  0.00    +0.000 HD
ENDBRANCH   4   7
BRANCH   1  20
ATOM     20  C   UNL     1       2.977   7.523  18.886  0.00  0.00    +0.000 C 
BRANCH  20  27
ATOM     21  F   UNL     1       5.178   6.576  17.331  0.00  0.00    +0.000 F 
ATOM     22  C   UNL     1       4.149   5.735  17.514  0.00  0.00    +0.000 A 
ATOM     23  C   UNL     1       4.227   4.461  16.955  0.00  0.00    +0.000 A 
ATOM     24  C   UNL     1       3.170   3.568  17.111  0.00  0.00    +0.000 A 
ATOM     25  C   UNL     1       2.037   3.961  17.822  0.00  0.00    +0.000 A 
ATOM     26  C   UNL     1       1.966   5.240  18.384  0.00  0.00    +0.000 A 
ATOM     27  C   UNL     1       3.033   6.146  18.250  0.00  0.00    +0.000 A 
ENDBRANCH  20  27
ENDBRANCH   1  20
TORSDOF 3
ENDMDL
MODEL 9
REMARK VINA RESULT:      -7.3      3.726      9.462
REMARK  Name = 
REMARK  3 active torsions:
REMARK  status: ('A' for Active; 'I' for Inactive)
REMARK    1  A    between atoms: C_7  and  C_8
REMARK    2  A    between atoms: C_8  and  N_9
REMARK    3  A    between atoms: C_12  and  C_13
REMARK                            x       y       z     vdW  Elec       q    Type
REMARK                         _______ _______ _______ _____ _____    ______ ____
ROOT
ATOM      1  N   UNL     1       2.321   8.165  18.773  0.00  0.00    +0.000 NA
ATOM      2  C   UNL     1       2.168   9.153  17.704  0.00  0.00    +0.000 C 
ATOM      3  C   UNL     1       1.898  10.569  18.205  0.00  0.00    +0.000 C 
ATOM      4  C   UNL     1       0.757  10.634  19.215  0.00  0.00    +0.000 C 
ATOM      5  C   UNL     1       1.007   9.629  20.338  0.00  0.00    +0.000 C 
ATOM      6  C   UNL     1       1.299   8.221  19.820  0.00  0.00    +0.000 C 
ENDROOT
BRANCH   4   7
ATOM      7  C   UNL     1      -0.620  10.534  18.621  0.00  0.00    +0.000 A 
ATOM      8  N   UNL     1      -0.939   9.740  17.537  0.00  0.00    +0.000 NA
ATOM      9  N   UNL     1      -2.232   9.905  17.239  0.00  0.00    +0.000 NA
ATOM     10  N   UNL     1      -2.727  10.784  18.122  0.00  0.00    +0.000 N 
ATOM     11  C   UNL     1      -4.050  11.250  18.159  0.00  0.00    +0.000 A 
ATOM     12  N   UNL     1      -4.456  12.130  19.052  0.00  0.00    +0.000 NA
ATOM     13  C   UNL     1      -3.480  12.538  19.924  0.00  0.00    +0.000 A 
ATOM     14  N   UNL     1      -3.679  13.459  20.921  0.00  0.00    +0.000 N 
ATOM     15  C   UNL     1      -2.497  13.657  21.601  0.00  0.00    +0.000 A 
ATOM     16  C   UNL     1      -1.525  12.843  21.045  0.00  0.00    +0.000 A 
ATOM     17  C   UNL     1      -2.154  12.164  20.000  0.00  0.00    +0.000 A 
ATOM     18  C   UNL     1      -1.756  11.195  18.994  0.00  0.00    +0.000 A 
ATOM     19  H   UNL     1      -4.559  13.920  21.106  0.00  0.00    +0.000 HD
ENDBRANCH   4   7
BRANCH   1  20
ATOM     20  C   UNL     1       2.505   6.791  18.249  0.00  0.00    +0.000 C 
BRANCH  20  27
ATOM     21  F   UNL     1       4.334   7.166  16.088  0.00  0.00    +0.000 F 
ATOM     22  C   UNL     1       4.770   6.468  17.147  0.00  0.00    +0.000 A 
ATOM     23  C   UNL     1       6.079   5.991  17.132  0.00  0.00    +0.000 A 
ATOM     24  C   UNL     1       6.559   5.248  18.208  0.00  0.00    +0.000 A 
ATOM     25  C   UNL     1       5.721   4.982  19.290  0.00  0.00    +0.000 A 
ATOM     26  C   UNL     1       4.409   5.467  19.300  0.00  0.00    +0.000 A 
ATOM     27  C   UNL     1       3.916   6.234  18.229  0.00  0.00    +0.000 A 
ENDBRANCH  20  27
ENDBRANCH   1  20
TORSDOF 3
ENDMDL
