MODEL 1
REMARK VINA RESULT:      -7.4      0.000      0.000
REMARK  Name = 
REMARK  12 active torsions:
REMARK  status: ('A' for Active; 'I' for Inactive)
REMARK    1  A    between atoms: C_1  and  C_2
REMARK    2  A    between atoms: C_2  and  C_3
REMARK    3  A    between atoms: C_7  and  C_8
REMARK    4  A    between atoms: C_8  and  C_22
REMARK    5  A    between atoms: N_9  and  O_10
REMARK    6  A    between atoms: O_10  and  C_11
REMARK    7  A    between atoms: C_11  and  C_12
REMARK    8  A    between atoms: C_12  and  N_13
REMARK    9  A    between atoms: C_17  and  C_18
REMARK   10  A    between atoms: C_18  and  O_20
REMARK   11  A    between atoms: C_26  and  C_27
REMARK   12  A    between atoms: C_27  and  C_28
REMARK                            x       y       z     vdW  Elec       q    Type
REMARK                         _______ _______ _______ _____ _____    ______ ____
ROOT
ATOM      1  C   UNL     1       3.771   5.918  18.106  0.00  0.00    +0.000 C 
ATOM      2  N   UNL     1       3.491   7.090  17.595  0.00  0.00    +0.000 NA
ENDROOT
BRANCH   1   7
ATOM      3  C   UNL     1       2.334   3.759  18.646  0.00  0.00    +0.000 A 
ATOM      4  C   UNL     1       1.520   3.309  19.752  0.00  0.00    +0.000 A 
ATOM      5  C   UNL     1       1.374   4.247  20.733  0.00  0.00    +0.000 A 
ATOM      6  S   UNL     1       2.163   5.696  20.338  0.00  0.00    +0.000 S 
ATOM      7  C   UNL     1       2.848   5.044  18.874  0.00  0.00    +0.000 A 
BRANCH   3   9
ATOM      8  C   UNL     1       3.575   1.772  17.780  0.00  0.00    +0.000 C 
ATOM      9  C   UNL     1       2.529   2.846  17.463  0.00  0.00    +0.000 C 
ENDBRANCH   3   9
ENDBRANCH   1   7
BRANCH   1  10
ATOM     10  C   UNL     1       5.163   5.464  17.892  0.00  0.00    +0.000 A 
ATOM     11  S   UNL     1       6.278   5.433  19.212  0.00  0.00    +0.000 S 
ATOM     12  C   UNL     1       7.554   4.871  18.235  0.00  0.00    +0.000 A 
ATOM     13  C   UNL     1       7.135   4.599  16.957  0.00  0.00    +0.000 A 
ATOM     14  C   UNL     1       5.754   4.941  16.734  0.00  0.00    +0.000 A 
BRANCH  14  15
ATOM     15  C   UNL     1       5.116   4.780  15.375  0.00  0.00    +0.000 C 
ATOM     16  C   UNL     1       5.964   3.991  14.390  0.00  0.00    +0.000 C 
ENDBRANCH  14  15
ENDBRANCH   1  10
BRANCH   2  17
ATOM     17  O   UNL     1       2.219   7.573  17.880  0.00  0.00    +0.000 OA
BRANCH  17  18
ATOM     18  C   UNL     1       2.293   9.004  17.991  0.00  0.00    +0.000 C 
BRANCH  18  19
ATOM     19  C   UNL     1       0.865   9.559  17.902  0.00  0.00    +0.000 C 
BRANCH  19  20
ATOM     20  N   UNL     1       0.487  10.609  18.877  0.00  0.00    +0.000 NA
ATOM     21  C   UNL     1      -0.790  11.240  18.514  0.00  0.00    +0.000 C 
ATOM     22  C   UNL     1      -1.176  12.312  19.534  0.00  0.00    +0.000 C 
ATOM     23  C   UNL     1      -1.263  11.743  20.946  0.00  0.00    +0.000 C 
ATOM     24  C   UNL     1       0.019  10.996  21.318  0.00  0.00    +0.000 C 
ATOM     25  C   UNL     1       0.392   9.987  20.219  0.00  0.00    +0.000 C 
BRANCH  24  26
ATOM     26  C   UNL     1      -0.144  10.258  22.638  0.00  0.00    +0.000 C 
ATOM     27  O   UNL     1      -1.154  10.269  23.324  0.00  0.00    +0.000 OA
BRANCH  26  28
ATOM     28  O   UNL     1       0.948   9.545  22.997  0.00  0.00    +0.000 OA
ATOM     29  H   UNL     1       1.721  10.087  23.239  0.00  0.00    +0.000 HD
ENDBRANCH  26  28
ENDBRANCH  24  26
ENDBRANCH  19  20
ENDBRANCH  18  19
ENDBRANCH  17  18
ENDBRANCH   2  17
TORSDOF 10
ENDMDL
MODEL 2
REMARK VINA RESULT:      -7.3      2.021      2.620
REMARK  Name = 
REMARK  12 active torsions:
REMARK  status: ('A' for Active; 'I' for Inactive)
REMARK    1  A    between atoms: C_1  and  C_2
REMARK    2  A    between atoms: C_2  and  C_3
REMARK    3  A    between atoms: C_7  and  C_8
REMARK    4  A    between atoms: C_8  and  C_22
REMARK    5  A    between atoms: N_9  and  O_10
REMARK    6  A    between atoms: O_10  and  C_11
REMARK    7  A    between atoms: C_11  and  C_12
REMARK    8  A    between atoms: C_12  and  N_13
REMARK    9  A    between atoms: C_17  and  C_18
REMARK   10  A    between atoms: C_18  and  O_20
REMARK   11  A    between atoms: C_26  and  C_27
REMARK   12  A    between atoms: C_27  and  C_28
REMARK                            x       y       z     vdW  Elec       q    Type
REMARK                         _______ _______ _______ _____ _____    ______ ____
ROOT
ATOM      1  C   UNL     1       3.743   5.648  18.244  0.00  0.00    +0.000 C 
ATOM      2  N   UNL     1       3.364   6.785  17.717  0.00  0.00    +0.000 NA
ENDROOT
BRANCH   1   7
ATOM      3  C   UNL     1       2.418   3.441  18.866  0.00  0.00    +0.000 A 
ATOM      4  C   UNL     1       1.713   2.950  20.029  0.00  0.00    +0.000 A 
ATOM      5  C   UNL     1       1.624   3.870  21.034  0.00  0.00    +0.000 A 
ATOM      6  S   UNL     1       2.336   5.347  20.599  0.00  0.00    +0.000 S 
ATOM      7  C   UNL     1       2.913   4.736  19.072  0.00  0.00    +0.000 A 
BRANCH   3   9
ATOM      8  C   UNL     1       3.634   1.501  17.867  0.00  0.00    +0.000 C 
ATOM      9  C   UNL     1       2.538   2.551  17.656  0.00  0.00    +0.000 C 
ENDBRANCH   3   9
ENDBRANCH   1   7
BRANCH   1  10
ATOM     10  C   UNL     1       5.152   5.282  17.981  0.00  0.00    +0.000 A 
ATOM     11  S   UNL     1       6.342   5.468  19.220  0.00  0.00    +0.000 S 
ATOM     12  C   UNL     1       7.600   4.909  18.218  0.00  0.00    +0.000 A 
ATOM     13  C   UNL     1       7.129   4.478  17.002  0.00  0.00    +0.000 A 
ATOM     14  C   UNL     1       5.713   4.690  16.841  0.00  0.00    +0.000 A 
BRANCH  14  15
ATOM     15  C   UNL     1       5.011   4.345  15.550  0.00  0.00    +0.000 C 
ATOM     16  C   UNL     1       5.956   4.126  14.378  0.00  0.00    +0.000 C 
ENDBRANCH  14  15
ENDBRANCH   1  10
BRANCH   2  17
ATOM     17  O   UNL     1       2.076   7.191  18.045  0.00  0.00    +0.000 OA
BRANCH  17  18
ATOM     18  C   UNL     1       2.149   8.497  18.641  0.00  0.00    +0.000 C 
BRANCH  18  19
ATOM     19  C   UNL     1       1.217   9.429  17.855  0.00  0.00    +0.000 C 
BRANCH  19  20
ATOM     20  N   UNL     1       0.032   9.956  18.570  0.00  0.00    +0.000 NA
ATOM     21  C   UNL     1       0.355  11.192  19.300  0.00  0.00    +0.000 C 
ATOM     22  C   UNL     1      -0.879  11.734  20.023  0.00  0.00    +0.000 C 
ATOM     23  C   UNL     1      -2.031  11.990  19.058  0.00  0.00    +0.000 C 
ATOM     24  C   UNL     1      -2.329  10.748  18.215  0.00  0.00    +0.000 C 
ATOM     25  C   UNL     1      -1.038  10.210  17.576  0.00  0.00    +0.000 C 
BRANCH  24  26
ATOM     26  C   UNL     1      -3.335  11.062  17.119  0.00  0.00    +0.000 C 
ATOM     27  O   UNL     1      -4.540  10.886  17.204  0.00  0.00    +0.000 OA
BRANCH  26  28
ATOM     28  O   UNL     1      -2.774  11.592  16.008  0.00  0.00    +0.000 OA
ATOM     29  H   UNL     1      -2.040  12.209  16.182  0.00  0.00    +0.000 HD
ENDBRANCH  26  28
ENDBRANCH  24  26
ENDBRANCH  19  20
ENDBRANCH  18  19
ENDBRANCH  17  18
ENDBRANCH   2  17
TORSDOF 10
ENDMDL
MODEL 3
REMARK VINA RESULT:      -7.2      0.762      3.519
REMARK  Name = 
REMARK  12 active torsions:
REMARK  status: ('A' for Active; 'I' for Inactive)
REMARK    1  A    between atoms: C_1  and  C_2
REMARK    2  A    between atoms: C_2  and  C_3
REMARK    3  A    between atoms: C_7  and  C_8
REMARK    4  A    between atoms: C_8  and  C_22
REMARK    5  A    between atoms: N_9  and  O_10
REMARK    6  A    between atoms: O_10  and  C_11
REMARK    7  A    between atoms: C_11  and  C_12
REMARK    8  A    between atoms: C_12  and  N_13
REMARK    9  A    between atoms: C_17  and  C_18
REMARK   10  A    between atoms: C_18  and  O_20
REMARK   11  A    between atoms: C_26  and  C_27
REMARK   12  A    between atoms: C_27  and  C_28
REMARK                            x       y       z     vdW  Elec       q    Type
REMARK                         _______ _______ _______ _____ _____    ______ ____
ROOT
ATOM      1  C   UNL     1       3.430   5.430  18.525  0.00  0.00    +0.000 C 
ATOM      2  N   UNL     1       2.689   6.465  18.218  0.00  0.00    +0.000 NA
ENDROOT
BRANCH   1   7
ATOM      3  C   UNL     1       5.442   4.849  16.904  0.00  0.00    +0.000 A 
ATOM      4  C   UNL     1       6.884   4.823  17.011  0.00  0.00    +0.000 A 
ATOM      5  C   UNL     1       7.335   5.075  18.274  0.00  0.00    +0.000 A 
ATOM      6  S   UNL     1       6.056   5.302  19.365  0.00  0.00    +0.000 S 
ATOM      7  C   UNL     1       4.841   5.201  18.121  0.00  0.00    +0.000 A 
BRANCH   3   9
ATOM      8  C   UNL     1       5.842   3.963  14.602  0.00  0.00    +0.000 C 
ATOM      9  C   UNL     1       4.803   4.527  15.577  0.00  0.00    +0.000 C 
ENDBRANCH   3   9
ENDBRANCH   1   7
BRANCH   1  10
ATOM     10  C   UNL     1       2.750   4.400  19.340  0.00  0.00    +0.000 A 
ATOM     11  S   UNL     1       2.171   4.787  20.922  0.00  0.00    +0.000 S 
ATOM     12  C   UNL     1       1.592   3.209  21.192  0.00  0.00    +0.000 A 
ATOM     13  C   UNL     1       1.724   2.420  20.076  0.00  0.00    +0.000 A 
ATOM     14  C   UNL     1       2.398   3.088  18.992  0.00  0.00    +0.000 A 
BRANCH  14  15
ATOM     15  C   UNL     1       2.701   2.373  17.698  0.00  0.00    +0.000 C 
ATOM     16  C   UNL     1       3.904   1.447  17.777  0.00  0.00    +0.000 C 
ENDBRANCH  14  15
ENDBRANCH   1  10
BRANCH   2  17
ATOM     17  O   UNL     1       3.283   7.388  17.366  0.00  0.00    +0.000 OA
BRANCH  17  18
ATOM     18  C   UNL     1       2.901   8.707  17.790  0.00  0.00    +0.000 C 
BRANCH  18  19
ATOM     19  C   UNL     1       1.607   8.586  18.605  0.00  0.00    +0.000 C 
BRANCH  19  20
ATOM     20  N   UNL     1       1.075   9.826  19.215  0.00  0.00    +0.000 NA
ATOM     21  C   UNL     1      -0.109  10.313  18.492  0.00  0.00    +0.000 C 
ATOM     22  C   UNL     1      -0.656  11.586  19.139  0.00  0.00    +0.000 C 
ATOM     23  C   UNL     1      -1.001  11.369  20.608  0.00  0.00    +0.000 C 
ATOM     24  C   UNL     1       0.184  10.772  21.369  0.00  0.00    +0.000 C 
ATOM     25  C   UNL     1       0.734   9.541  20.629  0.00  0.00    +0.000 C 
BRANCH  24  26
ATOM     26  C   UNL     1      -0.221  10.368  22.778  0.00  0.00    +0.000 C 
ATOM     27  O   UNL     1       0.464   9.701  23.538  0.00  0.00    +0.000 OA
BRANCH  26  28
ATOM     28  O   UNL     1      -1.435  10.838  23.147  0.00  0.00    +0.000 OA
ATOM     29  H   UNL     1      -1.681  10.636  24.068  0.00  0.00    +0.000 HD
ENDBRANCH  26  28
ENDBRANCH  24  26
ENDBRANCH  19  20
ENDBRANCH  18  19
ENDBRANCH  17  18
ENDBRANCH   2  17
TORSDOF 10
ENDMDL
MODEL 4
REMARK VINA RESULT:      -7.2      1.780      2.186
REMARK  Name = 
REMARK  12 active torsions:
REMARK  status: ('A' for Active; 'I' for Inactive)
REMARK    1  A    between atoms: C_1  and  C_2
REMARK    2  A    between atoms: C_2  and  C_3
REMARK    3  A    between atoms: C_7  and  C_8
REMARK    4  A    between atoms: C_8  and  C_22
REMARK    5  A    between atoms: N_9  and  O_10
REMARK    6  A    between atoms: O_10  and  C_11
REMARK    7  A    between atoms: C_11  and  C_12
REMARK    8  A    between atoms: C_12  and  N_13
REMARK    9  A    between atoms: C_17  and  C_18
REMARK   10  A    between atoms: C_18  and  O_20
REMARK   11  A    between atoms: C_26  and  C_27
REMARK   12  A    between atoms: C_27  and  C_28
REMARK                            x       y       z     vdW  Elec       q    Type
REMARK                         _______ _______ _______ _____ _____    ______ ____
ROOT
ATOM      1  C   UNL     1       3.724   5.910  18.063  0.00  0.00    +0.000 C 
ATOM      2  N   UNL     1       3.435   7.065  17.519  0.00  0.00    +0.000 NA
ENDROOT
BRANCH   1   7
ATOM      3  C   UNL     1       2.282   3.761  18.626  0.00  0.00    +0.000 A 
ATOM      4  C   UNL     1       1.474   3.320  19.740  0.00  0.00    +0.000 A 
ATOM      5  C   UNL     1       1.340   4.264  20.717  0.00  0.00    +0.000 A 
ATOM      6  S   UNL     1       2.132   5.707  20.308  0.00  0.00    +0.000 S 
ATOM      7  C   UNL     1       2.803   5.045  18.843  0.00  0.00    +0.000 A 
BRANCH   3   9
ATOM      8  C   UNL     1       3.507   1.763  17.761  0.00  0.00    +0.000 C 
ATOM      9  C   UNL     1       2.464   2.841  17.446  0.00  0.00    +0.000 C 
ENDBRANCH   3   9
ENDBRANCH   1   7
BRANCH   1  10
ATOM     10  C   UNL     1       5.124   5.470  17.878  0.00  0.00    +0.000 A 
ATOM     11  S   UNL     1       6.234   5.528  19.202  0.00  0.00    +0.000 S 
ATOM     12  C   UNL     1       7.524   4.938  18.260  0.00  0.00    +0.000 A 
ATOM     13  C   UNL     1       7.115   4.591  16.997  0.00  0.00    +0.000 A 
ATOM     14  C   UNL     1       5.728   4.896  16.751  0.00  0.00    +0.000 A 
BRANCH  14  15
ATOM     15  C   UNL     1       5.099   4.652  15.401  0.00  0.00    +0.000 C 
ATOM     16  C   UNL     1       6.030   3.980  14.403  0.00  0.00    +0.000 C 
ENDBRANCH  14  15
ENDBRANCH   1  10
BRANCH   2  17
ATOM     17  O   UNL     1       2.154   7.539  17.775  0.00  0.00    +0.000 OA
BRANCH  17  18
ATOM     18  C   UNL     1       2.242   8.939  18.084  0.00  0.00    +0.000 C 
BRANCH  18  19
ATOM     19  C   UNL     1       1.330   9.217  19.286  0.00  0.00    +0.000 C 
BRANCH  19  20
ATOM     20  N   UNL     1       0.779  10.586  19.414  0.00  0.00    +0.000 NA
ATOM     21  C   UNL     1       1.476  11.527  18.525  0.00  0.00    +0.000 C 
ATOM     22  C   UNL     1       0.891  12.934  18.656  0.00  0.00    +0.000 C 
ATOM     23  C   UNL     1      -0.605  12.953  18.358  0.00  0.00    +0.000 C 
ATOM     24  C   UNL     1      -1.347  11.914  19.202  0.00  0.00    +0.000 C 
ATOM     25  C   UNL     1      -0.665  10.540  19.085  0.00  0.00    +0.000 C 
BRANCH  24  26
ATOM     26  C   UNL     1      -2.797  11.791  18.762  0.00  0.00    +0.000 C 
ATOM     27  O   UNL     1      -3.226  10.940  17.998  0.00  0.00    +0.000 OA
BRANCH  26  28
ATOM     28  O   UNL     1      -3.611  12.716  19.318  0.00  0.00    +0.000 OA
ATOM     29  H   UNL     1      -3.363  13.639  19.125  0.00  0.00    +0.000 HD
ENDBRANCH  26  28
ENDBRANCH  24  26
ENDBRANCH  19  20
ENDBRANCH  18  19
ENDBRANCH  17  18
ENDBRANCH   2  17
TORSDOF 10
ENDMDL
MODEL 5
REMARK VINA RESULT:      -7.0      2.253      2.997
REMARK  Name = 
REMARK  12 active torsions:
REMARK  status: ('A' for Active; 'I' for Inactive)
REMARK    1  A    between atoms: C_1  and  C_2
REMARK    2  A    between atoms: C_2  and  C_3
REMARK    3  A    between atoms: C_7  and  C_8
REMARK    4  A    between atoms: C_8  and  C_22
REMARK    5  A    between atoms: N_9  and  O_10
REMARK    6  A    between atoms: O_10  and  C_11
REMARK    7  A    between atoms: C_11  and  C_12
REMARK    8  A    between atoms: C_12  and  N_13
REMARK    9  A    between atoms: C_17  and  C_18
REMARK   10  A    between atoms: C_18  and  O_20
REMARK   11  A    between atoms: C_26  and  C_27
REMARK   12  A    between atoms: C_27  and  C_28
REMARK                            x       y       z     vdW  Elec       q    Type
REMARK                         _______ _______ _______ _____ _____    ______ ____
ROOT
ATOM      1  C   UNL     1       3.760   5.728  17.866  0.00  0.00    +0.000 C 
ATOM      2  N   UNL     1       3.463   6.964  17.554  0.00  0.00    +0.000 NA
ENDROOT
BRANCH   1   7
ATOM      3  C   UNL     1       2.203   4.494  19.617  0.00  0.00    +0.000 A 
ATOM      4  C   UNL     1       1.303   3.363  19.585  0.00  0.00    +0.000 A 
ATOM      5  C   UNL     1       1.307   2.704  18.390  0.00  0.00    +0.000 A 
ATOM      6  S   UNL     1       2.412   3.387  17.299  0.00  0.00    +0.000 S 
ATOM      7  C   UNL     1       2.824   4.694  18.376  0.00  0.00    +0.000 A 
BRANCH   3   9
ATOM      8  C   UNL     1       1.222   6.313  21.021  0.00  0.00    +0.000 C 
ATOM      9  C   UNL     1       2.345   5.278  20.897  0.00  0.00    +0.000 C 
ENDBRANCH   3   9
ENDBRANCH   1   7
BRANCH   1  10
ATOM     10  C   UNL     1       5.186   5.372  17.699  0.00  0.00    +0.000 A 
ATOM     11  S   UNL     1       6.248   5.382  19.062  0.00  0.00    +0.000 S 
ATOM     12  C   UNL     1       7.597   4.930  18.126  0.00  0.00    +0.000 A 
ATOM     13  C   UNL     1       7.247   4.661  16.827  0.00  0.00    +0.000 A 
ATOM     14  C   UNL     1       5.855   4.916  16.555  0.00  0.00    +0.000 A 
BRANCH  14  15
ATOM     15  C   UNL     1       5.284   4.746  15.168  0.00  0.00    +0.000 C 
ATOM     16  C   UNL     1       6.259   4.134  14.174  0.00  0.00    +0.000 C 
ENDBRANCH  14  15
ENDBRANCH   1  10
BRANCH   2  17
ATOM     17  O   UNL     1       2.149   7.340  17.806  0.00  0.00    +0.000 OA
BRANCH  17  18
ATOM     18  C   UNL     1       2.091   8.775  17.860  0.00  0.00    +0.000 C 
BRANCH  18  19
ATOM     19  C   UNL     1       1.483   9.173  19.212  0.00  0.00    +0.000 C 
BRANCH  19  20
ATOM     20  N   UNL     1       0.691  10.424  19.253  0.00  0.00    +0.000 NA
ATOM     21  C   UNL     1       1.499  11.582  18.843  0.00  0.00    +0.000 C 
ATOM     22  C   UNL     1       0.667  12.865  18.878  0.00  0.00    +0.000 C 
ATOM     23  C   UNL     1      -0.570  12.759  17.993  0.00  0.00    +0.000 C 
ATOM     24  C   UNL     1      -1.384  11.509  18.333  0.00  0.00    +0.000 C 
ATOM     25  C   UNL     1      -0.477  10.267  18.354  0.00  0.00    +0.000 C 
BRANCH  24  26
ATOM     26  C   UNL     1      -2.500  11.294  17.322  0.00  0.00    +0.000 C 
ATOM     27  O   UNL     1      -3.661  11.638  17.480  0.00  0.00    +0.000 OA
BRANCH  26  28
ATOM     28  O   UNL     1      -2.089  10.690  16.184  0.00  0.00    +0.000 OA
ATOM     29  H   UNL     1      -2.293  11.185  15.370  0.00  0.00    +0.000 HD
ENDBRANCH  26  28
ENDBRANCH  24  26
ENDBRANCH  19  20
ENDBRANCH  18  19
ENDBRANCH  17  18
ENDBRANCH   2  17
TORSDOF 10
ENDMDL
MODEL 6
REMARK VINA RESULT:      -7.0      1.259      3.960
REMARK  Name = 
REMARK  12 active torsions:
REMARK  status: ('A' for Active; 'I' for Inactive)
REMARK    1  A    between atoms: C_1  and  C_2
REMARK    2  A    between atoms: C_2  and  C_3
REMARK    3  A    between atoms: C_7  and  C_8
REMARK    4  A    between atoms: C_8  and  C_22
REMARK    5  A    between atoms: N_9  and  O_10
REMARK    6  A    between atoms: O_10  and  C_11
REMARK    7  A    between atoms: C_11  and  C_12
REMARK    8  A    between atoms: C_12  and  N_13
REMARK    9  A    between atoms: C_17  and  C_18
REMARK   10  A    between atoms: C_18  and  O_20
REMARK   11  A    between atoms: C_26  and  C_27
REMARK   12  A    between atoms: C_27  and  C_28
REMARK                            x       y       z     vdW  Elec       q    Type
REMARK                         _______ _______ _______ _____ _____    ______ ____
ROOT
ATOM      1  C   UNL     1       3.570   5.155  18.030  0.00  0.00    +0.000 C 
ATOM      2  N   UNL     1       2.859   6.228  17.794  0.00  0.00    +0.000 NA
ENDROOT
BRANCH   1   7
ATOM      3  C   UNL     1       5.762   4.594  16.654  0.00  0.00    +0.000 A 
ATOM      4  C   UNL     1       7.185   4.659  16.903  0.00  0.00    +0.000 A 
ATOM      5  C   UNL     1       7.493   5.012  18.184  0.00  0.00    +0.000 A 
ATOM      6  S   UNL     1       6.100   5.230  19.128  0.00  0.00    +0.000 S 
ATOM      7  C   UNL     1       5.024   4.983  17.781  0.00  0.00    +0.000 A 
BRANCH   3   9
ATOM      8  C   UNL     1       6.416   4.221  14.272  0.00  0.00    +0.000 C 
ATOM      9  C   UNL     1       5.277   4.156  15.296  0.00  0.00    +0.000 C 
ENDBRANCH   3   9
ENDBRANCH   1   7
BRANCH   1  10
ATOM     10  C   UNL     1       2.806   4.014  18.581  0.00  0.00    +0.000 A 
ATOM     11  S   UNL     1       2.515   2.614  17.610  0.00  0.00    +0.000 S 
ATOM     12  C   UNL     1       1.629   1.838  18.839  0.00  0.00    +0.000 A 
ATOM     13  C   UNL     1       1.638   2.559  20.007  0.00  0.00    +0.000 A 
ATOM     14  C   UNL     1       2.310   3.827  19.879  0.00  0.00    +0.000 A 
BRANCH  14  15
ATOM     15  C   UNL     1       2.374   4.800  21.032  0.00  0.00    +0.000 C 
ATOM     16  C   UNL     1       1.411   5.969  20.901  0.00  0.00    +0.000 C 
ENDBRANCH  14  15
ENDBRANCH   1  10
BRANCH   2  17
ATOM     17  O   UNL     1       3.543   7.270  17.178  0.00  0.00    +0.000 OA
BRANCH  17  18
ATOM     18  C   UNL     1       3.197   8.496  17.844  0.00  0.00    +0.000 C 
BRANCH  18  19
ATOM     19  C   UNL     1       1.691   8.467  18.135  0.00  0.00    +0.000 C 
BRANCH  19  20
ATOM     20  N   UNL     1       1.096   9.685  18.730  0.00  0.00    +0.000 NA
ATOM     21  C   UNL     1      -0.094  10.118  17.982  0.00  0.00    +0.000 C 
ATOM     22  C   UNL     1      -0.708  11.369  18.612  0.00  0.00    +0.000 C 
ATOM     23  C   UNL     1      -1.071  11.143  20.075  0.00  0.00    +0.000 C 
ATOM     24  C   UNL     1       0.124  10.601  20.862  0.00  0.00    +0.000 C 
ATOM     25  C   UNL     1       0.740   9.392  20.138  0.00  0.00    +0.000 C 
BRANCH  24  26
ATOM     26  C   UNL     1      -0.290  10.186  22.264  0.00  0.00    +0.000 C 
ATOM     27  O   UNL     1      -0.461   9.033  22.630  0.00  0.00    +0.000 OA
BRANCH  26  28
ATOM     28  O   UNL     1      -0.438  11.227  23.115  0.00  0.00    +0.000 OA
ATOM     29  H   UNL     1       0.193  11.233  23.858  0.00  0.00    +0.000 HD
ENDBRANCH  26  28
ENDBRANCH  24  26
ENDBRANCH  19  20
ENDBRANCH  18  19
ENDBRANCH  17  18
ENDBRANCH   2  17
TORSDOF 10
ENDMDL
MODEL 7
REMARK VINA RESULT:      -7.0      2.121      4.193
REMARK  Name = 
REMARK  12 active torsions:
REMARK  status: ('A' for Active; 'I' for Inactive)
REMARK    1  A    between atoms: C_1  and  C_2
REMARK    2  A    between atoms: C_2  and  C_3
REMARK    3  A    between atoms: C_7  and  C_8
REMARK    4  A    between atoms: C_8  and  C_22
REMARK    5  A    between atoms: N_9  and  O_10
REMARK    6  A    between atoms: O_10  and  C_11
REMARK    7  A    between atoms: C_11  and  C_12
REMARK    8  A    between atoms: C_12  and  N_13
REMARK    9  A    between atoms: C_17  and  C_18
REMARK   10  A    between atoms: C_18  and  O_20
REMARK   11  A    between atoms: C_26  and  C_27
REMARK   12  A    between atoms: C_27  and  C_28
REMARK                            x       y       z     vdW  Elec       q    Type
REMARK                         _______ _______ _______ _____ _____    ______ ____
ROOT
ATOM      1  C   UNL     1       3.367   5.577  18.496  0.00  0.00    +0.000 C 
ATOM      2  N   UNL     1       2.704   6.670  18.219  0.00  0.00    +0.000 NA
ENDROOT
BRANCH   1   7
ATOM      3  C   UNL     1       5.347   4.866  16.887  0.00  0.00    +0.000 A 
ATOM      4  C   UNL     1       6.784   4.759  17.000  0.00  0.00    +0.000 A 
ATOM      5  C   UNL     1       7.246   4.997  18.262  0.00  0.00    +0.000 A 
ATOM      6  S   UNL     1       5.978   5.307  19.346  0.00  0.00    +0.000 S 
ATOM      7  C   UNL     1       4.763   5.263  18.099  0.00  0.00    +0.000 A 
BRANCH   3   9
ATOM      8  C   UNL     1       5.739   4.111  14.538  0.00  0.00    +0.000 C 
ATOM      9  C   UNL     1       4.694   4.568  15.562  0.00  0.00    +0.000 C 
ENDBRANCH   3   9
ENDBRANCH   1   7
BRANCH   1  10
ATOM     10  C   UNL     1       2.606   4.568  19.266  0.00  0.00    +0.000 A 
ATOM     11  S   UNL     1       1.962   4.967  20.820  0.00  0.00    +0.000 S 
ATOM     12  C   UNL     1       1.309   3.411  21.046  0.00  0.00    +0.000 A 
ATOM     13  C   UNL     1       1.467   2.626  19.932  0.00  0.00    +0.000 A 
ATOM     14  C   UNL     1       2.221   3.274  18.889  0.00  0.00    +0.000 A 
BRANCH  14  15
ATOM     15  C   UNL     1       2.562   2.556  17.606  0.00  0.00    +0.000 C 
ATOM     16  C   UNL     1       3.724   1.584  17.738  0.00  0.00    +0.000 C 
ENDBRANCH  14  15
ENDBRANCH   1  10
BRANCH   2  17
ATOM     17  O   UNL     1       3.371   7.580  17.406  0.00  0.00    +0.000 OA
BRANCH  17  18
ATOM     18  C   UNL     1       2.837   8.890  17.658  0.00  0.00    +0.000 C 
BRANCH  18  19
ATOM     19  C   UNL     1       1.499   8.722  18.391  0.00  0.00    +0.000 C 
BRANCH  19  20
ATOM     20  N   UNL     1       0.818   9.957  18.842  0.00  0.00    +0.000 NA
ATOM     21  C   UNL     1       1.659  11.143  18.620  0.00  0.00    +0.000 C 
ATOM     22  C   UNL     1       0.941  12.413  19.078  0.00  0.00    +0.000 C 
ATOM     23  C   UNL     1      -0.399  12.590  18.371  0.00  0.00    +0.000 C 
ATOM     24  C   UNL     1      -1.261  11.332  18.504  0.00  0.00    +0.000 C 
ATOM     25  C   UNL     1      -0.458  10.085  18.100  0.00  0.00    +0.000 C 
BRANCH  24  26
ATOM     26  C   UNL     1      -2.504  11.430  17.634  0.00  0.00    +0.000 C 
ATOM     27  O   UNL     1      -3.652  11.344  18.042  0.00  0.00    +0.000 OA
BRANCH  26  28
ATOM     28  O   UNL     1      -2.232  11.649  16.327  0.00  0.00    +0.000 OA
ATOM     29  H   UNL     1      -3.014  11.851  15.781  0.00  0.00    +0.000 HD
ENDBRANCH  26  28
ENDBRANCH  24  26
ENDBRANCH  19  20
ENDBRANCH  18  19
ENDBRANCH  17  18
ENDBRANCH   2  17
TORSDOF 10
ENDMDL
MODEL 8
REMARK VINA RESULT:      -7.0      1.292      1.726
REMARK  Name = 
REMARK  12 active torsions:
REMARK  status: ('A' for Active; 'I' for Inactive)
REMARK    1  A    between atoms: C_1  and  C_2
REMARK    2  A    between atoms: C_2  and  C_3
REMARK    3  A    between atoms: C_7  and  C_8
REMARK    4  A    between atoms: C_8  and  C_22
REMARK    5  A    between atoms: N_9  and  O_10
REMARK    6  A    between atoms: O_10  and  C_11
REMARK    7  A    between atoms: C_11  and  C_12
REMARK    8  A    between atoms: C_12  and  N_13
REMARK    9  A    between atoms: C_17  and  C_18
REMARK   10  A    between atoms: C_18  and  O_20
REMARK   11  A    between atoms: C_26  and  C_27
REMARK   12  A    between atoms: C_27  and  C_28
REMARK                            x       y       z     vdW  Elec       q    Type
REMARK                         _______ _______ _______ _____ _____    ______ ____
ROOT
ATOM      1  C   UNL     1       3.758   5.939  18.033  0.00  0.00    +0.000 C 
ATOM      2  N   UNL     1       3.487   7.107  17.508  0.00  0.00    +0.000 NA
ENDROOT
BRANCH   1   7
ATOM      3  C   UNL     1       2.292   3.801  18.577  0.00  0.00    +0.000 A 
ATOM      4  C   UNL     1       1.477   3.361  19.686  0.00  0.00    +0.000 A 
ATOM      5  C   UNL     1       1.349   4.300  20.668  0.00  0.00    +0.000 A 
ATOM      6  S   UNL     1       2.157   5.738  20.272  0.00  0.00    +0.000 S 
ATOM      7  C   UNL     1       2.826   5.078  18.805  0.00  0.00    +0.000 A 
BRANCH   3   9
ATOM      8  C   UNL     1       3.515   1.809  17.696  0.00  0.00    +0.000 C 
ATOM      9  C   UNL     1       2.469   2.887  17.392  0.00  0.00    +0.000 C 
ENDBRANCH   3   9
ENDBRANCH   1   7
BRANCH   1  10
ATOM     10  C   UNL     1       5.149   5.477  17.834  0.00  0.00    +0.000 A 
ATOM     11  S   UNL     1       6.242   5.410  19.171  0.00  0.00    +0.000 S 
ATOM     12  C   UNL     1       7.529   4.856  18.205  0.00  0.00    +0.000 A 
ATOM     13  C   UNL     1       7.130   4.613  16.915  0.00  0.00    +0.000 A 
ATOM     14  C   UNL     1       5.755   4.971  16.675  0.00  0.00    +0.000 A 
BRANCH  14  15
ATOM     15  C   UNL     1       5.139   4.842  15.303  0.00  0.00    +0.000 C 
ATOM     16  C   UNL     1       5.960   3.999  14.340  0.00  0.00    +0.000 C 
ENDBRANCH  14  15
ENDBRANCH   1  10
BRANCH   2  17
ATOM     17  O   UNL     1       2.215   7.599  17.778  0.00  0.00    +0.000 OA
BRANCH  17  18
ATOM     18  C   UNL     1       2.338   8.973  18.183  0.00  0.00    +0.000 C 
BRANCH  18  19
ATOM     19  C   UNL     1       0.965   9.638  18.018  0.00  0.00    +0.000 C 
BRANCH  19  20
ATOM     20  N   UNL     1       0.184   9.889  19.251  0.00  0.00    +0.000 NA
ATOM     21  C   UNL     1       0.733   9.142  20.392  0.00  0.00    +0.000 C 
ATOM     22  C   UNL     1      -0.074   9.418  21.662  0.00  0.00    +0.000 C 
ATOM     23  C   UNL     1      -0.116  10.907  21.990  0.00  0.00    +0.000 C 
ATOM     24  C   UNL     1      -0.594  11.723  20.787  0.00  0.00    +0.000 C 
ATOM     25  C   UNL     1       0.206  11.344  19.529  0.00  0.00    +0.000 C 
BRANCH  24  26
ATOM     26  C   UNL     1      -0.442  13.213  21.045  0.00  0.00    +0.000 C 
ATOM     27  O   UNL     1      -0.971  14.094  20.386  0.00  0.00    +0.000 OA
BRANCH  26  28
ATOM     28  O   UNL     1       0.334  13.500  22.115  0.00  0.00    +0.000 OA
ATOM     29  H   UNL     1       0.307  14.434  22.394  0.00  0.00    +0.000 HD
ENDBRANCH  26  28
ENDBRANCH  24  26
ENDBRANCH  19  20
ENDBRANCH  18  19
ENDBRANCH  17  18
ENDBRANCH   2  17
TORSDOF 10
ENDMDL
MODEL 9
REMARK VINA RESULT:      -7.0      2.180      2.578
REMARK  Name = 
REMARK  12 active torsions:
REMARK  status: ('A' for Active; 'I' for Inactive)
REMARK    1  A    between atoms: C_1  and  C_2
REMARK    2  A    between atoms: C_2  and  C_3
REMARK    3  A    between atoms: C_7  and  C_8
REMARK    4  A    between atoms: C_8  and  C_22
REMARK    5  A    between atoms: N_9  and  O_10
REMARK    6  A    between atoms: O_10  and  C_11
REMARK    7  A    between atoms: C_11  and  C_12
REMARK    8  A    between atoms: C_12  and  N_13
REMARK    9  A    between atoms: C_17  and  C_18
REMARK   10  A    between atoms: C_18  and  O_20
REMARK   11  A    between atoms: C_26  and  C_27
REMARK   12  A    between atoms: C_27  and  C_28
REMARK                            x       y       z     vdW  Elec       q    Type
REMARK                         _______ _______ _______ _____ _____    ______ ____
ROOT
ATOM      1  C   UNL     1       3.751   5.878  18.175  0.00  0.00    +0.000 C 
ATOM      2  N   UNL     1       3.461   7.062  17.700  0.00  0.00    +0.000 NA
ENDROOT
BRANCH   1   7
ATOM      3  C   UNL     1       2.331   3.696  18.668  0.00  0.00    +0.000 A 
ATOM      4  C   UNL     1       1.528   3.211  19.767  0.00  0.00    +0.000 A 
ATOM      5  C   UNL     1       1.383   4.122  20.773  0.00  0.00    +0.000 A 
ATOM      6  S   UNL     1       2.160   5.586  20.411  0.00  0.00    +0.000 S 
ATOM      7  C   UNL     1       2.839   4.978  18.926  0.00  0.00    +0.000 A 
BRANCH   3   9
ATOM      8  C   UNL     1       3.600   1.759  17.731  0.00  0.00    +0.000 C 
ATOM      9  C   UNL     1       2.524   2.816  17.460  0.00  0.00    +0.000 C 
ENDBRANCH   3   9
ENDBRANCH   1   7
BRANCH   1  10
ATOM     10  C   UNL     1       5.143   5.437  17.936  0.00  0.00    +0.000 A 
ATOM     11  S   UNL     1       6.286   5.435  19.232  0.00  0.00    +0.000 S 
ATOM     12  C   UNL     1       7.548   4.877  18.234  0.00  0.00    +0.000 A 
ATOM     13  C   UNL     1       7.104   4.584  16.968  0.00  0.00    +0.000 A 
ATOM     14  C   UNL     1       5.714   4.907  16.771  0.00  0.00    +0.000 A 
BRANCH  14  15
ATOM     15  C   UNL     1       5.049   4.722  15.429  0.00  0.00    +0.000 C 
ATOM     16  C   UNL     1       5.928   4.029  14.400  0.00  0.00    +0.000 C 
ENDBRANCH  14  15
ENDBRANCH   1  10
BRANCH   2  17
ATOM     17  O   UNL     1       2.189   7.531  18.009  0.00  0.00    +0.000 OA
BRANCH  17  18
ATOM     18  C   UNL     1       2.157   8.947  17.769  0.00  0.00    +0.000 C 
BRANCH  18  19
ATOM     19  C   UNL     1       1.250   9.587  18.829  0.00  0.00    +0.000 C 
BRANCH  19  20
ATOM     20  N   UNL     1       0.712  10.934  18.532  0.00  0.00    +0.000 NA
ATOM     21  C   UNL     1      -0.389  11.283  19.443  0.00  0.00    +0.000 C 
ATOM     22  C   UNL     1      -0.927  12.681  19.136  0.00  0.00    +0.000 C 
ATOM     23  C   UNL     1       0.168  13.738  19.220  0.00  0.00    +0.000 C 
ATOM     24  C   UNL     1       1.370  13.356  18.354  0.00  0.00    +0.000 C 
ATOM     25  C   UNL     1       1.815  11.916  18.658  0.00  0.00    +0.000 C 
BRANCH  24  26
ATOM     26  C   UNL     1       2.537  14.300  18.594  0.00  0.00    +0.000 C 
ATOM     27  O   UNL     1       2.782  14.853  19.655  0.00  0.00    +0.000 OA
BRANCH  26  28
ATOM     28  O   UNL     1       3.325  14.472  17.508  0.00  0.00    +0.000 OA
ATOM     29  H   UNL     1       4.240  14.737  17.713  0.00  0.00    +0.000 HD
ENDBRANCH  26  28
ENDBRANCH  24  26
ENDBRANCH  19  20
ENDBRANCH  18  19
ENDBRANCH  17  18
ENDBRANCH   2  17
TORSDOF 10
ENDMDL
