MODEL 1
REMARK VINA RESULT:      -8.9      0.000      0.000
REMARK  Name = 
REMARK  9 active torsions:
REMARK  status: ('A' for Active; 'I' for Inactive)
REMARK    1  A    between atoms: C_1  and  O_2
REMARK    2  A    between atoms: O_2  and  C_3
REMARK    3  A    between atoms: C_6  and  O_7
REMARK    4  A    between atoms: O_7  and  C_8
REMARK    5  A    between atoms: C_9  and  C_10
REMARK    6  A    between atoms: C_10  and  N_11
REMARK    7  A    between atoms: C_12  and  C_14
REMARK    8  A    between atoms: N_18  and  C_19
REMARK    9  A    between atoms: C_26  and  C_27
REMARK                            x       y       z     vdW  Elec       q    Type
REMARK                         _______ _______ _______ _____ _____    ______ ____
ROOT
ATOM      1  C   UNL     1       1.630   3.930  18.565  0.00  0.00    +0.000 C 
ATOM      2  C   UNL     1       1.629   2.446  18.929  0.00  0.00    +0.000 C 
ATOM      3  C   UNL     1       2.957   1.730  18.723  0.00  0.00    +0.000 C 
ATOM      4  C   UNL     1       3.642   2.113  17.406  0.00  0.00    +0.000 C 
ATOM      5  N   UNL     1       3.719   3.576  17.211  0.00  0.00    +0.000 N 
ATOM      6  C   UNL     1       2.425   4.263  17.294  0.00  0.00    +0.000 C 
ENDROOT
BRANCH   5   7
ATOM      7  C   UNL     1       4.773   4.220  17.864  0.00  0.00    +0.000 A 
ATOM      8  N   UNL     1       4.746   4.203  19.230  0.00  0.00    +0.000 NA
ATOM      9  C   UNL     1       5.683   4.831  19.948  0.00  0.00    +0.000 A 
ATOM     10  N   UNL     1       6.698   5.534  19.476  0.00  0.00    +0.000 NA
ATOM     11  C   UNL     1       6.725   5.525  18.137  0.00  0.00    +0.000 A 
ATOM     12  O   UNL     1       7.684   6.183  17.449  0.00  0.00    +0.000 OA
ATOM     13  N   UNL     1       7.510   5.990  16.111  0.00  0.00    +0.000 NA
ATOM     14  C   UNL     1       6.446   5.170  15.960  0.00  0.00    +0.000 A 
ATOM     15  C   UNL     1       5.856   4.898  17.253  0.00  0.00    +0.000 A 
BRANCH  14  16
ATOM     16  C   UNL     1       6.193   4.701  14.586  0.00  0.00    +0.000 A 
ATOM     17  C   UNL     1       5.003   4.063  14.217  0.00  0.00    +0.000 A 
ATOM     18  C   UNL     1       4.913   3.395  12.984  0.00  0.00    +0.000 A 
ATOM     19  C   UNL     1       6.002   3.365  12.118  0.00  0.00    +0.000 A 
ATOM     20  F   UNL     1       5.932   2.656  10.984  0.00  0.00    +0.000 F 
ATOM     21  C   UNL     1       7.171   4.040  12.429  0.00  0.00    +0.000 A 
ATOM     22  C   UNL     1       7.258   4.712  13.652  0.00  0.00    +0.000 A 
ENDBRANCH  14  16
ENDBRANCH   5   7
BRANCH   1  24
ATOM     23  N   UNL     1       2.281   6.239  19.418  0.00  0.00    +0.000 N 
ATOM     24  C   UNL     1       1.809   4.970  19.679  0.00  0.00    +0.000 C 
ATOM     25  O   UNL     1       1.465   4.654  20.825  0.00  0.00    +0.000 OA
ATOM     26  H   UNL     1       2.378   6.584  18.470  0.00  0.00    +0.000 HD
BRANCH  23  27
ATOM     27  C   UNL     1       2.281   7.196  20.519  0.00  0.00    +0.000 C 
BRANCH  27  32
ATOM     28  C   UNL     1       0.147   9.950  22.036  0.00  0.00    +0.000 A 
ATOM     29  C   UNL     1      -0.255  10.696  20.942  0.00  0.00    +0.000 A 
ATOM     30  C   UNL     1       0.128  10.307  19.656  0.00  0.00    +0.000 A 
ATOM     31  C   UNL     1       0.926   9.162  19.436  0.00  0.00    +0.000 A 
ATOM     32  C   UNL     1       1.363   8.407  20.534  0.00  0.00    +0.000 A 
ATOM     33  C   UNL     1       0.975   8.843  21.834  0.00  0.00    +0.000 A 
BRANCH  28  35
ATOM     34  C   UNL     1      -1.342  11.360  23.191  0.00  0.00    +0.000 C 
ATOM     35  O   UNL     1      -0.293  10.398  23.251  0.00  0.00    +0.000 OA
ENDBRANCH  28  35
BRANCH  31  36
ATOM     36  O   UNL     1       1.302   8.740  18.186  0.00  0.00    +0.000 OA
ATOM     37  C   UNL     1       2.454   9.373  17.632  0.00  0.00    +0.000 C 
ENDBRANCH  31  36
ENDBRANCH  27  32
ENDBRANCH  23  27
ENDBRANCH   1  24
TORSDOF 7
ENDMDL
MODEL 2
REMARK VINA RESULT:      -8.7      1.386      2.305
REMARK  Name = 
REMARK  9 active torsions:
REMARK  status: ('A' for Active; 'I' for Inactive)
REMARK    1  A    between atoms: C_1  and  O_2
REMARK    2  A    between atoms: O_2  and  C_3
REMARK    3  A    between atoms: C_6  and  O_7
REMARK    4  A    between atoms: O_7  and  C_8
REMARK    5  A    between atoms: C_9  and  C_10
REMARK    6  A    between atoms: C_10  and  N_11
REMARK    7  A    between atoms: C_12  and  C_14
REMARK    8  A    between atoms: N_18  and  C_19
REMARK    9  A    between atoms: C_26  and  C_27
REMARK                            x       y       z     vdW  Elec       q    Type
REMARK                         _______ _______ _______ _____ _____    ______ ____
ROOT
ATOM      1  C   UNL     1       2.050   4.580  18.113  0.00  0.00    +0.000 C 
ATOM      2  C   UNL     1       1.747   3.404  19.041  0.00  0.00    +0.000 C 
ATOM      3  C   UNL     1       2.937   2.508  19.356  0.00  0.00    +0.000 C 
ATOM      4  C   UNL     1       3.797   2.205  18.124  0.00  0.00    +0.000 C 
ATOM      5  N   UNL     1       4.155   3.424  17.369  0.00  0.00    +0.000 N 
ATOM      6  C   UNL     1       3.005   4.238  16.960  0.00  0.00    +0.000 C 
ENDROOT
BRANCH   5   7
ATOM      7  C   UNL     1       5.245   4.146  17.863  0.00  0.00    +0.000 A 
ATOM      8  N   UNL     1       5.397   4.166  19.221  0.00  0.00    +0.000 NA
ATOM      9  C   UNL     1       6.380   4.867  19.797  0.00  0.00    +0.000 A 
ATOM     10  N   UNL     1       7.280   5.613  19.180  0.00  0.00    +0.000 NA
ATOM     11  C   UNL     1       7.133   5.567  17.850  0.00  0.00    +0.000 A 
ATOM     12  O   UNL     1       7.952   6.259  17.028  0.00  0.00    +0.000 OA
ATOM     13  N   UNL     1       7.618   6.018  15.730  0.00  0.00    +0.000 NA
ATOM     14  C   UNL     1       6.595   5.134  15.736  0.00  0.00    +0.000 A 
ATOM     15  C   UNL     1       6.195   4.867  17.101  0.00  0.00    +0.000 A 
BRANCH  14  16
ATOM     16  C   UNL     1       6.193   4.613  14.418  0.00  0.00    +0.000 A 
ATOM     17  C   UNL     1       4.921   4.083  14.175  0.00  0.00    +0.000 A 
ATOM     18  C   UNL     1       4.672   3.355  12.999  0.00  0.00    +0.000 A 
ATOM     19  C   UNL     1       5.685   3.158  12.065  0.00  0.00    +0.000 A 
ATOM     20  F   UNL     1       5.459   2.393  10.989  0.00  0.00    +0.000 F 
ATOM     21  C   UNL     1       6.936   3.723  12.249  0.00  0.00    +0.000 A 
ATOM     22  C   UNL     1       7.181   4.455  13.415  0.00  0.00    +0.000 A 
ENDBRANCH  14  16
ENDBRANCH   5   7
BRANCH   1  24
ATOM     23  N   UNL     1       2.105   7.123  18.007  0.00  0.00    +0.000 N 
ATOM     24  C   UNL     1       2.312   5.963  18.723  0.00  0.00    +0.000 C 
ATOM     25  O   UNL     1       2.669   6.014  19.907  0.00  0.00    +0.000 OA
ATOM     26  H   UNL     1       1.626   7.117  17.114  0.00  0.00    +0.000 HD
BRANCH  23  27
ATOM     27  C   UNL     1       2.246   8.388  18.721  0.00  0.00    +0.000 C 
BRANCH  27  32
ATOM     28  C   UNL     1      -0.900  10.419  18.080  0.00  0.00    +0.000 A 
ATOM     29  C   UNL     1      -1.320  10.787  19.346  0.00  0.00    +0.000 A 
ATOM     30  C   UNL     1      -0.568  10.413  20.464  0.00  0.00    +0.000 A 
ATOM     31  C   UNL     1       0.620   9.659  20.338  0.00  0.00    +0.000 A 
ATOM     32  C   UNL     1       1.048   9.258  19.065  0.00  0.00    +0.000 A 
ATOM     33  C   UNL     1       0.247   9.634  17.947  0.00  0.00    +0.000 A 
BRANCH  28  35
ATOM     34  C   UNL     1      -2.578   9.863  16.525  0.00  0.00    +0.000 C 
ATOM     35  O   UNL     1      -1.690  10.847  17.048  0.00  0.00    +0.000 OA
ENDBRANCH  28  35
BRANCH  31  36
ATOM     36  O   UNL     1       1.392   9.294  21.411  0.00  0.00    +0.000 OA
ATOM     37  C   UNL     1       0.739   9.285  22.678  0.00  0.00    +0.000 C 
ENDBRANCH  31  36
ENDBRANCH  27  32
ENDBRANCH  23  27
ENDBRANCH   1  24
TORSDOF 7
ENDMDL
MODEL 3
REMARK VINA RESULT:      -8.3      1.171      1.358
REMARK  Name = 
REMARK  9 active torsions:
REMARK  status: ('A' for Active; 'I' for Inactive)
REMARK    1  A    between atoms: C_1  and  O_2
REMARK    2  A    between atoms: O_2  and  C_3
REMARK    3  A    between atoms: C_6  and  O_7
REMARK    4  A    between atoms: O_7  and  C_8
REMARK    5  A    between atoms: C_9  and  C_10
REMARK    6  A    between atoms: C_10  and  N_11
REMARK    7  A    between atoms: C_12  and  C_14
REMARK    8  A    between atoms: N_18  and  C_19
REMARK    9  A    between atoms: C_26  and  C_27
REMARK                            x       y       z     vdW  Elec       q    Type
REMARK                         _______ _______ _______ _____ _____    ______ ____
ROOT
ATOM      1  C   UNL     1       2.135   4.808  18.069  0.00  0.00    +0.000 C 
ATOM      2  C   UNL     1       1.848   3.699  19.081  0.00  0.00    +0.000 C 
ATOM      3  C   UNL     1       3.049   2.838  19.452  0.00  0.00    +0.000 C 
ATOM      4  C   UNL     1       3.905   2.456  18.239  0.00  0.00    +0.000 C 
ATOM      5  N   UNL     1       4.246   3.621  17.396  0.00  0.00    +0.000 N 
ATOM      6  C   UNL     1       3.086   4.393  16.937  0.00  0.00    +0.000 C 
ENDROOT
BRANCH   5   7
ATOM      7  C   UNL     1       5.332   4.386  17.831  0.00  0.00    +0.000 A 
ATOM      8  N   UNL     1       5.509   4.481  19.182  0.00  0.00    +0.000 NA
ATOM      9  C   UNL     1       6.490   5.228  19.700  0.00  0.00    +0.000 A 
ATOM     10  N   UNL     1       7.365   5.955  19.028  0.00  0.00    +0.000 NA
ATOM     11  C   UNL     1       7.194   5.836  17.706  0.00  0.00    +0.000 A 
ATOM     12  O   UNL     1       7.986   6.497  16.832  0.00  0.00    +0.000 OA
ATOM     13  N   UNL     1       7.631   6.182  15.555  0.00  0.00    +0.000 NA
ATOM     14  C   UNL     1       6.625   5.283  15.629  0.00  0.00    +0.000 A 
ATOM     15  C   UNL     1       6.255   5.082  17.013  0.00  0.00    +0.000 A 
BRANCH  14  16
ATOM     16  C   UNL     1       6.208   4.686  14.347  0.00  0.00    +0.000 A 
ATOM     17  C   UNL     1       4.941   4.124  14.157  0.00  0.00    +0.000 A 
ATOM     18  C   UNL     1       4.682   3.330  13.026  0.00  0.00    +0.000 A 
ATOM     19  C   UNL     1       5.681   3.100  12.085  0.00  0.00    +0.000 A 
ATOM     20  F   UNL     1       5.449   2.275  11.055  0.00  0.00    +0.000 F 
ATOM     21  C   UNL     1       6.926   3.693  12.215  0.00  0.00    +0.000 A 
ATOM     22  C   UNL     1       7.180   4.490  13.336  0.00  0.00    +0.000 A 
ENDBRANCH  14  16
ENDBRANCH   5   7
BRANCH   1  24
ATOM     23  N   UNL     1       1.921   7.339  17.898  0.00  0.00    +0.000 N 
ATOM     24  C   UNL     1       2.387   6.234  18.577  0.00  0.00    +0.000 C 
ATOM     25  O   UNL     1       2.982   6.367  19.654  0.00  0.00    +0.000 OA
ATOM     26  H   UNL     1       1.266   7.252  17.130  0.00  0.00    +0.000 HD
BRANCH  23  27
ATOM     27  C   UNL     1       2.090   8.640  18.536  0.00  0.00    +0.000 C 
BRANCH  27  32
ATOM     28  C   UNL     1       0.154  10.340  21.328  0.00  0.00    +0.000 A 
ATOM     29  C   UNL     1      -0.981  10.820  20.698  0.00  0.00    +0.000 A 
ATOM     30  C   UNL     1      -1.177  10.576  19.337  0.00  0.00    +0.000 A 
ATOM     31  C   UNL     1      -0.238   9.848  18.573  0.00  0.00    +0.000 A 
ATOM     32  C   UNL     1       0.930   9.374  19.189  0.00  0.00    +0.000 A 
ATOM     33  C   UNL     1       1.111   9.659  20.573  0.00  0.00    +0.000 A 
BRANCH  28  35
ATOM     34  C   UNL     1      -0.994  10.886  23.310  0.00  0.00    +0.000 C 
ATOM     35  O   UNL     1       0.247  10.613  22.666  0.00  0.00    +0.000 OA
ENDBRANCH  28  35
BRANCH  31  36
ATOM     36  O   UNL     1      -0.408   9.573  17.240  0.00  0.00    +0.000 OA
ATOM     37  C   UNL     1      -1.721   9.773  16.722  0.00  0.00    +0.000 C 
ENDBRANCH  31  36
ENDBRANCH  27  32
ENDBRANCH  23  27
ENDBRANCH   1  24
TORSDOF 7
ENDMDL
MODEL 4
REMARK VINA RESULT:      -8.1      2.029      2.348
REMARK  Name = 
REMARK  9 active torsions:
REMARK  status: ('A' for Active; 'I' for Inactive)
REMARK    1  A    between atoms: C_1  and  O_2
REMARK    2  A    between atoms: O_2  and  C_3
REMARK    3  A    between atoms: C_6  and  O_7
REMARK    4  A    between atoms: O_7  and  C_8
REMARK    5  A    between atoms: C_9  and  C_10
REMARK    6  A    between atoms: C_10  and  N_11
REMARK    7  A    between atoms: C_12  and  C_14
REMARK    8  A    between atoms: N_18  and  C_19
REMARK    9  A    between atoms: C_26  and  C_27
REMARK                            x       y       z     vdW  Elec       q    Type
REMARK                         _______ _______ _______ _____ _____    ______ ____
ROOT
ATOM      1  C   UNL     1       2.208   4.999  17.978  0.00  0.00    +0.000 C 
ATOM      2  C   UNL     1       1.872   3.974  19.060  0.00  0.00    +0.000 C 
ATOM      3  C   UNL     1       3.041   3.112  19.517  0.00  0.00    +0.000 C 
ATOM      4  C   UNL     1       3.910   2.621  18.354  0.00  0.00    +0.000 C 
ATOM      5  N   UNL     1       4.299   3.713  17.437  0.00  0.00    +0.000 N 
ATOM      6  C   UNL     1       3.169   4.480  16.899  0.00  0.00    +0.000 C 
ENDROOT
BRANCH   5   7
ATOM      7  C   UNL     1       5.396   4.480  17.838  0.00  0.00    +0.000 A 
ATOM      8  N   UNL     1       5.596   4.600  19.185  0.00  0.00    +0.000 NA
ATOM      9  C   UNL     1       6.590   5.351  19.672  0.00  0.00    +0.000 A 
ATOM     10  N   UNL     1       7.458   6.059  18.971  0.00  0.00    +0.000 NA
ATOM     11  C   UNL     1       7.265   5.915  17.654  0.00  0.00    +0.000 A 
ATOM     12  O   UNL     1       8.045   6.554  16.755  0.00  0.00    +0.000 OA
ATOM     13  N   UNL     1       7.668   6.216  15.490  0.00  0.00    +0.000 NA
ATOM     14  C   UNL     1       6.657   5.326  15.598  0.00  0.00    +0.000 A 
ATOM     15  C   UNL     1       6.310   5.154  16.992  0.00  0.00    +0.000 A 
BRANCH  14  16
ATOM     16  C   UNL     1       6.216   4.706  14.335  0.00  0.00    +0.000 A 
ATOM     17  C   UNL     1       4.952   4.125  14.186  0.00  0.00    +0.000 A 
ATOM     18  C   UNL     1       4.675   3.313  13.072  0.00  0.00    +0.000 A 
ATOM     19  C   UNL     1       5.652   3.083  12.108  0.00  0.00    +0.000 A 
ATOM     20  F   UNL     1       5.405   2.242  11.096  0.00  0.00    +0.000 F 
ATOM     21  C   UNL     1       6.892   3.694  12.199  0.00  0.00    +0.000 A 
ATOM     22  C   UNL     1       7.164   4.509  13.302  0.00  0.00    +0.000 A 
ENDBRANCH  14  16
ENDBRANCH   5   7
BRANCH   1  24
ATOM     23  N   UNL     1       2.146   7.513  17.577  0.00  0.00    +0.000 N 
ATOM     24  C   UNL     1       2.488   6.451  18.388  0.00  0.00    +0.000 C 
ATOM     25  O   UNL     1       2.989   6.651  19.501  0.00  0.00    +0.000 OA
ATOM     26  H   UNL     1       1.559   7.388  16.760  0.00  0.00    +0.000 HD
BRANCH  23  27
ATOM     27  C   UNL     1       2.325   8.856  18.118  0.00  0.00    +0.000 C 
BRANCH  27  32
ATOM     28  C   UNL     1      -1.274  10.070  18.026  0.00  0.00    +0.000 A 
ATOM     29  C   UNL     1      -1.176  11.417  18.330  0.00  0.00    +0.000 A 
ATOM     30  C   UNL     1       0.079  11.992  18.543  0.00  0.00    +0.000 A 
ATOM     31  C   UNL     1       1.266  11.230  18.461  0.00  0.00    +0.000 A 
ATOM     32  C   UNL     1       1.184   9.859  18.178  0.00  0.00    +0.000 A 
ATOM     33  C   UNL     1      -0.112   9.297  17.988  0.00  0.00    +0.000 A 
BRANCH  28  35
ATOM     34  C   UNL     1      -3.545  10.610  17.722  0.00  0.00    +0.000 C 
ATOM     35  O   UNL     1      -2.543   9.602  17.815  0.00  0.00    +0.000 OA
ENDBRANCH  28  35
BRANCH  31  36
ATOM     36  O   UNL     1       2.514  11.766  18.644  0.00  0.00    +0.000 OA
ATOM     37  C   UNL     1       2.632  13.169  18.419  0.00  0.00    +0.000 C 
ENDBRANCH  31  36
ENDBRANCH  27  32
ENDBRANCH  23  27
ENDBRANCH   1  24
TORSDOF 7
ENDMDL
MODEL 5
REMARK VINA RESULT:      -8.1      1.545      2.203
REMARK  Name = 
REMARK  9 active torsions:
REMARK  status: ('A' for Active; 'I' for Inactive)
REMARK    1  A    between atoms: C_1  and  O_2
REMARK    2  A    between atoms: O_2  and  C_3
REMARK    3  A    between atoms: C_6  and  O_7
REMARK    4  A    between atoms: O_7  and  C_8
REMARK    5  A    between atoms: C_9  and  C_10
REMARK    6  A    between atoms: C_10  and  N_11
REMARK    7  A    between atoms: C_12  and  C_14
REMARK    8  A    between atoms: N_18  and  C_19
REMARK    9  A    between atoms: C_26  and  C_27
REMARK                            x       y       z     vdW  Elec       q    Type
REMARK                         _______ _______ _______ _____ _____    ______ ____
ROOT
ATOM      1  C   UNL     1       2.248   5.017  18.030  0.00  0.00    +0.000 C 
ATOM      2  C   UNL     1       1.900   3.997  19.114  0.00  0.00    +0.000 C 
ATOM      3  C   UNL     1       3.057   3.115  19.566  0.00  0.00    +0.000 C 
ATOM      4  C   UNL     1       3.912   2.611  18.398  0.00  0.00    +0.000 C 
ATOM      5  N   UNL     1       4.315   3.696  17.480  0.00  0.00    +0.000 N 
ATOM      6  C   UNL     1       3.195   4.482  16.947  0.00  0.00    +0.000 C 
ENDROOT
BRANCH   5   7
ATOM      7  C   UNL     1       5.426   4.444  17.876  0.00  0.00    +0.000 A 
ATOM      8  N   UNL     1       5.647   4.543  19.221  0.00  0.00    +0.000 NA
ATOM      9  C   UNL     1       6.656   5.275  19.704  0.00  0.00    +0.000 A 
ATOM     10  N   UNL     1       7.523   5.984  19.001  0.00  0.00    +0.000 NA
ATOM     11  C   UNL     1       7.309   5.861  17.685  0.00  0.00    +0.000 A 
ATOM     12  O   UNL     1       8.084   6.503  16.784  0.00  0.00    +0.000 OA
ATOM     13  N   UNL     1       7.685   6.188  15.520  0.00  0.00    +0.000 NA
ATOM     14  C   UNL     1       6.665   5.307  15.629  0.00  0.00    +0.000 A 
ATOM     15  C   UNL     1       6.336   5.119  17.026  0.00  0.00    +0.000 A 
BRANCH  14  16
ATOM     16  C   UNL     1       6.199   4.711  14.365  0.00  0.00    +0.000 A 
ATOM     17  C   UNL     1       4.923   4.155  14.223  0.00  0.00    +0.000 A 
ATOM     18  C   UNL     1       4.619   3.361  13.103  0.00  0.00    +0.000 A 
ATOM     19  C   UNL     1       5.581   3.125  12.125  0.00  0.00    +0.000 A 
ATOM     20  F   UNL     1       5.307   2.300  11.106  0.00  0.00    +0.000 F 
ATOM     21  C   UNL     1       6.833   3.713  12.209  0.00  0.00    +0.000 A 
ATOM     22  C   UNL     1       7.132   4.509  13.318  0.00  0.00    +0.000 A 
ENDBRANCH  14  16
ENDBRANCH   5   7
BRANCH   1  24
ATOM     23  N   UNL     1       2.015   7.538  17.764  0.00  0.00    +0.000 N 
ATOM     24  C   UNL     1       2.554   6.464  18.439  0.00  0.00    +0.000 C 
ATOM     25  O   UNL     1       3.265   6.644  19.435  0.00  0.00    +0.000 OA
ATOM     26  H   UNL     1       1.278   7.418  17.079  0.00  0.00    +0.000 HD
BRANCH  23  27
ATOM     27  C   UNL     1       2.253   8.867  18.317  0.00  0.00    +0.000 C 
BRANCH  27  32
ATOM     28  C   UNL     1      -0.323  11.640  18.647  0.00  0.00    +0.000 A 
ATOM     29  C   UNL     1      -0.974  11.346  19.833  0.00  0.00    +0.000 A 
ATOM     30  C   UNL     1      -0.571  10.246  20.593  0.00  0.00    +0.000 A 
ATOM     31  C   UNL     1       0.491   9.410  20.181  0.00  0.00    +0.000 A 
ATOM     32  C   UNL     1       1.146   9.678  18.971  0.00  0.00    +0.000 A 
ATOM     33  C   UNL     1       0.697  10.794  18.207  0.00  0.00    +0.000 A 
BRANCH  28  35
ATOM     34  C   UNL     1      -0.449  13.990  18.599  0.00  0.00    +0.000 C 
ATOM     35  O   UNL     1      -0.776  12.747  17.984  0.00  0.00    +0.000 OA
ENDBRANCH  28  35
BRANCH  31  36
ATOM     36  O   UNL     1       0.925   8.334  20.912  0.00  0.00    +0.000 OA
ATOM     37  C   UNL     1       1.496   8.631  22.185  0.00  0.00    +0.000 C 
ENDBRANCH  31  36
ENDBRANCH  27  32
ENDBRANCH  23  27
ENDBRANCH   1  24
TORSDOF 7
ENDMDL
MODEL 6
REMARK VINA RESULT:      -8.0      1.099      2.120
REMARK  Name = 
REMARK  9 active torsions:
REMARK  status: ('A' for Active; 'I' for Inactive)
REMARK    1  A    between atoms: C_1  and  O_2
REMARK    2  A    between atoms: O_2  and  C_3
REMARK    3  A    between atoms: C_6  and  O_7
REMARK    4  A    between atoms: O_7  and  C_8
REMARK    5  A    between atoms: C_9  and  C_10
REMARK    6  A    between atoms: C_10  and  N_11
REMARK    7  A    between atoms: C_12  and  C_14
REMARK    8  A    between atoms: N_18  and  C_19
REMARK    9  A    between atoms: C_26  and  C_27
REMARK                            x       y       z     vdW  Elec       q    Type
REMARK                         _______ _______ _______ _____ _____    ______ ____
ROOT
ATOM      1  C   UNL     1       1.678   3.954  18.420  0.00  0.00    +0.000 C 
ATOM      2  C   UNL     1       1.710   2.500  18.889  0.00  0.00    +0.000 C 
ATOM      3  C   UNL     1       3.055   1.801  18.734  0.00  0.00    +0.000 C 
ATOM      4  C   UNL     1       3.733   2.105  17.393  0.00  0.00    +0.000 C 
ATOM      5  N   UNL     1       3.776   3.551  17.095  0.00  0.00    +0.000 N 
ATOM      6  C   UNL     1       2.467   4.213  17.128  0.00  0.00    +0.000 C 
ENDROOT
BRANCH   5   7
ATOM      7  C   UNL     1       4.815   4.265  17.699  0.00  0.00    +0.000 A 
ATOM      8  N   UNL     1       4.809   4.310  19.065  0.00  0.00    +0.000 NA
ATOM      9  C   UNL     1       5.732   5.006  19.737  0.00  0.00    +0.000 A 
ATOM     10  N   UNL     1       6.712   5.724  19.216  0.00  0.00    +0.000 NA
ATOM     11  C   UNL     1       6.719   5.653  17.880  0.00  0.00    +0.000 A 
ATOM     12  O   UNL     1       7.641   6.314  17.145  0.00  0.00    +0.000 OA
ATOM     13  N   UNL     1       7.455   6.052  15.821  0.00  0.00    +0.000 NA
ATOM     14  C   UNL     1       6.421   5.187  15.726  0.00  0.00    +0.000 A 
ATOM     15  C   UNL     1       5.861   4.954  17.039  0.00  0.00    +0.000 A 
BRANCH  14  16
ATOM     16  C   UNL     1       6.165   4.645  14.379  0.00  0.00    +0.000 A 
ATOM     17  C   UNL     1       4.959   4.026  14.035  0.00  0.00    +0.000 A 
ATOM     18  C   UNL     1       4.858   3.289  12.843  0.00  0.00    +0.000 A 
ATOM     19  C   UNL     1       5.954   3.172  11.992  0.00  0.00    +0.000 A 
ATOM     20  F   UNL     1       5.871   2.399  10.902  0.00  0.00    +0.000 F 
ATOM     21  C   UNL     1       7.142   3.825  12.276  0.00  0.00    +0.000 A 
ATOM     22  C   UNL     1       7.239   4.566  13.458  0.00  0.00    +0.000 A 
ENDBRANCH  14  16
ENDBRANCH   5   7
BRANCH   1  24
ATOM     23  N   UNL     1       2.171   6.360  19.091  0.00  0.00    +0.000 N 
ATOM     24  C   UNL     1       1.831   5.075  19.456  0.00  0.00    +0.000 C 
ATOM     25  O   UNL     1       1.590   4.805  20.639  0.00  0.00    +0.000 OA
ATOM     26  H   UNL     1       2.177   6.651  18.120  0.00  0.00    +0.000 HD
BRANCH  23  27
ATOM     27  C   UNL     1       2.153   7.382  20.131  0.00  0.00    +0.000 C 
BRANCH  27  32
ATOM     28  C   UNL     1       1.720  10.837  18.613  0.00  0.00    +0.000 A 
ATOM     29  C   UNL     1       0.544  11.300  19.176  0.00  0.00    +0.000 A 
ATOM     30  C   UNL     1      -0.140  10.513  20.106  0.00  0.00    +0.000 A 
ATOM     31  C   UNL     1       0.338   9.240  20.490  0.00  0.00    +0.000 A 
ATOM     32  C   UNL     1       1.515   8.744  19.912  0.00  0.00    +0.000 A 
ATOM     33  C   UNL     1       2.177   9.562  18.950  0.00  0.00    +0.000 A 
BRANCH  28  35
ATOM     34  C   UNL     1       2.052  13.069  17.940  0.00  0.00    +0.000 C 
ATOM     35  O   UNL     1       2.326  11.687  17.728  0.00  0.00    +0.000 OA
ENDBRANCH  28  35
BRANCH  31  36
ATOM     36  O   UNL     1      -0.296   8.450  21.414  0.00  0.00    +0.000 OA
ATOM     37  C   UNL     1      -0.471   9.019  22.710  0.00  0.00    +0.000 C 
ENDBRANCH  31  36
ENDBRANCH  27  32
ENDBRANCH  23  27
ENDBRANCH   1  24
TORSDOF 7
ENDMDL
MODEL 7
REMARK VINA RESULT:      -7.8      4.904     11.119
REMARK  Name = 
REMARK  9 active torsions:
REMARK  status: ('A' for Active; 'I' for Inactive)
REMARK    1  A    between atoms: C_1  and  O_2
REMARK    2  A    between atoms: O_2  and  C_3
REMARK    3  A    between atoms: C_6  and  O_7
REMARK    4  A    between atoms: O_7  and  C_8
REMARK    5  A    between atoms: C_9  and  C_10
REMARK    6  A    between atoms: C_10  and  N_11
REMARK    7  A    between atoms: C_12  and  C_14
REMARK    8  A    between atoms: N_18  and  C_19
REMARK    9  A    between atoms: C_26  and  C_27
REMARK                            x       y       z     vdW  Elec       q    Type
REMARK                         _______ _______ _______ _____ _____    ______ ____
ROOT
ATOM      1  C   UNL     1       1.240   9.780  21.620  0.00  0.00    +0.000 C 
ATOM      2  C   UNL     1       0.525   9.558  22.952  0.00  0.00    +0.000 C 
ATOM      3  C   UNL     1      -0.827  10.247  23.081  0.00  0.00    +0.000 C 
ATOM      4  C   UNL     1      -0.820  11.680  22.537  0.00  0.00    +0.000 C 
ATOM      5  N   UNL     1      -0.234  11.769  21.184  0.00  0.00    +0.000 N 
ATOM      6  C   UNL     1       1.118  11.210  21.074  0.00  0.00    +0.000 C 
ENDROOT
BRANCH   5   7
ATOM      7  C   UNL     1      -1.093  11.450  20.128  0.00  0.00    +0.000 A 
ATOM      8  N   UNL     1      -0.609  10.581  19.191  0.00  0.00    +0.000 NA
ATOM      9  C   UNL     1      -1.334  10.248  18.117  0.00  0.00    +0.000 A 
ATOM     10  N   UNL     1      -2.540  10.696  17.811  0.00  0.00    +0.000 NA
ATOM     11  C   UNL     1      -3.010  11.529  18.749  0.00  0.00    +0.000 A 
ATOM     12  O   UNL     1      -4.229  12.101  18.633  0.00  0.00    +0.000 OA
ATOM     13  N   UNL     1      -4.484  12.873  19.726  0.00  0.00    +0.000 NA
ATOM     14  C   UNL     1      -3.424  12.755  20.557  0.00  0.00    +0.000 A 
ATOM     15  C   UNL     1      -2.404  11.945  19.927  0.00  0.00    +0.000 A 
BRANCH  14  16
ATOM     16  C   UNL     1      -3.578  13.385  21.880  0.00  0.00    +0.000 A 
ATOM     17  C   UNL     1      -3.012  14.626  22.192  0.00  0.00    +0.000 A 
ATOM     18  C   UNL     1      -2.950  15.058  23.528  0.00  0.00    +0.000 A 
ATOM     19  C   UNL     1      -3.453  14.259  24.551  0.00  0.00    +0.000 A 
ATOM     20  F   UNL     1      -3.312  14.643  25.826  0.00  0.00    +0.000 F 
ATOM     21  C   UNL     1      -4.073  13.054  24.266  0.00  0.00    +0.000 A 
ATOM     22  C   UNL     1      -4.143  12.628  22.936  0.00  0.00    +0.000 A 
ENDBRANCH  14  16
ENDBRANCH   5   7
BRANCH   1  24
ATOM     23  N   UNL     1       1.737   8.859  19.299  0.00  0.00    +0.000 N 
ATOM     24  C   UNL     1       1.134   8.706  20.529  0.00  0.00    +0.000 C 
ATOM     25  O   UNL     1       0.528   7.663  20.803  0.00  0.00    +0.000 OA
ATOM     26  H   UNL     1       2.400   9.606  19.123  0.00  0.00    +0.000 HD
BRANCH  23  27
ATOM     27  C   UNL     1       1.696   7.723  18.384  0.00  0.00    +0.000 C 
BRANCH  27  32
ATOM     28  C   UNL     1       5.130   6.494  17.319  0.00  0.00    +0.000 A 
ATOM     29  C   UNL     1       5.232   5.247  17.910  0.00  0.00    +0.000 A 
ATOM     30  C   UNL     1       4.164   4.741  18.654  0.00  0.00    +0.000 A 
ATOM     31  C   UNL     1       2.969   5.474  18.828  0.00  0.00    +0.000 A 
ATOM     32  C   UNL     1       2.856   6.750  18.256  0.00  0.00    +0.000 A 
ATOM     33  C   UNL     1       3.971   7.248  17.522  0.00  0.00    +0.000 A 
BRANCH  28  35
ATOM     34  C   UNL     1       7.370   7.215  17.369  0.00  0.00    +0.000 C 
ATOM     35  O   UNL     1       6.218   6.896  16.594  0.00  0.00    +0.000 OA
ENDBRANCH  28  35
BRANCH  31  36
ATOM     36  O   UNL     1       1.894   4.999  19.535  0.00  0.00    +0.000 OA
ATOM     37  C   UNL     1       2.171   4.523  20.850  0.00  0.00    +0.000 C 
ENDBRANCH  31  36
ENDBRANCH  27  32
ENDBRANCH  23  27
ENDBRANCH   1  24
TORSDOF 7
ENDMDL
MODEL 8
REMARK VINA RESULT:      -7.6      4.867     10.878
REMARK  Name = 
REMARK  9 active torsions:
REMARK  status: ('A' for Active; 'I' for Inactive)
REMARK    1  A    between atoms: C_1  and  O_2
REMARK    2  A    between atoms: O_2  and  C_3
REMARK    3  A    between atoms: C_6  and  O_7
REMARK    4  A    between atoms: O_7  and  C_8
REMARK    5  A    between atoms: C_9  and  C_10
REMARK    6  A    between atoms: C_10  and  N_11
REMARK    7  A    between atoms: C_12  and  C_14
REMARK    8  A    between atoms: N_18  and  C_19
REMARK    9  A    between atoms: C_26  and  C_27
REMARK                            x       y       z     vdW  Elec       q    Type
REMARK                         _______ _______ _______ _____ _____    ______ ____
ROOT
ATOM      1  C   UNL     1       1.212   9.666  21.785  0.00  0.00    +0.000 C 
ATOM      2  C   UNL     1       0.418   9.575  23.088  0.00  0.00    +0.000 C 
ATOM      3  C   UNL     1      -0.896  10.345  23.097  0.00  0.00    +0.000 C 
ATOM      4  C   UNL     1      -0.778  11.735  22.462  0.00  0.00    +0.000 C 
ATOM      5  N   UNL     1      -0.119  11.699  21.139  0.00  0.00    +0.000 N 
ATOM      6  C   UNL     1       1.202  11.060  21.141  0.00  0.00    +0.000 C 
ENDROOT
BRANCH   5   7
ATOM      7  C   UNL     1      -0.940  11.356  20.062  0.00  0.00    +0.000 A 
ATOM      8  N   UNL     1      -0.422  10.471  19.158  0.00  0.00    +0.000 NA
ATOM      9  C   UNL     1      -1.109  10.115  18.068  0.00  0.00    +0.000 A 
ATOM     10  N   UNL     1      -2.305  10.551  17.712  0.00  0.00    +0.000 NA
ATOM     11  C   UNL     1      -2.810  11.400  18.616  0.00  0.00    +0.000 A 
ATOM     12  O   UNL     1      -4.025  11.966  18.447  0.00  0.00    +0.000 OA
ATOM     13  N   UNL     1      -4.321  12.757  19.516  0.00  0.00    +0.000 NA
ATOM     14  C   UNL     1      -3.290  12.660  20.384  0.00  0.00    +0.000 A 
ATOM     15  C   UNL     1      -2.246  11.842  19.806  0.00  0.00    +0.000 A 
BRANCH  14  16
ATOM     16  C   UNL     1      -3.491  13.315  21.689  0.00  0.00    +0.000 A 
ATOM     17  C   UNL     1      -2.911  14.548  22.008  0.00  0.00    +0.000 A 
ATOM     18  C   UNL     1      -2.901  15.001  23.339  0.00  0.00    +0.000 A 
ATOM     19  C   UNL     1      -3.470  14.230  24.349  0.00  0.00    +0.000 A 
ATOM     20  F   UNL     1      -3.381  14.632  25.624  0.00  0.00    +0.000 F 
ATOM     21  C   UNL     1      -4.104  13.035  24.054  0.00  0.00    +0.000 A 
ATOM     22  C   UNL     1      -4.122  12.589  22.729  0.00  0.00    +0.000 A 
ENDBRANCH  14  16
ENDBRANCH   5   7
BRANCH   1  24
ATOM     23  N   UNL     1       1.906   8.472  19.647  0.00  0.00    +0.000 N 
ATOM     24  C   UNL     1       1.099   8.528  20.762  0.00  0.00    +0.000 C 
ATOM     25  O   UNL     1       0.288   7.622  20.994  0.00  0.00    +0.000 OA
ATOM     26  H   UNL     1       2.706   9.086  19.539  0.00  0.00    +0.000 HD
BRANCH  23  27
ATOM     27  C   UNL     1       1.818   7.278  18.812  0.00  0.00    +0.000 C 
BRANCH  27  32
ATOM     28  C   UNL     1       3.196   3.959  20.045  0.00  0.00    +0.000 A 
ATOM     29  C   UNL     1       4.368   3.800  19.326  0.00  0.00    +0.000 A 
ATOM     30  C   UNL     1       4.775   4.793  18.431  0.00  0.00    +0.000 A 
ATOM     31  C   UNL     1       4.014   5.967  18.233  0.00  0.00    +0.000 A 
ATOM     32  C   UNL     1       2.812   6.134  18.935  0.00  0.00    +0.000 A 
ATOM     33  C   UNL     1       2.413   5.093  19.822  0.00  0.00    +0.000 A 
BRANCH  28  35
ATOM     34  C   UNL     1       1.548   2.943  21.384  0.00  0.00    +0.000 C 
ATOM     35  O   UNL     1       2.891   2.943  20.909  0.00  0.00    +0.000 OA
ENDBRANCH  28  35
BRANCH  31  36
ATOM     36  O   UNL     1       4.394   6.970  17.378  0.00  0.00    +0.000 OA
ATOM     37  C   UNL     1       5.081   6.561  16.198  0.00  0.00    +0.000 C 
ENDBRANCH  31  36
ENDBRANCH  27  32
ENDBRANCH  23  27
ENDBRANCH   1  24
TORSDOF 7
ENDMDL
MODEL 9
REMARK VINA RESULT:      -7.5      4.852     10.851
REMARK  Name = 
REMARK  9 active torsions:
REMARK  status: ('A' for Active; 'I' for Inactive)
REMARK    1  A    between atoms: C_1  and  O_2
REMARK    2  A    between atoms: O_2  and  C_3
REMARK    3  A    between atoms: C_6  and  O_7
REMARK    4  A    between atoms: O_7  and  C_8
REMARK    5  A    between atoms: C_9  and  C_10
REMARK    6  A    between atoms: C_10  and  N_11
REMARK    7  A    between atoms: C_12  and  C_14
REMARK    8  A    between atoms: N_18  and  C_19
REMARK    9  A    between atoms: C_26  and  C_27
REMARK                            x       y       z     vdW  Elec       q    Type
REMARK                         _______ _______ _______ _____ _____    ______ ____
ROOT
ATOM      1  C   UNL     1       0.810   9.521  22.277  0.00  0.00    +0.000 C 
ATOM      2  C   UNL     1      -0.117   9.841  23.449  0.00  0.00    +0.000 C 
ATOM      3  C   UNL     1      -1.252  10.805  23.129  0.00  0.00    +0.000 C 
ATOM      4  C   UNL     1      -0.801  11.990  22.268  0.00  0.00    +0.000 C 
ATOM      5  N   UNL     1      -0.029  11.567  21.081  0.00  0.00    +0.000 N 
ATOM      6  C   UNL     1       1.136  10.729  21.388  0.00  0.00    +0.000 C 
ENDROOT
BRANCH   5   7
ATOM      7  C   UNL     1      -0.785  11.149  19.983  0.00  0.00    +0.000 A 
ATOM      8  N   UNL     1      -0.225  10.188  19.188  0.00  0.00    +0.000 NA
ATOM      9  C   UNL     1      -0.846   9.754  18.086  0.00  0.00    +0.000 A 
ATOM     10  N   UNL     1      -2.009  10.175  17.620  0.00  0.00    +0.000 NA
ATOM     11  C   UNL     1      -2.556  11.100  18.419  0.00  0.00    +0.000 A 
ATOM     12  O   UNL     1      -3.748  11.665  18.126  0.00  0.00    +0.000 OA
ATOM     13  N   UNL     1      -4.098  12.543  19.107  0.00  0.00    +0.000 NA
ATOM     14  C   UNL     1      -3.127  12.503  20.046  0.00  0.00    +0.000 A 
ATOM     15  C   UNL     1      -2.062  11.629  19.605  0.00  0.00    +0.000 A 
BRANCH  14  16
ATOM     16  C   UNL     1      -3.400  13.263  21.279  0.00  0.00    +0.000 A 
ATOM     17  C   UNL     1      -2.750  14.464  21.581  0.00  0.00    +0.000 A 
ATOM     18  C   UNL     1      -2.834  15.008  22.875  0.00  0.00    +0.000 A 
ATOM     19  C   UNL     1      -3.568  14.359  23.864  0.00  0.00    +0.000 A 
ATOM     20  F   UNL     1      -3.572  14.842  25.114  0.00  0.00    +0.000 F 
ATOM     21  C   UNL     1      -4.272  13.201  23.578  0.00  0.00    +0.000 A 
ATOM     22  C   UNL     1      -4.195  12.666  22.289  0.00  0.00    +0.000 A 
ENDBRANCH  14  16
ENDBRANCH   5   7
BRANCH   1  24
ATOM     23  N   UNL     1       1.638   7.483  20.996  0.00  0.00    +0.000 N 
ATOM     24  C   UNL     1       0.585   8.229  21.480  0.00  0.00    +0.000 C 
ATOM     25  O   UNL     1      -0.579   7.841  21.325  0.00  0.00    +0.000 OA
ATOM     26  H   UNL     1       2.594   7.669  21.279  0.00  0.00    +0.000 HD
BRANCH  23  27
ATOM     27  C   UNL     1       1.324   6.200  20.376  0.00  0.00    +0.000 C 
BRANCH  27  32
ATOM     28  C   UNL     1       2.730   3.487  18.118  0.00  0.00    +0.000 A 
ATOM     29  C   UNL     1       3.564   4.176  17.254  0.00  0.00    +0.000 A 
ATOM     30  C   UNL     1       3.728   5.556  17.398  0.00  0.00    +0.000 A 
ATOM     31  C   UNL     1       3.057   6.279  18.409  0.00  0.00    +0.000 A 
ATOM     32  C   UNL     1       2.190   5.602  19.279  0.00  0.00    +0.000 A 
ATOM     33  C   UNL     1       2.026   4.199  19.092  0.00  0.00    +0.000 A 
BRANCH  28  35
ATOM     34  C   UNL     1       3.649   1.368  18.574  0.00  0.00    +0.000 C 
ATOM     35  O   UNL     1       2.650   2.137  17.911  0.00  0.00    +0.000 OA
ENDBRANCH  28  35
BRANCH  31  36
ATOM     36  O   UNL     1       3.210   7.630  18.591  0.00  0.00    +0.000 OA
ATOM     37  C   UNL     1       2.566   8.468  17.634  0.00  0.00    +0.000 C 
ENDBRANCH  31  36
ENDBRANCH  27  32
ENDBRANCH  23  27
ENDBRANCH   1  24
TORSDOF 7
ENDMDL
