MODEL 1
REMARK VINA RESULT:      -8.4      0.000      0.000
REMARK  Name = 
REMARK  10 active torsions:
REMARK  status: ('A' for Active; 'I' for Inactive)
REMARK    1  A    between atoms: C_1  and  O_2
REMARK    2  A    between atoms: O_2  and  C_3
REMARK    3  A    between atoms: C_6  and  N_7
REMARK    4  A    between atoms: C_8  and  C_10
REMARK    5  A    between atoms: C_10  and  N_11
REMARK    6  A    between atoms: N_11  and  C_12
REMARK    7  A    between atoms: N_11  and  S_21
REMARK    8  A    between atoms: C_15  and  O_16
REMARK    9  A    between atoms: O_16  and  C_17
REMARK   10  A    between atoms: S_21  and  C_24
REMARK                            x       y       z     vdW  Elec       q    Type
REMARK                         _______ _______ _______ _____ _____    ______ ____
ROOT
ATOM      1  N   UNL     1       4.039   4.619  17.499  0.00  0.00    +0.000 N 
ENDROOT
BRANCH   1   2
ATOM      2  C   UNL     1       5.089   4.765  16.526  0.00  0.00    +0.000 A 
ATOM      3  C   UNL     1       6.190   5.548  16.858  0.00  0.00    +0.000 A 
ATOM      4  C   UNL     1       7.248   5.690  15.956  0.00  0.00    +0.000 A 
ATOM      5  C   UNL     1       7.229   5.059  14.705  0.00  0.00    +0.000 A 
ATOM      6  C   UNL     1       6.103   4.297  14.360  0.00  0.00    +0.000 A 
ATOM      7 CL   UNL     1       5.883   3.547  12.819  0.00  0.00    +0.000 Cl
ATOM      8  C   UNL     1       5.039   4.155  15.270  0.00  0.00    +0.000 A 
BRANCH   5   9
ATOM      9  O   UNL     1       8.315   5.369  13.934  0.00  0.00    +0.000 OA
ATOM     10  C   UNL     1       8.093   5.716  12.573  0.00  0.00    +0.000 C 
ENDBRANCH   5   9
ENDBRANCH   1   2
BRANCH   1  11
ATOM     11  S   UNL     1       3.201   3.137  17.547  0.00  0.00    +0.000 S 
ATOM     12  O   UNL     1       2.084   3.238  16.628  0.00  0.00    +0.000 OA
ATOM     13  O   UNL     1       4.159   2.059  17.411  0.00  0.00    +0.000 OA
BRANCH  11  14
ATOM     14  C   UNL     1       2.527   3.046  19.194  0.00  0.00    +0.000 A 
ATOM     15  C   UNL     1       3.312   2.573  20.251  0.00  0.00    +0.000 A 
ATOM     16  C   UNL     1       2.789   2.564  21.547  0.00  0.00    +0.000 A 
ATOM     17  C   UNL     1       1.499   3.042  21.785  0.00  0.00    +0.000 A 
ATOM     18  C   UNL     1       0.732   3.546  20.734  0.00  0.00    +0.000 A 
ATOM     19  C   UNL     1       1.247   3.557  19.437  0.00  0.00    +0.000 A 
ENDBRANCH  11  14
ENDBRANCH   1  11
BRANCH   1  20
ATOM     20  C   UNL     1       4.170   5.363  18.771  0.00  0.00    +0.000 C 
BRANCH  20  22
ATOM     21  N   UNL     1       2.594   6.863  19.909  0.00  0.00    +0.000 N 
ATOM     22  C   UNL     1       3.303   6.621  18.737  0.00  0.00    +0.000 C 
ATOM     23  O   UNL     1       3.291   7.325  17.731  0.00  0.00    +0.000 OA
ATOM     24  H   UNL     1       2.788   6.272  20.708  0.00  0.00    +0.000 HD
BRANCH  21  28
ATOM     25  C   UNL     1      -0.063  10.123  20.451  0.00  0.00    +0.000 A 
ATOM     26  C   UNL     1       0.199   9.254  21.507  0.00  0.00    +0.000 A 
ATOM     27  C   UNL     1       1.091   8.190  21.355  0.00  0.00    +0.000 A 
ATOM     28  C   UNL     1       1.728   7.961  20.134  0.00  0.00    +0.000 A 
ATOM     29  C   UNL     1       1.489   8.856  19.083  0.00  0.00    +0.000 A 
ATOM     30  C   UNL     1       0.586   9.923  19.235  0.00  0.00    +0.000 A 
BRANCH  25  32
ATOM     31  C   UNL     1      -0.994  11.619  22.039  0.00  0.00    +0.000 C 
ATOM     32  O   UNL     1      -0.994  11.087  20.721  0.00  0.00    +0.000 OA
ENDBRANCH  25  32
ENDBRANCH  21  28
ENDBRANCH  20  22
ENDBRANCH   1  20
TORSDOF 8
ENDMDL
MODEL 2
REMARK VINA RESULT:      -8.2      0.751      1.488
REMARK  Name = 
REMARK  10 active torsions:
REMARK  status: ('A' for Active; 'I' for Inactive)
REMARK    1  A    between atoms: C_1  and  O_2
REMARK    2  A    between atoms: O_2  and  C_3
REMARK    3  A    between atoms: C_6  and  N_7
REMARK    4  A    between atoms: C_8  and  C_10
REMARK    5  A    between atoms: C_10  and  N_11
REMARK    6  A    between atoms: N_11  and  C_12
REMARK    7  A    between atoms: N_11  and  S_21
REMARK    8  A    between atoms: C_15  and  O_16
REMARK    9  A    between atoms: O_16  and  C_17
REMARK   10  A    between atoms: S_21  and  C_24
REMARK                            x       y       z     vdW  Elec       q    Type
REMARK                         _______ _______ _______ _____ _____    ______ ____
ROOT
ATOM      1  N   UNL     1       4.060   4.715  17.327  0.00  0.00    +0.000 N 
ENDROOT
BRANCH   1   2
ATOM      2  C   UNL     1       5.109   4.774  16.343  0.00  0.00    +0.000 A 
ATOM      3  C   UNL     1       6.264   5.484  16.654  0.00  0.00    +0.000 A 
ATOM      4  C   UNL     1       7.321   5.539  15.742  0.00  0.00    +0.000 A 
ATOM      5  C   UNL     1       7.247   4.892  14.501  0.00  0.00    +0.000 A 
ATOM      6  C   UNL     1       6.068   4.205  14.176  0.00  0.00    +0.000 A 
ATOM      7 CL   UNL     1       5.783   3.448  12.649  0.00  0.00    +0.000 Cl
ATOM      8  C   UNL     1       5.005   4.150  15.097  0.00  0.00    +0.000 A 
BRANCH   5   9
ATOM      9  O   UNL     1       8.345   5.115  13.717  0.00  0.00    +0.000 OA
ATOM     10  C   UNL     1       8.187   5.924  12.558  0.00  0.00    +0.000 C 
ENDBRANCH   5   9
ENDBRANCH   1   2
BRANCH   1  11
ATOM     11  S   UNL     1       3.210   3.249  17.495  0.00  0.00    +0.000 S 
ATOM     12  O   UNL     1       2.054   3.312  16.623  0.00  0.00    +0.000 OA
ATOM     13  O   UNL     1       4.150   2.154  17.378  0.00  0.00    +0.000 OA
BRANCH  11  14
ATOM     14  C   UNL     1       2.610   3.259  19.173  0.00  0.00    +0.000 A 
ATOM     15  C   UNL     1       1.373   3.839  19.474  0.00  0.00    +0.000 A 
ATOM     16  C   UNL     1       0.888   3.784  20.784  0.00  0.00    +0.000 A 
ATOM     17  C   UNL     1       1.626   3.140  21.779  0.00  0.00    +0.000 A 
ATOM     18  C   UNL     1       2.843   2.532  21.467  0.00  0.00    +0.000 A 
ATOM     19  C   UNL     1       3.333   2.583  20.161  0.00  0.00    +0.000 A 
ENDBRANCH  11  14
ENDBRANCH   1  11
BRANCH   1  20
ATOM     20  C   UNL     1       4.200   5.559  18.534  0.00  0.00    +0.000 C 
BRANCH  20  22
ATOM     21  N   UNL     1       2.453   7.110  19.291  0.00  0.00    +0.000 N 
ATOM     22  C   UNL     1       3.448   6.877  18.347  0.00  0.00    +0.000 C 
ATOM     23  O   UNL     1       3.758   7.628  17.427  0.00  0.00    +0.000 OA
ATOM     24  H   UNL     1       2.382   6.468  20.070  0.00  0.00    +0.000 HD
BRANCH  21  28
ATOM     25  C   UNL     1       0.048  10.593  19.552  0.00  0.00    +0.000 A 
ATOM     26  C   UNL     1       0.428  10.100  18.307  0.00  0.00    +0.000 A 
ATOM     27  C   UNL     1       1.198   8.939  18.200  0.00  0.00    +0.000 A 
ATOM     28  C   UNL     1       1.621   8.255  19.341  0.00  0.00    +0.000 A 
ATOM     29  C   UNL     1       1.210   8.734  20.592  0.00  0.00    +0.000 A 
ATOM     30  C   UNL     1       0.441   9.906  20.699  0.00  0.00    +0.000 A 
BRANCH  25  32
ATOM     31  C   UNL     1      -0.141  12.788  18.674  0.00  0.00    +0.000 C 
ATOM     32  O   UNL     1      -0.657  11.763  19.513  0.00  0.00    +0.000 OA
ENDBRANCH  25  32
ENDBRANCH  21  28
ENDBRANCH  20  22
ENDBRANCH   1  20
TORSDOF 8
ENDMDL
MODEL 3
REMARK VINA RESULT:      -8.1      1.527      2.022
REMARK  Name = 
REMARK  10 active torsions:
REMARK  status: ('A' for Active; 'I' for Inactive)
REMARK    1  A    between atoms: C_1  and  O_2
REMARK    2  A    between atoms: O_2  and  C_3
REMARK    3  A    between atoms: C_6  and  N_7
REMARK    4  A    between atoms: C_8  and  C_10
REMARK    5  A    between atoms: C_10  and  N_11
REMARK    6  A    between atoms: N_11  and  C_12
REMARK    7  A    between atoms: N_11  and  S_21
REMARK    8  A    between atoms: C_15  and  O_16
REMARK    9  A    between atoms: O_16  and  C_17
REMARK   10  A    between atoms: S_21  and  C_24
REMARK                            x       y       z     vdW  Elec       q    Type
REMARK                         _______ _______ _______ _____ _____    ______ ____
ROOT
ATOM      1  N   UNL     1       3.314   5.362  17.941  0.00  0.00    +0.000 N 
ENDROOT
BRANCH   1   2
ATOM      2  C   UNL     1       4.520   5.452  17.161  0.00  0.00    +0.000 A 
ATOM      3  C   UNL     1       4.647   4.625  16.049  0.00  0.00    +0.000 A 
ATOM      4  C   UNL     1       5.786   4.702  15.243  0.00  0.00    +0.000 A 
ATOM      5  C   UNL     1       6.821   5.602  15.531  0.00  0.00    +0.000 A 
ATOM      6  C   UNL     1       6.706   6.411  16.671  0.00  0.00    +0.000 A 
ATOM      7 CL   UNL     1       7.939   7.490  17.217  0.00  0.00    +0.000 Cl
ATOM      8  C   UNL     1       5.557   6.331  17.480  0.00  0.00    +0.000 A 
BRANCH   5   9
ATOM      9  O   UNL     1       7.882   5.486  14.674  0.00  0.00    +0.000 OA
ATOM     10  C   UNL     1       7.618   5.101  13.331  0.00  0.00    +0.000 C 
ENDBRANCH   5   9
ENDBRANCH   1   2
BRANCH   1  11
ATOM     11  S   UNL     1       2.346   3.975  17.750  0.00  0.00    +0.000 S 
ATOM     12  O   UNL     1       1.021   4.417  17.362  0.00  0.00    +0.000 OA
ATOM     13  O   UNL     1       3.062   3.019  16.931  0.00  0.00    +0.000 OA
BRANCH  11  14
ATOM     14  C   UNL     1       2.214   3.280  19.386  0.00  0.00    +0.000 A 
ATOM     15  C   UNL     1       3.333   2.705  19.998  0.00  0.00    +0.000 A 
ATOM     16  C   UNL     1       3.229   2.219  21.305  0.00  0.00    +0.000 A 
ATOM     17  C   UNL     1       2.022   2.325  21.998  0.00  0.00    +0.000 A 
ATOM     18  C   UNL     1       0.918   2.931  21.397  0.00  0.00    +0.000 A 
ATOM     19  C   UNL     1       1.015   3.418  20.093  0.00  0.00    +0.000 A 
ENDBRANCH  11  14
ENDBRANCH   1  11
BRANCH   1  20
ATOM     20  C   UNL     1       3.301   6.019  19.267  0.00  0.00    +0.000 C 
BRANCH  20  22
ATOM     21  N   UNL     1       1.924   7.634  20.503  0.00  0.00    +0.000 N 
ATOM     22  C   UNL     1       2.365   7.228  19.247  0.00  0.00    +0.000 C 
ATOM     23  O   UNL     1       2.080   7.758  18.178  0.00  0.00    +0.000 OA
ATOM     24  H   UNL     1       2.333   7.186  21.314  0.00  0.00    +0.000 HD
BRANCH  21  28
ATOM     25  C   UNL     1      -0.576  10.946  21.373  0.00  0.00    +0.000 A 
ATOM     26  C   UNL     1      -0.236  10.657  20.055  0.00  0.00    +0.000 A 
ATOM     27  C   UNL     1       0.566   9.555  19.746  0.00  0.00    +0.000 A 
ATOM     28  C   UNL     1       1.060   8.727  20.756  0.00  0.00    +0.000 A 
ATOM     29  C   UNL     1       0.689   9.000  22.079  0.00  0.00    +0.000 A 
ATOM     30  C   UNL     1      -0.112  10.113  22.389  0.00  0.00    +0.000 A 
BRANCH  25  32
ATOM     31  C   UNL     1      -1.373  12.969  20.428  0.00  0.00    +0.000 C 
ATOM     32  O   UNL     1      -1.319  12.081  21.537  0.00  0.00    +0.000 OA
ENDBRANCH  25  32
ENDBRANCH  21  28
ENDBRANCH  20  22
ENDBRANCH   1  20
TORSDOF 8
ENDMDL
MODEL 4
REMARK VINA RESULT:      -8.0      1.612      2.082
REMARK  Name = 
REMARK  10 active torsions:
REMARK  status: ('A' for Active; 'I' for Inactive)
REMARK    1  A    between atoms: C_1  and  O_2
REMARK    2  A    between atoms: O_2  and  C_3
REMARK    3  A    between atoms: C_6  and  N_7
REMARK    4  A    between atoms: C_8  and  C_10
REMARK    5  A    between atoms: C_10  and  N_11
REMARK    6  A    between atoms: N_11  and  C_12
REMARK    7  A    between atoms: N_11  and  S_21
REMARK    8  A    between atoms: C_15  and  O_16
REMARK    9  A    between atoms: O_16  and  C_17
REMARK   10  A    between atoms: S_21  and  C_24
REMARK                            x       y       z     vdW  Elec       q    Type
REMARK                         _______ _______ _______ _____ _____    ______ ____
ROOT
ATOM      1  N   UNL     1       3.195   5.472  17.728  0.00  0.00    +0.000 N 
ENDROOT
BRANCH   1   2
ATOM      2  C   UNL     1       4.458   5.403  17.041  0.00  0.00    +0.000 A 
ATOM      3  C   UNL     1       4.501   5.781  15.703  0.00  0.00    +0.000 A 
ATOM      4  C   UNL     1       5.712   5.763  15.006  0.00  0.00    +0.000 A 
ATOM      5  C   UNL     1       6.903   5.363  15.628  0.00  0.00    +0.000 A 
ATOM      6  C   UNL     1       6.851   4.951  16.968  0.00  0.00    +0.000 A 
ATOM      7 CL   UNL     1       8.209   4.332  17.839  0.00  0.00    +0.000 Cl
ATOM      8  C   UNL     1       5.630   4.972  17.667  0.00  0.00    +0.000 A 
BRANCH   5   9
ATOM      9  O   UNL     1       7.970   5.343  14.772  0.00  0.00    +0.000 OA
ATOM     10  C   UNL     1       7.722   5.061  13.401  0.00  0.00    +0.000 C 
ENDBRANCH   5   9
ENDBRANCH   1   2
BRANCH   1  11
ATOM     11  S   UNL     1       2.196   4.093  17.694  0.00  0.00    +0.000 S 
ATOM     12  O   UNL     1       0.847   4.539  17.404  0.00  0.00    +0.000 OA
ATOM     13  O   UNL     1       2.824   3.087  16.863  0.00  0.00    +0.000 OA
BRANCH  11  14
ATOM     14  C   UNL     1       2.203   3.481  19.367  0.00  0.00    +0.000 A 
ATOM     15  C   UNL     1       1.031   3.504  20.130  0.00  0.00    +0.000 A 
ATOM     16  C   UNL     1       1.038   2.965  21.420  0.00  0.00    +0.000 A 
ATOM     17  C   UNL     1       2.203   2.392  21.934  0.00  0.00    +0.000 A 
ATOM     18  C   UNL     1       3.361   2.340  21.157  0.00  0.00    +0.000 A 
ATOM     19  C   UNL     1       3.361   2.877  19.869  0.00  0.00    +0.000 A 
ENDBRANCH  11  14
ENDBRANCH   1  11
BRANCH   1  20
ATOM     20  C   UNL     1       3.106   6.342  18.922  0.00  0.00    +0.000 C 
BRANCH  20  22
ATOM     21  N   UNL     1       1.829   8.278  19.726  0.00  0.00    +0.000 N 
ATOM     22  C   UNL     1       2.278   7.587  18.606  0.00  0.00    +0.000 C 
ATOM     23  O   UNL     1       2.078   7.904  17.437  0.00  0.00    +0.000 OA
ATOM     24  H   UNL     1       2.168   7.980  20.632  0.00  0.00    +0.000 HD
BRANCH  21  28
ATOM     25  C   UNL     1      -0.488  11.824  19.510  0.00  0.00    +0.000 A 
ATOM     26  C   UNL     1      -0.869  10.793  20.365  0.00  0.00    +0.000 A 
ATOM     27  C   UNL     1      -0.104   9.629  20.469  0.00  0.00    +0.000 A 
ATOM     28  C   UNL     1       1.052   9.463  19.704  0.00  0.00    +0.000 A 
ATOM     29  C   UNL     1       1.451  10.514  18.869  0.00  0.00    +0.000 A 
ATOM     30  C   UNL     1       0.677  11.683  18.760  0.00  0.00    +0.000 A 
BRANCH  25  32
ATOM     31  C   UNL     1      -2.483  12.811  20.327  0.00  0.00    +0.000 C 
ATOM     32  O   UNL     1      -1.354  12.880  19.467  0.00  0.00    +0.000 OA
ENDBRANCH  25  32
ENDBRANCH  21  28
ENDBRANCH  20  22
ENDBRANCH   1  20
TORSDOF 8
ENDMDL
MODEL 5
REMARK VINA RESULT:      -8.0      1.599      2.053
REMARK  Name = 
REMARK  10 active torsions:
REMARK  status: ('A' for Active; 'I' for Inactive)
REMARK    1  A    between atoms: C_1  and  O_2
REMARK    2  A    between atoms: O_2  and  C_3
REMARK    3  A    between atoms: C_6  and  N_7
REMARK    4  A    between atoms: C_8  and  C_10
REMARK    5  A    between atoms: C_10  and  N_11
REMARK    6  A    between atoms: N_11  and  C_12
REMARK    7  A    between atoms: N_11  and  S_21
REMARK    8  A    between atoms: C_15  and  O_16
REMARK    9  A    between atoms: O_16  and  C_17
REMARK   10  A    between atoms: S_21  and  C_24
REMARK                            x       y       z     vdW  Elec       q    Type
REMARK                         _______ _______ _______ _____ _____    ______ ____
ROOT
ATOM      1  N   UNL     1       3.206   5.431  17.738  0.00  0.00    +0.000 N 
ENDROOT
BRANCH   1   2
ATOM      2  C   UNL     1       4.466   5.336  17.049  0.00  0.00    +0.000 A 
ATOM      3  C   UNL     1       4.498   5.638  15.691  0.00  0.00    +0.000 A 
ATOM      4  C   UNL     1       5.706   5.592  14.989  0.00  0.00    +0.000 A 
ATOM      5  C   UNL     1       6.904   5.240  15.626  0.00  0.00    +0.000 A 
ATOM      6  C   UNL     1       6.863   4.904  16.987  0.00  0.00    +0.000 A 
ATOM      7 CL   UNL     1       8.231   4.348  17.884  0.00  0.00    +0.000 Cl
ATOM      8  C   UNL     1       5.645   4.952  17.691  0.00  0.00    +0.000 A 
BRANCH   5   9
ATOM      9  O   UNL     1       7.966   5.182  14.766  0.00  0.00    +0.000 OA
ATOM     10  C   UNL     1       7.699   5.185  13.370  0.00  0.00    +0.000 C 
ENDBRANCH   5   9
ENDBRANCH   1   2
BRANCH   1  11
ATOM     11  S   UNL     1       2.149   4.099  17.648  0.00  0.00    +0.000 S 
ATOM     12  O   UNL     1       0.814   4.616  17.423  0.00  0.00    +0.000 OA
ATOM     13  O   UNL     1       2.713   3.121  16.741  0.00  0.00    +0.000 OA
BRANCH  11  14
ATOM     14  C   UNL     1       2.173   3.386  19.281  0.00  0.00    +0.000 A 
ATOM     15  C   UNL     1       3.355   2.841  19.794  0.00  0.00    +0.000 A 
ATOM     16  C   UNL     1       3.373   2.341  21.099  0.00  0.00    +0.000 A 
ATOM     17  C   UNL     1       2.224   2.402  21.890  0.00  0.00    +0.000 A 
ATOM     18  C   UNL     1       1.056   2.979  21.387  0.00  0.00    +0.000 A 
ATOM     19  C   UNL     1       1.031   3.481  20.085  0.00  0.00    +0.000 A 
ENDBRANCH  11  14
ENDBRANCH   1  11
BRANCH   1  20
ATOM     20  C   UNL     1       3.153   6.256  18.965  0.00  0.00    +0.000 C 
BRANCH  20  22
ATOM     21  N   UNL     1       1.703   8.091  19.715  0.00  0.00    +0.000 N 
ATOM     22  C   UNL     1       2.478   7.596  18.671  0.00  0.00    +0.000 C 
ATOM     23  O   UNL     1       2.659   8.143  17.587  0.00  0.00    +0.000 OA
ATOM     24  H   UNL     1       1.737   7.601  20.600  0.00  0.00    +0.000 HD
BRANCH  21  28
ATOM     25  C   UNL     1      -0.340  11.807  19.738  0.00  0.00    +0.000 A 
ATOM     26  C   UNL     1      -0.277  11.053  18.569  0.00  0.00    +0.000 A 
ATOM     27  C   UNL     1       0.369   9.815  18.549  0.00  0.00    +0.000 A 
ATOM     28  C   UNL     1       0.984   9.311  19.697  0.00  0.00    +0.000 A 
ATOM     29  C   UNL     1       0.890  10.055  20.880  0.00  0.00    +0.000 A 
ATOM     30  C   UNL     1       0.245  11.304  20.898  0.00  0.00    +0.000 A 
BRANCH  25  32
ATOM     31  C   UNL     1      -0.815  13.925  20.691  0.00  0.00    +0.000 C 
ATOM     32  O   UNL     1      -0.955  13.020  19.604  0.00  0.00    +0.000 OA
ENDBRANCH  25  32
ENDBRANCH  21  28
ENDBRANCH  20  22
ENDBRANCH   1  20
TORSDOF 8
ENDMDL
MODEL 6
REMARK VINA RESULT:      -8.0      2.317      3.178
REMARK  Name = 
REMARK  10 active torsions:
REMARK  status: ('A' for Active; 'I' for Inactive)
REMARK    1  A    between atoms: C_1  and  O_2
REMARK    2  A    between atoms: O_2  and  C_3
REMARK    3  A    between atoms: C_6  and  N_7
REMARK    4  A    between atoms: C_8  and  C_10
REMARK    5  A    between atoms: C_10  and  N_11
REMARK    6  A    between atoms: N_11  and  C_12
REMARK    7  A    between atoms: N_11  and  S_21
REMARK    8  A    between atoms: C_15  and  O_16
REMARK    9  A    between atoms: O_16  and  C_17
REMARK   10  A    between atoms: S_21  and  C_24
REMARK                            x       y       z     vdW  Elec       q    Type
REMARK                         _______ _______ _______ _____ _____    ______ ____
ROOT
ATOM      1  N   UNL     1       2.670   5.701  18.706  0.00  0.00    +0.000 N 
ENDROOT
BRANCH   1   2
ATOM      2  C   UNL     1       3.949   5.548  18.065  0.00  0.00    +0.000 A 
ATOM      3  C   UNL     1       3.976   5.118  16.742  0.00  0.00    +0.000 A 
ATOM      4  C   UNL     1       5.194   4.989  16.070  0.00  0.00    +0.000 A 
ATOM      5  C   UNL     1       6.410   5.281  16.704  0.00  0.00    +0.000 A 
ATOM      6  C   UNL     1       6.382   5.682  18.048  0.00  0.00    +0.000 A 
ATOM      7 CL   UNL     1       7.797   5.974  18.996  0.00  0.00    +0.000 Cl
ATOM      8  C   UNL     1       5.154   5.813  18.722  0.00  0.00    +0.000 A 
BRANCH   5   9
ATOM      9  O   UNL     1       7.497   5.029  15.913  0.00  0.00    +0.000 OA
ATOM     10  C   UNL     1       7.288   4.881  14.515  0.00  0.00    +0.000 C 
ENDBRANCH   5   9
ENDBRANCH   1   2
BRANCH   1  11
ATOM     11  S   UNL     1       1.684   4.320  18.850  0.00  0.00    +0.000 S 
ATOM     12  O   UNL     1       0.871   4.487  20.039  0.00  0.00    +0.000 OA
ATOM     13  O   UNL     1       1.057   4.062  17.570  0.00  0.00    +0.000 OA
BRANCH  11  14
ATOM     14  C   UNL     1       2.816   2.981  19.168  0.00  0.00    +0.000 A 
ATOM     15  C   UNL     1       3.045   2.006  18.190  0.00  0.00    +0.000 A 
ATOM     16  C   UNL     1       3.981   0.997  18.431  0.00  0.00    +0.000 A 
ATOM     17  C   UNL     1       4.695   0.974  19.630  0.00  0.00    +0.000 A 
ATOM     18  C   UNL     1       4.490   1.969  20.588  0.00  0.00    +0.000 A 
ATOM     19  C   UNL     1       3.557   2.979  20.355  0.00  0.00    +0.000 A 
ENDBRANCH  11  14
ENDBRANCH   1  11
BRANCH   1  20
ATOM     20  C   UNL     1       2.545   6.735  19.757  0.00  0.00    +0.000 C 
BRANCH  20  22
ATOM     21  N   UNL     1       1.269   8.817  20.012  0.00  0.00    +0.000 N 
ATOM     22  C   UNL     1       2.041   8.045  19.151  0.00  0.00    +0.000 C 
ATOM     23  O   UNL     1       2.344   8.337  17.997  0.00  0.00    +0.000 OA
ATOM     24  H   UNL     1       1.197   8.520  20.977  0.00  0.00    +0.000 HD
BRANCH  21  28
ATOM     25  C   UNL     1      -0.321  12.631  19.059  0.00  0.00    +0.000 A 
ATOM     26  C   UNL     1      -0.820  11.492  18.434  0.00  0.00    +0.000 A 
ATOM     27  C   UNL     1      -0.327  10.225  18.754  0.00  0.00    +0.000 A 
ATOM     28  C   UNL     1       0.692  10.072  19.696  0.00  0.00    +0.000 A 
ATOM     29  C   UNL     1       1.170  11.216  20.347  0.00  0.00    +0.000 A 
ATOM     30  C   UNL     1       0.677  12.492  20.020  0.00  0.00    +0.000 A 
BRANCH  25  32
ATOM     31  C   UNL     1      -0.113  14.988  18.896  0.00  0.00    +0.000 C 
ATOM     32  O   UNL     1      -0.855  13.808  18.613  0.00  0.00    +0.000 OA
ENDBRANCH  25  32
ENDBRANCH  21  28
ENDBRANCH  20  22
ENDBRANCH   1  20
TORSDOF 8
ENDMDL
MODEL 7
REMARK VINA RESULT:      -7.9      1.033      1.123
REMARK  Name = 
REMARK  10 active torsions:
REMARK  status: ('A' for Active; 'I' for Inactive)
REMARK    1  A    between atoms: C_1  and  O_2
REMARK    2  A    between atoms: O_2  and  C_3
REMARK    3  A    between atoms: C_6  and  N_7
REMARK    4  A    between atoms: C_8  and  C_10
REMARK    5  A    between atoms: C_10  and  N_11
REMARK    6  A    between atoms: N_11  and  C_12
REMARK    7  A    between atoms: N_11  and  S_21
REMARK    8  A    between atoms: C_15  and  O_16
REMARK    9  A    between atoms: O_16  and  C_17
REMARK   10  A    between atoms: S_21  and  C_24
REMARK                            x       y       z     vdW  Elec       q    Type
REMARK                         _______ _______ _______ _____ _____    ______ ____
ROOT
ATOM      1  N   UNL     1       4.216   4.231  17.170  0.00  0.00    +0.000 N 
ENDROOT
BRANCH   1   2
ATOM      2  C   UNL     1       5.048   4.308  15.998  0.00  0.00    +0.000 A 
ATOM      3  C   UNL     1       6.341   4.802  16.139  0.00  0.00    +0.000 A 
ATOM      4  C   UNL     1       7.194   4.863  15.034  0.00  0.00    +0.000 A 
ATOM      5  C   UNL     1       6.775   4.436  13.767  0.00  0.00    +0.000 A 
ATOM      6  C   UNL     1       5.460   3.969  13.620  0.00  0.00    +0.000 A 
ATOM      7 CL   UNL     1       4.764   3.508  12.108  0.00  0.00    +0.000 Cl
ATOM      8  C   UNL     1       4.604   3.908  14.735  0.00  0.00    +0.000 A 
BRANCH   5   9
ATOM      9  O   UNL     1       7.720   4.635  12.798  0.00  0.00    +0.000 OA
ATOM     10  C   UNL     1       8.466   5.845  12.830  0.00  0.00    +0.000 C 
ENDBRANCH   5   9
ENDBRANCH   1   2
BRANCH   1  11
ATOM     11  S   UNL     1       3.339   2.795  17.428  0.00  0.00    +0.000 S 
ATOM     12  O   UNL     1       2.233   2.785  16.491  0.00  0.00    +0.000 OA
ATOM     13  O   UNL     1       4.268   1.685  17.469  0.00  0.00    +0.000 OA
BRANCH  11  14
ATOM     14  C   UNL     1       2.647   2.969  19.061  0.00  0.00    +0.000 A 
ATOM     15  C   UNL     1       3.369   2.543  20.181  0.00  0.00    +0.000 A 
ATOM     16  C   UNL     1       2.839   2.742  21.459  0.00  0.00    +0.000 A 
ATOM     17  C   UNL     1       1.606   3.378  21.615  0.00  0.00    +0.000 A 
ATOM     18  C   UNL     1       0.905   3.833  20.498  0.00  0.00    +0.000 A 
ATOM     19  C   UNL     1       1.428   3.638  19.219  0.00  0.00    +0.000 A 
ENDBRANCH  11  14
ENDBRANCH   1  11
BRANCH   1  20
ATOM     20  C   UNL     1       4.643   4.988  18.368  0.00  0.00    +0.000 C 
BRANCH  20  22
ATOM     21  N   UNL     1       2.864   6.543  19.036  0.00  0.00    +0.000 N 
ATOM     22  C   UNL     1       4.057   6.400  18.335  0.00  0.00    +0.000 C 
ATOM     23  O   UNL     1       4.650   7.290  17.733  0.00  0.00    +0.000 OA
ATOM     24  H   UNL     1       2.546   5.759  19.591  0.00  0.00    +0.000 HD
BRANCH  21  28
ATOM     25  C   UNL     1       0.576  10.104  19.301  0.00  0.00    +0.000 A 
ATOM     26  C   UNL     1       0.855   9.368  20.449  0.00  0.00    +0.000 A 
ATOM     27  C   UNL     1       1.629   8.206  20.385  0.00  0.00    +0.000 A 
ATOM     28  C   UNL     1       2.127   7.746  19.165  0.00  0.00    +0.000 A 
ATOM     29  C   UNL     1       1.873   8.506  18.016  0.00  0.00    +0.000 A 
ATOM     30  C   UNL     1       1.088   9.671  18.080  0.00  0.00    +0.000 A 
BRANCH  25  32
ATOM     31  C   UNL     1      -1.243  11.410  18.522  0.00  0.00    +0.000 C 
ATOM     32  O   UNL     1      -0.235  11.187  19.499  0.00  0.00    +0.000 OA
ENDBRANCH  25  32
ENDBRANCH  21  28
ENDBRANCH  20  22
ENDBRANCH   1  20
TORSDOF 8
ENDMDL
MODEL 8
REMARK VINA RESULT:      -7.9      2.154      3.088
REMARK  Name = 
REMARK  10 active torsions:
REMARK  status: ('A' for Active; 'I' for Inactive)
REMARK    1  A    between atoms: C_1  and  O_2
REMARK    2  A    between atoms: O_2  and  C_3
REMARK    3  A    between atoms: C_6  and  N_7
REMARK    4  A    between atoms: C_8  and  C_10
REMARK    5  A    between atoms: C_10  and  N_11
REMARK    6  A    between atoms: N_11  and  C_12
REMARK    7  A    between atoms: N_11  and  S_21
REMARK    8  A    between atoms: C_15  and  O_16
REMARK    9  A    between atoms: O_16  and  C_17
REMARK   10  A    between atoms: S_21  and  C_24
REMARK                            x       y       z     vdW  Elec       q    Type
REMARK                         _______ _______ _______ _____ _____    ______ ____
ROOT
ATOM      1  N   UNL     1       2.717   5.757  19.183  0.00  0.00    +0.000 N 
ENDROOT
BRANCH   1   2
ATOM      2  C   UNL     1       3.944   5.798  18.432  0.00  0.00    +0.000 A 
ATOM      3  C   UNL     1       3.866   5.899  17.047  0.00  0.00    +0.000 A 
ATOM      4  C   UNL     1       5.032   5.976  16.281  0.00  0.00    +0.000 A 
ATOM      5  C   UNL     1       6.299   5.949  16.881  0.00  0.00    +0.000 A 
ATOM      6  C   UNL     1       6.376   5.813  18.274  0.00  0.00    +0.000 A 
ATOM      7 CL   UNL     1       7.859   5.659  19.148  0.00  0.00    +0.000 Cl
ATOM      8  C   UNL     1       5.199   5.738  19.043  0.00  0.00    +0.000 A 
BRANCH   5   9
ATOM      9  O   UNL     1       7.320   5.964  15.970  0.00  0.00    +0.000 OA
ATOM     10  C   UNL     1       7.232   5.090  14.851  0.00  0.00    +0.000 C 
ENDBRANCH   5   9
ENDBRANCH   1   2
BRANCH   1  11
ATOM     11  S   UNL     1       1.709   4.399  18.984  0.00  0.00    +0.000 S 
ATOM     12  O   UNL     1       0.798   4.363  20.111  0.00  0.00    +0.000 OA
ATOM     13  O   UNL     1       1.193   4.400  17.631  0.00  0.00    +0.000 OA
BRANCH  11  14
ATOM     14  C   UNL     1       2.797   2.996  19.138  0.00  0.00    +0.000 A 
ATOM     15  C   UNL     1       3.011   2.148  18.045  0.00  0.00    +0.000 A 
ATOM     16  C   UNL     1       3.914   1.088  18.164  0.00  0.00    +0.000 A 
ATOM     17  C   UNL     1       4.610   0.889  19.357  0.00  0.00    +0.000 A 
ATOM     18  C   UNL     1       4.421   1.759  20.433  0.00  0.00    +0.000 A 
ATOM     19  C   UNL     1       3.521   2.819  20.322  0.00  0.00    +0.000 A 
ENDBRANCH  11  14
ENDBRANCH   1  11
BRANCH   1  20
ATOM     20  C   UNL     1       2.692   6.432  20.499  0.00  0.00    +0.000 C 
BRANCH  20  22
ATOM     21  N   UNL     1       1.495   8.235  21.659  0.00  0.00    +0.000 N 
ATOM     22  C   UNL     1       1.852   7.707  20.423  0.00  0.00    +0.000 C 
ATOM     23  O   UNL     1       1.565   8.181  19.327  0.00  0.00    +0.000 OA
ATOM     24  H   UNL     1       1.900   7.816  22.486  0.00  0.00    +0.000 HD
BRANCH  21  28
ATOM     25  C   UNL     1      -0.824  11.757  22.112  0.00  0.00    +0.000 A 
ATOM     26  C   UNL     1      -1.009  10.684  22.980  0.00  0.00    +0.000 A 
ATOM     27  C   UNL     1      -0.237   9.526  22.862  0.00  0.00    +0.000 A 
ATOM     28  C   UNL     1       0.728   9.409  21.860  0.00  0.00    +0.000 A 
ATOM     29  C   UNL     1       0.935  10.503  21.008  0.00  0.00    +0.000 A 
ATOM     30  C   UNL     1       0.153  11.665  21.123  0.00  0.00    +0.000 A 
BRANCH  25  32
ATOM     31  C   UNL     1      -2.989  12.660  21.765  0.00  0.00    +0.000 C 
ATOM     32  O   UNL     1      -1.682  12.803  22.305  0.00  0.00    +0.000 OA
ENDBRANCH  25  32
ENDBRANCH  21  28
ENDBRANCH  20  22
ENDBRANCH   1  20
TORSDOF 8
ENDMDL
MODEL 9
REMARK VINA RESULT:      -7.9      4.884     10.206
REMARK  Name = 
REMARK  10 active torsions:
REMARK  status: ('A' for Active; 'I' for Inactive)
REMARK    1  A    between atoms: C_1  and  O_2
REMARK    2  A    between atoms: O_2  and  C_3
REMARK    3  A    between atoms: C_6  and  N_7
REMARK    4  A    between atoms: C_8  and  C_10
REMARK    5  A    between atoms: C_10  and  N_11
REMARK    6  A    between atoms: N_11  and  C_12
REMARK    7  A    between atoms: N_11  and  S_21
REMARK    8  A    between atoms: C_15  and  O_16
REMARK    9  A    between atoms: O_16  and  C_17
REMARK   10  A    between atoms: S_21  and  C_24
REMARK                            x       y       z     vdW  Elec       q    Type
REMARK                         _______ _______ _______ _____ _____    ______ ____
ROOT
ATOM      1  N   UNL     1       0.142  10.964  20.771  0.00  0.00    +0.000 N 
ENDROOT
BRANCH   1   2
ATOM      2  C   UNL     1      -0.457  11.941  21.643  0.00  0.00    +0.000 A 
ATOM      3  C   UNL     1       0.161  13.181  21.765  0.00  0.00    +0.000 A 
ATOM      4  C   UNL     1      -0.404  14.171  22.574  0.00  0.00    +0.000 A 
ATOM      5  C   UNL     1      -1.593  13.942  23.280  0.00  0.00    +0.000 A 
ATOM      6  C   UNL     1      -2.196  12.680  23.182  0.00  0.00    +0.000 A 
ATOM      7 CL   UNL     1      -3.601  12.210  24.071  0.00  0.00    +0.000 Cl
ATOM      8  C   UNL     1      -1.625  11.685  22.365  0.00  0.00    +0.000 A 
BRANCH   5   9
ATOM      9  O   UNL     1      -1.955  14.998  24.070  0.00  0.00    +0.000 OA
ATOM     10  C   UNL     1      -3.002  15.847  23.616  0.00  0.00    +0.000 C 
ENDBRANCH   5   9
ENDBRANCH   1   2
BRANCH   1  11
ATOM     11  S   UNL     1       0.234  11.332  19.111  0.00  0.00    +0.000 S 
ATOM     12  O   UNL     1       0.463  12.759  18.993  0.00  0.00    +0.000 OA
ATOM     13  O   UNL     1       1.141  10.396  18.479  0.00  0.00    +0.000 OA
BRANCH  11  14
ATOM     14  C   UNL     1      -1.398  11.003  18.478  0.00  0.00    +0.000 A 
ATOM     15  C   UNL     1      -2.478  11.807  18.861  0.00  0.00    +0.000 A 
ATOM     16  C   UNL     1      -3.740  11.573  18.309  0.00  0.00    +0.000 A 
ATOM     17  C   UNL     1      -3.917  10.557  17.369  0.00  0.00    +0.000 A 
ATOM     18  C   UNL     1      -2.831   9.780  16.963  0.00  0.00    +0.000 A 
ATOM     19  C   UNL     1      -1.568  10.007  17.510  0.00  0.00    +0.000 A 
ENDBRANCH  11  14
ENDBRANCH   1  11
BRANCH   1  20
ATOM     20  C   UNL     1       1.202  10.098  21.332  0.00  0.00    +0.000 C 
BRANCH  20  22
ATOM     21  N   UNL     1       1.945   7.961  20.379  0.00  0.00    +0.000 N 
ATOM     22  C   UNL     1       0.907   8.632  21.017  0.00  0.00    +0.000 C 
ATOM     23  O   UNL     1      -0.173   8.146  21.342  0.00  0.00    +0.000 OA
ATOM     24  H   UNL     1       2.828   8.444  20.280  0.00  0.00    +0.000 HD
BRANCH  21  28
ATOM     25  C   UNL     1       2.017   3.905  19.141  0.00  0.00    +0.000 A 
ATOM     26  C   UNL     1       1.618   4.232  20.434  0.00  0.00    +0.000 A 
ATOM     27  C   UNL     1       1.564   5.564  20.852  0.00  0.00    +0.000 A 
ATOM     28  C   UNL     1       1.925   6.599  19.988  0.00  0.00    +0.000 A 
ATOM     29  C   UNL     1       2.294   6.270  18.677  0.00  0.00    +0.000 A 
ATOM     30  C   UNL     1       2.356   4.929  18.259  0.00  0.00    +0.000 A 
BRANCH  25  32
ATOM     31  C   UNL     1       2.838   2.170  17.749  0.00  0.00    +0.000 C 
ATOM     32  O   UNL     1       2.077   2.564  18.883  0.00  0.00    +0.000 OA
ENDBRANCH  25  32
ENDBRANCH  21  28
ENDBRANCH  20  22
ENDBRANCH   1  20
TORSDOF 8
ENDMDL
