MODEL 1
REMARK VINA RESULT:      -7.7      0.000      0.000
REMARK  Name = 
REMARK  5 active torsions:
REMARK  status: ('A' for Active; 'I' for Inactive)
REMARK    1  A    between atoms: C_1  and  O_2
REMARK    2  A    between atoms: O_2  and  C_3
REMARK    3  A    between atoms: C_7  and  C_8
REMARK    4  A    between atoms: C_8  and  C_9
REMARK    5  A    between atoms: C_14  and  C_15
REMARK                            x       y       z     vdW  Elec       q    Type
REMARK                         _______ _______ _______ _____ _____    ______ ____
ROOT
ATOM      1  C   UNL     1       2.317   5.328  19.614  0.00  0.00    +0.000 C 
ATOM      2  O   UNL     1       1.686   5.376  20.669  0.00  0.00    +0.000 OA
ATOM      3  N   UNL     1       2.555   6.375  18.744  0.00  0.00    +0.000 N 
ATOM      4  C   UNL     1       2.093   7.625  19.046  0.00  0.00    +0.000 A 
ATOM      5  N   UNL     1       1.636   8.037  20.195  0.00  0.00    +0.000 NA
ATOM      6  C   UNL     1       1.094   9.301  20.066  0.00  0.00    +0.000 A 
ATOM      7  C   UNL     1       1.243   9.862  18.810  0.00  0.00    +0.000 A 
ATOM      8  S   UNL     1       2.087   8.763  17.780  0.00  0.00    +0.000 S 
ATOM      9  H   UNL     1       2.898   6.214  17.808  0.00  0.00    +0.000 HD
ENDROOT
BRANCH   6  10
ATOM     10  C   UNL     1       0.398   9.914  21.191  0.00  0.00    +0.000 A 
ATOM     11  C   UNL     1       0.281   9.206  22.377  0.00  0.00    +0.000 A 
ATOM     12  C   UNL     1      -0.424   9.820  23.381  0.00  0.00    +0.000 A 
ATOM     13  N   UNL     1      -0.980  11.040  23.250  0.00  0.00    +0.000 NA
ATOM     14  C   UNL     1      -0.808  11.635  22.059  0.00  0.00    +0.000 A 
ATOM     15  N   UNL     1      -0.136  11.139  21.009  0.00  0.00    +0.000 NA
ENDBRANCH   6  10
BRANCH   1  16
ATOM     16  C   UNL     1       2.909   4.013  19.156  0.00  0.00    +0.000 C 
BRANCH  16  21
ATOM     17  C   UNL     1       6.525   4.615  18.128  0.00  0.00    +0.000 A 
ATOM     18  C   UNL     1       6.472   4.335  16.762  0.00  0.00    +0.000 A 
ATOM     19  C   UNL     1       5.268   3.968  16.159  0.00  0.00    +0.000 A 
ATOM     20  C   UNL     1       4.105   3.880  16.922  0.00  0.00    +0.000 A 
ATOM     21  C   UNL     1       4.138   4.162  18.296  0.00  0.00    +0.000 A 
ATOM     22  C   UNL     1       5.356   4.526  18.889  0.00  0.00    +0.000 A 
BRANCH  17  24
ATOM     23  C   UNL     1       7.988   6.343  18.841  0.00  0.00    +0.000 C 
ATOM     24  O   UNL     1       7.760   4.959  18.604  0.00  0.00    +0.000 OA
ENDBRANCH  17  24
ENDBRANCH  16  21
ENDBRANCH   1  16
TORSDOF 4
ENDMDL
MODEL 2
REMARK VINA RESULT:      -7.7      1.143      2.032
REMARK  Name = 
REMARK  5 active torsions:
REMARK  status: ('A' for Active; 'I' for Inactive)
REMARK    1  A    between atoms: C_1  and  O_2
REMARK    2  A    between atoms: O_2  and  C_3
REMARK    3  A    between atoms: C_7  and  C_8
REMARK    4  A    between atoms: C_8  and  C_9
REMARK    5  A    between atoms: C_14  and  C_15
REMARK                            x       y       z     vdW  Elec       q    Type
REMARK                         _______ _______ _______ _____ _____    ______ ____
ROOT
ATOM      1  C   UNL     1       2.759   5.460  19.483  0.00  0.00    +0.000 C 
ATOM      2  O   UNL     1       2.163   5.429  20.557  0.00  0.00    +0.000 OA
ATOM      3  N   UNL     1       2.844   6.531  18.613  0.00  0.00    +0.000 N 
ATOM      4  C   UNL     1       2.247   7.716  18.939  0.00  0.00    +0.000 A 
ATOM      5  N   UNL     1       1.783   8.067  20.105  0.00  0.00    +0.000 NA
ATOM      6  C   UNL     1       1.091   9.258  20.003  0.00  0.00    +0.000 A 
ATOM      7  C   UNL     1       1.131   9.838  18.747  0.00  0.00    +0.000 A 
ATOM      8  S   UNL     1       2.064   8.850  17.682  0.00  0.00    +0.000 S 
ATOM      9  H   UNL     1       3.172   6.415  17.665  0.00  0.00    +0.000 HD
ENDROOT
BRANCH   6  10
ATOM     10  C   UNL     1       0.365   9.781  21.154  0.00  0.00    +0.000 A 
ATOM     11  C   UNL     1      -0.260  11.014  21.054  0.00  0.00    +0.000 A 
ATOM     12  C   UNL     1      -0.888  11.468  22.186  0.00  0.00    +0.000 A 
ATOM     13  N   UNL     1      -0.912  10.777  23.341  0.00  0.00    +0.000 NA
ATOM     14  C   UNL     1      -0.274   9.596  23.329  0.00  0.00    +0.000 A 
ATOM     15  N   UNL     1       0.367   9.046  22.286  0.00  0.00    +0.000 NA
ENDBRANCH   6  10
BRANCH   1  16
ATOM     16  C   UNL     1       3.488   4.226  18.996  0.00  0.00    +0.000 C 
BRANCH  16  21
ATOM     17  C   UNL     1       6.453   4.484  16.623  0.00  0.00    +0.000 A 
ATOM     18  C   UNL     1       7.404   5.098  17.438  0.00  0.00    +0.000 A 
ATOM     19  C   UNL     1       7.103   5.418  18.763  0.00  0.00    +0.000 A 
ATOM     20  C   UNL     1       5.844   5.121  19.283  0.00  0.00    +0.000 A 
ATOM     21  C   UNL     1       4.877   4.500  18.480  0.00  0.00    +0.000 A 
ATOM     22  C   UNL     1       5.193   4.189  17.148  0.00  0.00    +0.000 A 
BRANCH  17  24
ATOM     23  C   UNL     1       5.854   4.213  14.342  0.00  0.00    +0.000 C 
ATOM     24  O   UNL     1       6.863   4.225  15.344  0.00  0.00    +0.000 OA
ENDBRANCH  17  24
ENDBRANCH  16  21
ENDBRANCH   1  16
TORSDOF 4
ENDMDL
MODEL 3
REMARK VINA RESULT:      -7.6      1.059      1.703
REMARK  Name = 
REMARK  5 active torsions:
REMARK  status: ('A' for Active; 'I' for Inactive)
REMARK    1  A    between atoms: C_1  and  O_2
REMARK    2  A    between atoms: O_2  and  C_3
REMARK    3  A    between atoms: C_7  and  C_8
REMARK    4  A    between atoms: C_8  and  C_9
REMARK    5  A    between atoms: C_14  and  C_15
REMARK                            x       y       z     vdW  Elec       q    Type
REMARK                         _______ _______ _______ _____ _____    ______ ____
ROOT
ATOM      1  C   UNL     1       2.666   5.395  19.716  0.00  0.00    +0.000 C 
ATOM      2  O   UNL     1       2.060   5.436  20.785  0.00  0.00    +0.000 OA
ATOM      3  N   UNL     1       2.797   6.422  18.799  0.00  0.00    +0.000 N 
ATOM      4  C   UNL     1       2.243   7.642  19.066  0.00  0.00    +0.000 A 
ATOM      5  N   UNL     1       1.783   8.063  20.210  0.00  0.00    +0.000 NA
ATOM      6  C   UNL     1       1.137   9.273  20.048  0.00  0.00    +0.000 A 
ATOM      7  C   UNL     1       1.208   9.792  18.767  0.00  0.00    +0.000 A 
ATOM      8  S   UNL     1       2.112   8.723  17.757  0.00  0.00    +0.000 S 
ATOM      9  H   UNL     1       3.128   6.250  17.861  0.00  0.00    +0.000 HD
ENDROOT
BRANCH   6  10
ATOM     10  C   UNL     1       0.422   9.874  21.167  0.00  0.00    +0.000 A 
ATOM     11  C   UNL     1       0.298   9.159  22.349  0.00  0.00    +0.000 A 
ATOM     12  C   UNL     1      -0.424   9.762  23.347  0.00  0.00    +0.000 A 
ATOM     13  N   UNL     1      -0.990  10.977  23.215  0.00  0.00    +0.000 NA
ATOM     14  C   UNL     1      -0.810  11.579  22.029  0.00  0.00    +0.000 A 
ATOM     15  N   UNL     1      -0.121  11.095  20.984  0.00  0.00    +0.000 NA
ENDBRANCH   6  10
BRANCH   1  16
ATOM     16  C   UNL     1       3.351   4.114  19.293  0.00  0.00    +0.000 C 
BRANCH  16  21
ATOM     17  C   UNL     1       5.861   4.205  16.432  0.00  0.00    +0.000 A 
ATOM     18  C   UNL     1       6.954   4.819  17.045  0.00  0.00    +0.000 A 
ATOM     19  C   UNL     1       6.896   5.192  18.389  0.00  0.00    +0.000 A 
ATOM     20  C   UNL     1       5.741   4.950  19.131  0.00  0.00    +0.000 A 
ATOM     21  C   UNL     1       4.635   4.330  18.533  0.00  0.00    +0.000 A 
ATOM     22  C   UNL     1       4.705   3.965  17.179  0.00  0.00    +0.000 A 
BRANCH  17  24
ATOM     23  C   UNL     1       6.879   4.752  14.358  0.00  0.00    +0.000 C 
ATOM     24  O   UNL     1       6.035   3.891  15.112  0.00  0.00    +0.000 OA
ENDBRANCH  17  24
ENDBRANCH  16  21
ENDBRANCH   1  16
TORSDOF 4
ENDMDL
MODEL 4
REMARK VINA RESULT:      -7.4      3.019      8.074
REMARK  Name = 
REMARK  5 active torsions:
REMARK  status: ('A' for Active; 'I' for Inactive)
REMARK    1  A    between atoms: C_1  and  O_2
REMARK    2  A    between atoms: O_2  and  C_3
REMARK    3  A    between atoms: C_7  and  C_8
REMARK    4  A    between atoms: C_8  and  C_9
REMARK    5  A    between atoms: C_14  and  C_15
REMARK                            x       y       z     vdW  Elec       q    Type
REMARK                         _______ _______ _______ _____ _____    ______ ____
ROOT
ATOM      1  C   UNL     1       1.685   7.240  20.489  0.00  0.00    +0.000 C 
ATOM      2  O   UNL     1       2.388   7.757  19.622  0.00  0.00    +0.000 OA
ATOM      3  N   UNL     1       1.740   5.930  20.927  0.00  0.00    +0.000 N 
ATOM      4  C   UNL     1       2.670   5.079  20.400  0.00  0.00    +0.000 A 
ATOM      5  N   UNL     1       3.706   5.397  19.677  0.00  0.00    +0.000 NA
ATOM      6  C   UNL     1       4.306   4.258  19.177  0.00  0.00    +0.000 A 
ATOM      7  C   UNL     1       3.747   3.074  19.622  0.00  0.00    +0.000 A 
ATOM      8  S   UNL     1       2.438   3.417  20.695  0.00  0.00    +0.000 S 
ATOM      9  H   UNL     1       1.000   5.531  21.486  0.00  0.00    +0.000 HD
ENDROOT
BRANCH   6  10
ATOM     10  C   UNL     1       5.407   4.371  18.227  0.00  0.00    +0.000 A 
ATOM     11  C   UNL     1       5.157   4.166  16.879  0.00  0.00    +0.000 A 
ATOM     12  C   UNL     1       6.242   4.242  16.043  0.00  0.00    +0.000 A 
ATOM     13  N   UNL     1       7.489   4.500  16.480  0.00  0.00    +0.000 NA
ATOM     14  C   UNL     1       7.619   4.680  17.804  0.00  0.00    +0.000 A 
ATOM     15  N   UNL     1       6.635   4.636  18.716  0.00  0.00    +0.000 NA
ENDBRANCH   6  10
BRANCH   1  16
ATOM     16  C   UNL     1       0.622   8.065  21.180  0.00  0.00    +0.000 C 
BRANCH  16  21
ATOM     17  C   UNL     1       1.025  11.825  20.743  0.00  0.00    +0.000 A 
ATOM     18  C   UNL     1       0.318  12.042  19.560  0.00  0.00    +0.000 A 
ATOM     19  C   UNL     1      -0.309  10.982  18.904  0.00  0.00    +0.000 A 
ATOM     20  C   UNL     1      -0.233   9.693  19.431  0.00  0.00    +0.000 A 
ATOM     21  C   UNL     1       0.469   9.457  20.622  0.00  0.00    +0.000 A 
ATOM     22  C   UNL     1       1.099  10.533  21.268  0.00  0.00    +0.000 A 
BRANCH  17  24
ATOM     23  C   UNL     1       2.417  13.723  20.430  0.00  0.00    +0.000 C 
ATOM     24  O   UNL     1       1.599  12.940  21.290  0.00  0.00    +0.000 OA
ENDBRANCH  17  24
ENDBRANCH  16  21
ENDBRANCH   1  16
TORSDOF 4
ENDMDL
MODEL 5
REMARK VINA RESULT:      -7.3      2.988      8.348
REMARK  Name = 
REMARK  5 active torsions:
REMARK  status: ('A' for Active; 'I' for Inactive)
REMARK    1  A    between atoms: C_1  and  O_2
REMARK    2  A    between atoms: O_2  and  C_3
REMARK    3  A    between atoms: C_7  and  C_8
REMARK    4  A    between atoms: C_8  and  C_9
REMARK    5  A    between atoms: C_14  and  C_15
REMARK                            x       y       z     vdW  Elec       q    Type
REMARK                         _______ _______ _______ _____ _____    ______ ____
ROOT
ATOM      1  C   UNL     1       1.726   7.368  20.489  0.00  0.00    +0.000 C 
ATOM      2  O   UNL     1       2.431   7.866  19.615  0.00  0.00    +0.000 OA
ATOM      3  N   UNL     1       1.750   6.056  20.925  0.00  0.00    +0.000 N 
ATOM      4  C   UNL     1       2.651   5.181  20.387  0.00  0.00    +0.000 A 
ATOM      5  N   UNL     1       3.687   5.472  19.653  0.00  0.00    +0.000 NA
ATOM      6  C   UNL     1       4.251   4.319  19.144  0.00  0.00    +0.000 A 
ATOM      7  C   UNL     1       3.665   3.149  19.595  0.00  0.00    +0.000 A 
ATOM      8  S   UNL     1       2.378   3.526  20.683  0.00  0.00    +0.000 S 
ATOM      9  H   UNL     1       1.006   5.676  21.492  0.00  0.00    +0.000 HD
ENDROOT
BRANCH   6  10
ATOM     10  C   UNL     1       5.343   4.403  18.182  0.00  0.00    +0.000 A 
ATOM     11  C   UNL     1       5.078   4.175  16.841  0.00  0.00    +0.000 A 
ATOM     12  C   UNL     1       6.155   4.225  15.994  0.00  0.00    +0.000 A 
ATOM     13  N   UNL     1       7.409   4.480  16.414  0.00  0.00    +0.000 NA
ATOM     14  C   UNL     1       7.554   4.684  17.733  0.00  0.00    +0.000 A 
ATOM     15  N   UNL     1       6.578   4.666  18.654  0.00  0.00    +0.000 NA
ENDBRANCH   6  10
BRANCH   1  16
ATOM     16  C   UNL     1       0.692   8.220  21.193  0.00  0.00    +0.000 C 
BRANCH  16  21
ATOM     17  C   UNL     1      -0.748  10.800  18.792  0.00  0.00    +0.000 A 
ATOM     18  C   UNL     1      -0.202  11.980  19.298  0.00  0.00    +0.000 A 
ATOM     19  C   UNL     1       0.648  11.952  20.404  0.00  0.00    +0.000 A 
ATOM     20  C   UNL     1       0.960  10.737  21.013  0.00  0.00    +0.000 A 
ATOM     21  C   UNL     1       0.424   9.540  20.516  0.00  0.00    +0.000 A 
ATOM     22  C   UNL     1      -0.433   9.585  19.405  0.00  0.00    +0.000 A 
BRANCH  17  24
ATOM     23  C   UNL     1      -2.864  11.486  17.962  0.00  0.00    +0.000 C 
ATOM     24  O   UNL     1      -1.569  10.955  17.709  0.00  0.00    +0.000 OA
ENDBRANCH  17  24
ENDBRANCH  16  21
ENDBRANCH   1  16
TORSDOF 4
ENDMDL
MODEL 6
REMARK VINA RESULT:      -7.3      3.322      8.528
REMARK  Name = 
REMARK  5 active torsions:
REMARK  status: ('A' for Active; 'I' for Inactive)
REMARK    1  A    between atoms: C_1  and  O_2
REMARK    2  A    between atoms: O_2  and  C_3
REMARK    3  A    between atoms: C_7  and  C_8
REMARK    4  A    between atoms: C_8  and  C_9
REMARK    5  A    between atoms: C_14  and  C_15
REMARK                            x       y       z     vdW  Elec       q    Type
REMARK                         _______ _______ _______ _____ _____    ______ ____
ROOT
ATOM      1  C   UNL     1       3.250   5.686  18.835  0.00  0.00    +0.000 C 
ATOM      2  O   UNL     1       2.855   5.397  17.708  0.00  0.00    +0.000 OA
ATOM      3  N   UNL     1       4.564   5.771  19.256  0.00  0.00    +0.000 N 
ATOM      4  C   UNL     1       5.575   5.550  18.364  0.00  0.00    +0.000 A 
ATOM      5  N   UNL     1       5.479   5.491  17.066  0.00  0.00    +0.000 NA
ATOM      6  C   UNL     1       6.676   5.071  16.518  0.00  0.00    +0.000 A 
ATOM      7  C   UNL     1       7.698   4.908  17.436  0.00  0.00    +0.000 A 
ATOM      8  S   UNL     1       7.127   5.297  19.018  0.00  0.00    +0.000 S 
ATOM      9  H   UNL     1       4.801   5.810  20.236  0.00  0.00    +0.000 HD
ENDROOT
BRANCH   6  10
ATOM     10  C   UNL     1       6.767   4.798  15.089  0.00  0.00    +0.000 A 
ATOM     11  C   UNL     1       5.935   3.841  14.531  0.00  0.00    +0.000 A 
ATOM     12  C   UNL     1       6.102   3.601  13.191  0.00  0.00    +0.000 A 
ATOM     13  N   UNL     1       7.014   4.244  12.437  0.00  0.00    +0.000 NA
ATOM     14  C   UNL     1       7.769   5.149  13.079  0.00  0.00    +0.000 A 
ATOM     15  N   UNL     1       7.694   5.474  14.378  0.00  0.00    +0.000 NA
ENDBRANCH   6  10
BRANCH   1  16
ATOM     16  C   UNL     1       2.245   5.979  19.928  0.00  0.00    +0.000 C 
BRANCH  16  21
ATOM     17  C   UNL     1       1.029   9.334  21.254  0.00  0.00    +0.000 A 
ATOM     18  C   UNL     1       1.012  10.100  20.089  0.00  0.00    +0.000 A 
ATOM     19  C   UNL     1       1.375   9.538  18.865  0.00  0.00    +0.000 A 
ATOM     20  C   UNL     1       1.757   8.198  18.799  0.00  0.00    +0.000 A 
ATOM     21  C   UNL     1       1.775   7.411  19.959  0.00  0.00    +0.000 A 
ATOM     22  C   UNL     1       1.412   7.992  21.184  0.00  0.00    +0.000 A 
BRANCH  17  24
ATOM     23  C   UNL     1      -0.411  10.928  22.266  0.00  0.00    +0.000 C 
ATOM     24  O   UNL     1       0.657   9.996  22.392  0.00  0.00    +0.000 OA
ENDBRANCH  17  24
ENDBRANCH  16  21
ENDBRANCH   1  16
TORSDOF 4
ENDMDL
MODEL 7
REMARK VINA RESULT:      -7.2      3.348      8.158
REMARK  Name = 
REMARK  5 active torsions:
REMARK  status: ('A' for Active; 'I' for Inactive)
REMARK    1  A    between atoms: C_1  and  O_2
REMARK    2  A    between atoms: O_2  and  C_3
REMARK    3  A    between atoms: C_7  and  C_8
REMARK    4  A    between atoms: C_8  and  C_9
REMARK    5  A    between atoms: C_14  and  C_15
REMARK                            x       y       z     vdW  Elec       q    Type
REMARK                         _______ _______ _______ _____ _____    ______ ____
ROOT
ATOM      1  C   UNL     1       1.483   9.226  18.947  0.00  0.00    +0.000 C 
ATOM      2  O   UNL     1       1.106   8.666  19.975  0.00  0.00    +0.000 OA
ATOM      3  N   UNL     1       2.357   8.720  18.002  0.00  0.00    +0.000 N 
ATOM      4  C   UNL     1       2.864   7.461  18.155  0.00  0.00    +0.000 A 
ATOM      5  N   UNL     1       2.449   6.542  18.980  0.00  0.00    +0.000 NA
ATOM      6  C   UNL     1       3.321   5.470  18.977  0.00  0.00    +0.000 A 
ATOM      7  C   UNL     1       4.348   5.571  18.056  0.00  0.00    +0.000 A 
ATOM      8  S   UNL     1       4.201   7.053  17.182  0.00  0.00    +0.000 S 
ATOM      9  H   UNL     1       2.775   9.314  17.301  0.00  0.00    +0.000 HD
ENDROOT
BRANCH   6  10
ATOM     10  C   UNL     1       3.136   4.377  19.924  0.00  0.00    +0.000 A 
ATOM     11  C   UNL     1       2.151   4.484  20.893  0.00  0.00    +0.000 A 
ATOM     12  C   UNL     1       2.059   3.443  21.780  0.00  0.00    +0.000 A 
ATOM     13  N   UNL     1       2.865   2.365  21.736  0.00  0.00    +0.000 NA
ATOM     14  C   UNL     1       3.786   2.365  20.759  0.00  0.00    +0.000 A 
ATOM     15  N   UNL     1       3.968   3.319  19.833  0.00  0.00    +0.000 NA
ENDBRANCH   6  10
BRANCH   1  16
ATOM     16  C   UNL     1       0.990  10.620  18.630  0.00  0.00    +0.000 C 
BRANCH  16  21
ATOM     17  C   UNL     1      -2.600  11.802  19.090  0.00  0.00    +0.000 A 
ATOM     18  C   UNL     1      -3.268  11.027  18.141  0.00  0.00    +0.000 A 
ATOM     19  C   UNL     1      -2.570  10.105  17.359  0.00  0.00    +0.000 A 
ATOM     20  C   UNL     1      -1.194   9.952  17.524  0.00  0.00    +0.000 A 
ATOM     21  C   UNL     1      -0.507  10.719  18.476  0.00  0.00    +0.000 A 
ATOM     22  C   UNL     1      -1.221  11.645  19.251  0.00  0.00    +0.000 A 
BRANCH  17  24
ATOM     23  C   UNL     1      -4.791  12.432  19.752  0.00  0.00    +0.000 C 
ATOM     24  O   UNL     1      -3.390  12.671  19.791  0.00  0.00    +0.000 OA
ENDBRANCH  17  24
ENDBRANCH  16  21
ENDBRANCH   1  16
TORSDOF 4
ENDMDL
MODEL 8
REMARK VINA RESULT:      -7.2      3.418      8.407
REMARK  Name = 
REMARK  5 active torsions:
REMARK  status: ('A' for Active; 'I' for Inactive)
REMARK    1  A    between atoms: C_1  and  O_2
REMARK    2  A    between atoms: O_2  and  C_3
REMARK    3  A    between atoms: C_7  and  C_8
REMARK    4  A    between atoms: C_8  and  C_9
REMARK    5  A    between atoms: C_14  and  C_15
REMARK                            x       y       z     vdW  Elec       q    Type
REMARK                         _______ _______ _______ _____ _____    ______ ____
ROOT
ATOM      1  C   UNL     1       3.196   5.398  18.736  0.00  0.00    +0.000 C 
ATOM      2  O   UNL     1       2.824   5.077  17.609  0.00  0.00    +0.000 OA
ATOM      3  N   UNL     1       4.500   5.589  19.153  0.00  0.00    +0.000 N 
ATOM      4  C   UNL     1       5.524   5.449  18.259  0.00  0.00    +0.000 A 
ATOM      5  N   UNL     1       5.431   5.382  16.962  0.00  0.00    +0.000 NA
ATOM      6  C   UNL     1       6.655   5.059  16.411  0.00  0.00    +0.000 A 
ATOM      7  C   UNL     1       7.690   4.979  17.326  0.00  0.00    +0.000 A 
ATOM      8  S   UNL     1       7.093   5.322  18.909  0.00  0.00    +0.000 S 
ATOM      9  H   UNL     1       4.736   5.646  20.133  0.00  0.00    +0.000 HD
ENDROOT
BRANCH   6  10
ATOM     10  C   UNL     1       6.766   4.795  14.982  0.00  0.00    +0.000 A 
ATOM     11  C   UNL     1       5.947   3.834  14.409  0.00  0.00    +0.000 A 
ATOM     12  C   UNL     1       6.131   3.602  13.070  0.00  0.00    +0.000 A 
ATOM     13  N   UNL     1       7.047   4.255  12.330  0.00  0.00    +0.000 NA
ATOM     14  C   UNL     1       7.788   5.163  12.984  0.00  0.00    +0.000 A 
ATOM     15  N   UNL     1       7.695   5.481  14.285  0.00  0.00    +0.000 NA
ENDBRANCH   6  10
BRANCH   1  16
ATOM     16  C   UNL     1       2.173   5.609  19.830  0.00  0.00    +0.000 C 
BRANCH  16  21
ATOM     17  C   UNL     1       1.582   9.301  19.116  0.00  0.00    +0.000 A 
ATOM     18  C   UNL     1       0.939   9.708  20.286  0.00  0.00    +0.000 A 
ATOM     19  C   UNL     1       0.707   8.800  21.320  0.00  0.00    +0.000 A 
ATOM     20  C   UNL     1       1.121   7.475  21.190  0.00  0.00    +0.000 A 
ATOM     21  C   UNL     1       1.773   7.050  20.024  0.00  0.00    +0.000 A 
ATOM     22  C   UNL     1       1.995   7.973  18.991  0.00  0.00    +0.000 A 
BRANCH  17  24
ATOM     23  C   UNL     1       1.564  11.620  18.609  0.00  0.00    +0.000 C 
ATOM     24  O   UNL     1       1.749  10.279  18.174  0.00  0.00    +0.000 OA
ENDBRANCH  17  24
ENDBRANCH  16  21
ENDBRANCH   1  16
TORSDOF 4
ENDMDL
MODEL 9
REMARK VINA RESULT:      -7.1      3.278      7.913
REMARK  Name = 
REMARK  5 active torsions:
REMARK  status: ('A' for Active; 'I' for Inactive)
REMARK    1  A    between atoms: C_1  and  O_2
REMARK    2  A    between atoms: O_2  and  C_3
REMARK    3  A    between atoms: C_7  and  C_8
REMARK    4  A    between atoms: C_8  and  C_9
REMARK    5  A    between atoms: C_14  and  C_15
REMARK                            x       y       z     vdW  Elec       q    Type
REMARK                         _______ _______ _______ _____ _____    ______ ____
ROOT
ATOM      1  C   UNL     1       1.167   9.410  19.535  0.00  0.00    +0.000 C 
ATOM      2  O   UNL     1       0.898   8.769  20.550  0.00  0.00    +0.000 OA
ATOM      3  N   UNL     1       1.947   8.990  18.474  0.00  0.00    +0.000 N 
ATOM      4  C   UNL     1       2.478   7.731  18.480  0.00  0.00    +0.000 A 
ATOM      5  N   UNL     1       2.155   6.747  19.269  0.00  0.00    +0.000 NA
ATOM      6  C   UNL     1       3.032   5.692  19.099  0.00  0.00    +0.000 A 
ATOM      7  C   UNL     1       3.962   5.879  18.093  0.00  0.00    +0.000 A 
ATOM      8  S   UNL     1       3.716   7.420  17.352  0.00  0.00    +0.000 S 
ATOM      9  H   UNL     1       2.289   9.642  17.783  0.00  0.00    +0.000 HD
ENDROOT
BRANCH   6  10
ATOM     10  C   UNL     1       2.952   4.529  19.974  0.00  0.00    +0.000 A 
ATOM     11  C   UNL     1       2.021   4.521  21.001  0.00  0.00    +0.000 A 
ATOM     12  C   UNL     1       2.027   3.417  21.815  0.00  0.00    +0.000 A 
ATOM     13  N   UNL     1       2.877   2.386  21.649  0.00  0.00    +0.000 NA
ATOM     14  C   UNL     1       3.738   2.497  20.625  0.00  0.00    +0.000 A 
ATOM     15  N   UNL     1       3.822   3.521  19.761  0.00  0.00    +0.000 NA
ENDBRANCH   6  10
BRANCH   1  16
ATOM     16  C   UNL     1       0.632  10.816  19.375  0.00  0.00    +0.000 C 
BRANCH  16  21
ATOM     17  C   UNL     1      -2.279  10.112  17.024  0.00  0.00    +0.000 A 
ATOM     18  C   UNL     1      -3.292  10.874  17.607  0.00  0.00    +0.000 A 
ATOM     19  C   UNL     1      -3.041  11.633  18.751  0.00  0.00    +0.000 A 
ATOM     20  C   UNL     1      -1.769  11.637  19.319  0.00  0.00    +0.000 A 
ATOM     21  C   UNL     1      -0.736  10.881  18.745  0.00  0.00    +0.000 A 
ATOM     22  C   UNL     1      -1.005  10.119  17.598  0.00  0.00    +0.000 A 
BRANCH  17  24
ATOM     23  C   UNL     1      -3.105  10.169  14.799  0.00  0.00    +0.000 C 
ATOM     24  O   UNL     1      -2.647   9.408  15.911  0.00  0.00    +0.000 OA
ENDBRANCH  17  24
ENDBRANCH  16  21
ENDBRANCH   1  16
TORSDOF 4
ENDMDL
