MODEL 1
REMARK VINA RESULT:      -6.4      0.000      0.000
REMARK  Name = 
REMARK  6 active torsions:
REMARK  status: ('A' for Active; 'I' for Inactive)
REMARK    1  A    between atoms: C_1  and  O_2
REMARK    2  A    between atoms: O_2  and  C_3
REMARK    3  A    between atoms: C_3  and  C_5
REMARK    4  A    between atoms: C_14  and  N_15
REMARK    5  A    between atoms: C_18  and  O_19
REMARK    6  A    between atoms: O_19  and  C_20
REMARK                            x       y       z     vdW  Elec       q    Type
REMARK                         _______ _______ _______ _____ _____    ______ ____
ROOT
ATOM      1  C   UNL     1       0.775   9.261  20.543  0.00  0.00    +0.000 A 
ATOM      2  C   UNL     1       1.514   9.192  19.370  0.00  0.00    +0.000 A 
ATOM      3  C   UNL     1       2.127   7.908  19.174  0.00  0.00    +0.000 A 
ATOM      4  C   UNL     1       1.805   7.058  20.201  0.00  0.00    +0.000 A 
ATOM      5  S   UNL     1       0.790   7.752  21.361  0.00  0.00    +0.000 S 
ATOM      6  C   UNL     1       2.287   5.711  20.306  0.00  0.00    +0.000 C 
ATOM      7  O   UNL     1       1.865   4.879  21.097  0.00  0.00    +0.000 OA
ATOM      8  C   UNL     1       3.399   5.369  19.353  0.00  0.00    +0.000 C 
ATOM      9 CL   UNL     1       4.305   3.971  19.870  0.00  0.00    +0.000 Cl
ATOM     10  C   UNL     1       3.724   6.143  18.284  0.00  0.00    +0.000 C 
ATOM     11  C   UNL     1       2.977   7.467  18.086  0.00  0.00    +0.000 C 
ATOM     12  O   UNL     1       3.138   8.128  17.063  0.00  0.00    +0.000 OA
ENDROOT
BRANCH  10  13
ATOM     13  N   UNL     1       4.789   5.791  17.374  0.00  0.00    +0.000 N 
ATOM     14  C   UNL     1       6.056   6.270  17.521  0.00  0.00    +0.000 A 
ATOM     15  C   UNL     1       7.035   6.059  16.557  0.00  0.00    +0.000 A 
ATOM     16  C   UNL     1       6.772   5.244  15.472  0.00  0.00    +0.000 A 
ATOM     17  C   UNL     1       5.526   4.652  15.376  0.00  0.00    +0.000 A 
ATOM     18  C   UNL     1       4.548   4.945  16.328  0.00  0.00    +0.000 A 
BRANCH  16  19
ATOM     19  O   UNL     1       7.774   5.153  14.557  0.00  0.00    +0.000 OA
ATOM     20  C   UNL     1       7.400   4.908  13.205  0.00  0.00    +0.000 C 
ENDBRANCH  16  19
ENDBRANCH  10  13
BRANCH   1  21
ATOM     21  C   UNL     1       0.038  10.365  21.140  0.00  0.00    +0.000 C 
ATOM     22  O   UNL     1       0.257  10.863  22.237  0.00  0.00    +0.000 OA
BRANCH  21  24
ATOM     23  C   UNL     1      -0.785  12.151  19.879  0.00  0.00    +0.000 C 
ATOM     24  O   UNL     1      -0.938  10.787  20.286  0.00  0.00    +0.000 OA
ENDBRANCH  21  24
ENDBRANCH   1  21
TORSDOF 4
ENDMDL
MODEL 2
REMARK VINA RESULT:      -6.4      4.372      8.520
REMARK  Name = 
REMARK  6 active torsions:
REMARK  status: ('A' for Active; 'I' for Inactive)
REMARK    1  A    between atoms: C_1  and  O_2
REMARK    2  A    between atoms: O_2  and  C_3
REMARK    3  A    between atoms: C_3  and  C_5
REMARK    4  A    between atoms: C_14  and  N_15
REMARK    5  A    between atoms: C_18  and  O_19
REMARK    6  A    between atoms: O_19  and  C_20
REMARK                            x       y       z     vdW  Elec       q    Type
REMARK                         _______ _______ _______ _____ _____    ______ ____
ROOT
ATOM      1  C   UNL     1       6.240   3.896  13.378  0.00  0.00    +0.000 A 
ATOM      2  C   UNL     1       5.172   3.597  14.213  0.00  0.00    +0.000 A 
ATOM      3  C   UNL     1       5.296   4.198  15.512  0.00  0.00    +0.000 A 
ATOM      4  C   UNL     1       6.446   4.940  15.591  0.00  0.00    +0.000 A 
ATOM      5  S   UNL     1       7.350   4.943  14.162  0.00  0.00    +0.000 S 
ATOM      6  C   UNL     1       6.867   5.641  16.770  0.00  0.00    +0.000 C 
ATOM      7  O   UNL     1       7.775   6.460  16.808  0.00  0.00    +0.000 OA
ATOM      8  C   UNL     1       6.101   5.287  18.014  0.00  0.00    +0.000 C 
ATOM      9 CL   UNL     1       6.968   5.710  19.467  0.00  0.00    +0.000 Cl
ATOM     10  C   UNL     1       4.925   4.604  17.992  0.00  0.00    +0.000 C 
ATOM     11  C   UNL     1       4.397   4.101  16.644  0.00  0.00    +0.000 C 
ATOM     12  O   UNL     1       3.276   3.605  16.558  0.00  0.00    +0.000 OA
ENDROOT
BRANCH  10  13
ATOM     13  N   UNL     1       4.199   4.283  19.198  0.00  0.00    +0.000 N 
ATOM     14  C   UNL     1       4.309   3.070  19.810  0.00  0.00    +0.000 A 
ATOM     15  C   UNL     1       3.491   2.710  20.874  0.00  0.00    +0.000 A 
ATOM     16  C   UNL     1       2.619   3.634  21.420  0.00  0.00    +0.000 A 
ATOM     17  C   UNL     1       2.587   4.909  20.885  0.00  0.00    +0.000 A 
ATOM     18  C   UNL     1       3.374   5.210  19.772  0.00  0.00    +0.000 A 
BRANCH  16  19
ATOM     19  O   UNL     1       1.821   3.163  22.415  0.00  0.00    +0.000 OA
ATOM     20  C   UNL     1       1.003   2.036  22.115  0.00  0.00    +0.000 C 
ENDBRANCH  16  19
ENDBRANCH  10  13
BRANCH   1  21
ATOM     21  C   UNL     1       6.534   3.468  12.018  0.00  0.00    +0.000 C 
ATOM     22  O   UNL     1       7.456   3.873  11.322  0.00  0.00    +0.000 OA
BRANCH  21  24
ATOM     23  C   UNL     1       6.233   1.270  11.288  0.00  0.00    +0.000 C 
ATOM     24  O   UNL     1       5.631   2.525  11.624  0.00  0.00    +0.000 OA
ENDBRANCH  21  24
ENDBRANCH   1  21
TORSDOF 4
ENDMDL
MODEL 3
REMARK VINA RESULT:      -6.4      2.216      7.715
REMARK  Name = 
REMARK  6 active torsions:
REMARK  status: ('A' for Active; 'I' for Inactive)
REMARK    1  A    between atoms: C_1  and  O_2
REMARK    2  A    between atoms: O_2  and  C_3
REMARK    3  A    between atoms: C_3  and  C_5
REMARK    4  A    between atoms: C_14  and  N_15
REMARK    5  A    between atoms: C_18  and  O_19
REMARK    6  A    between atoms: O_19  and  C_20
REMARK                            x       y       z     vdW  Elec       q    Type
REMARK                         _______ _______ _______ _____ _____    ______ ____
ROOT
ATOM      1  C   UNL     1       5.747   5.190  15.722  0.00  0.00    +0.000 A 
ATOM      2  C   UNL     1       5.200   6.424  16.047  0.00  0.00    +0.000 A 
ATOM      3  C   UNL     1       4.406   6.382  17.243  0.00  0.00    +0.000 A 
ATOM      4  C   UNL     1       4.407   5.119  17.778  0.00  0.00    +0.000 A 
ATOM      5  S   UNL     1       5.336   4.013  16.900  0.00  0.00    +0.000 S 
ATOM      6  C   UNL     1       3.683   4.750  18.960  0.00  0.00    +0.000 C 
ATOM      7  O   UNL     1       3.822   3.694  19.562  0.00  0.00    +0.000 OA
ATOM      8  C   UNL     1       2.691   5.777  19.432  0.00  0.00    +0.000 C 
ATOM      9 CL   UNL     1       1.481   5.092  20.485  0.00  0.00    +0.000 Cl
ATOM     10  C   UNL     1       2.680   7.059  18.980  0.00  0.00    +0.000 C 
ATOM     11  C   UNL     1       3.672   7.456  17.881  0.00  0.00    +0.000 C 
ATOM     12  O   UNL     1       3.793   8.631  17.544  0.00  0.00    +0.000 OA
ENDROOT
BRANCH  10  13
ATOM     13  N   UNL     1       1.725   8.033  19.454  0.00  0.00    +0.000 N 
ATOM     14  C   UNL     1       1.050   8.859  18.605  0.00  0.00    +0.000 A 
ATOM     15  C   UNL     1       0.255   9.899  19.073  0.00  0.00    +0.000 A 
ATOM     16  C   UNL     1       0.034  10.043  20.430  0.00  0.00    +0.000 A 
ATOM     17  C   UNL     1       0.616   9.135  21.295  0.00  0.00    +0.000 A 
ATOM     18  C   UNL     1       1.463   8.147  20.790  0.00  0.00    +0.000 A 
BRANCH  16  19
ATOM     19  O   UNL     1      -0.706  11.128  20.786  0.00  0.00    +0.000 OA
ATOM     20  C   UNL     1      -1.236  11.928  19.733  0.00  0.00    +0.000 C 
ENDBRANCH  16  19
ENDBRANCH  10  13
BRANCH   1  21
ATOM     21  C   UNL     1       6.566   4.781  14.590  0.00  0.00    +0.000 C 
ATOM     22  O   UNL     1       7.546   5.377  14.161  0.00  0.00    +0.000 OA
BRANCH  21  24
ATOM     23  C   UNL     1       6.171   3.549  12.645  0.00  0.00    +0.000 C 
ATOM     24  O   UNL     1       6.092   3.611  14.072  0.00  0.00    +0.000 OA
ENDBRANCH  21  24
ENDBRANCH   1  21
TORSDOF 4
ENDMDL
MODEL 4
REMARK VINA RESULT:      -6.3      2.277      7.782
REMARK  Name = 
REMARK  6 active torsions:
REMARK  status: ('A' for Active; 'I' for Inactive)
REMARK    1  A    between atoms: C_1  and  O_2
REMARK    2  A    between atoms: O_2  and  C_3
REMARK    3  A    between atoms: C_3  and  C_5
REMARK    4  A    between atoms: C_14  and  N_15
REMARK    5  A    between atoms: C_18  and  O_19
REMARK    6  A    between atoms: O_19  and  C_20
REMARK                            x       y       z     vdW  Elec       q    Type
REMARK                         _______ _______ _______ _____ _____    ______ ____
ROOT
ATOM      1  C   UNL     1       5.668   5.100  15.589  0.00  0.00    +0.000 A 
ATOM      2  C   UNL     1       5.222   6.350  15.994  0.00  0.00    +0.000 A 
ATOM      3  C   UNL     1       4.412   6.294  17.179  0.00  0.00    +0.000 A 
ATOM      4  C   UNL     1       4.300   5.003  17.626  0.00  0.00    +0.000 A 
ATOM      5  S   UNL     1       5.145   3.884  16.680  0.00  0.00    +0.000 S 
ATOM      6  C   UNL     1       3.532   4.617  18.774  0.00  0.00    +0.000 C 
ATOM      7  O   UNL     1       3.574   3.515  19.303  0.00  0.00    +0.000 OA
ATOM      8  C   UNL     1       2.623   5.689  19.308  0.00  0.00    +0.000 C 
ATOM      9 CL   UNL     1       1.346   5.039  20.302  0.00  0.00    +0.000 Cl
ATOM     10  C   UNL     1       2.725   6.995  18.945  0.00  0.00    +0.000 C 
ATOM     11  C   UNL     1       3.762   7.381  17.883  0.00  0.00    +0.000 C 
ATOM     12  O   UNL     1       3.984   8.562  17.628  0.00  0.00    +0.000 OA
ENDROOT
BRANCH  10  13
ATOM     13  N   UNL     1       1.849   8.012  19.477  0.00  0.00    +0.000 N 
ATOM     14  C   UNL     1       1.526   8.072  20.800  0.00  0.00    +0.000 A 
ATOM     15  C   UNL     1       0.561   8.949  21.280  0.00  0.00    +0.000 A 
ATOM     16  C   UNL     1      -0.013   9.877  20.430  0.00  0.00    +0.000 A 
ATOM     17  C   UNL     1       0.397   9.908  19.110  0.00  0.00    +0.000 A 
ATOM     18  C   UNL     1       1.318   8.964  18.652  0.00  0.00    +0.000 A 
BRANCH  16  19
ATOM     19  O   UNL     1      -0.990  10.645  20.984  0.00  0.00    +0.000 OA
ATOM     20  C   UNL     1      -0.771  11.120  22.309  0.00  0.00    +0.000 C 
ENDBRANCH  16  19
ENDBRANCH  10  13
BRANCH   1  21
ATOM     21  C   UNL     1       6.465   4.701  14.438  0.00  0.00    +0.000 C 
ATOM     22  O   UNL     1       7.483   5.255  14.044  0.00  0.00    +0.000 OA
BRANCH  21  24
ATOM     23  C   UNL     1       6.198   3.493  12.456  0.00  0.00    +0.000 C 
ATOM     24  O   UNL     1       5.919   3.594  13.856  0.00  0.00    +0.000 OA
ENDBRANCH  21  24
ENDBRANCH   1  21
TORSDOF 4
ENDMDL
MODEL 5
REMARK VINA RESULT:      -6.3      2.244      7.773
REMARK  Name = 
REMARK  6 active torsions:
REMARK  status: ('A' for Active; 'I' for Inactive)
REMARK    1  A    between atoms: C_1  and  O_2
REMARK    2  A    between atoms: O_2  and  C_3
REMARK    3  A    between atoms: C_3  and  C_5
REMARK    4  A    between atoms: C_14  and  N_15
REMARK    5  A    between atoms: C_18  and  O_19
REMARK    6  A    between atoms: O_19  and  C_20
REMARK                            x       y       z     vdW  Elec       q    Type
REMARK                         _______ _______ _______ _____ _____    ______ ____
ROOT
ATOM      1  C   UNL     1       5.647   5.017  15.590  0.00  0.00    +0.000 A 
ATOM      2  C   UNL     1       5.144   6.263  15.938  0.00  0.00    +0.000 A 
ATOM      3  C   UNL     1       4.377   6.233  17.153  0.00  0.00    +0.000 A 
ATOM      4  C   UNL     1       4.354   4.966  17.677  0.00  0.00    +0.000 A 
ATOM      5  S   UNL     1       5.229   3.841  16.768  0.00  0.00    +0.000 S 
ATOM      6  C   UNL     1       3.647   4.607  18.872  0.00  0.00    +0.000 C 
ATOM      7  O   UNL     1       3.769   3.542  19.462  0.00  0.00    +0.000 OA
ATOM      8  C   UNL     1       2.696   5.658  19.376  0.00  0.00    +0.000 C 
ATOM      9 CL   UNL     1       1.492   4.999  20.451  0.00  0.00    +0.000 Cl
ATOM     10  C   UNL     1       2.712   6.944  18.935  0.00  0.00    +0.000 C 
ATOM     11  C   UNL     1       3.690   7.322  17.816  0.00  0.00    +0.000 C 
ATOM     12  O   UNL     1       3.836   8.496  17.486  0.00  0.00    +0.000 OA
ENDROOT
BRANCH  10  13
ATOM     13  N   UNL     1       1.797   7.941  19.439  0.00  0.00    +0.000 N 
ATOM     14  C   UNL     1       1.180   8.839  18.620  0.00  0.00    +0.000 A 
ATOM     15  C   UNL     1       0.429   9.895  19.124  0.00  0.00    +0.000 A 
ATOM     16  C   UNL     1       0.188   9.984  20.483  0.00  0.00    +0.000 A 
ATOM     17  C   UNL     1       0.708   9.008  21.313  0.00  0.00    +0.000 A 
ATOM     18  C   UNL     1       1.515   8.004  20.775  0.00  0.00    +0.000 A 
BRANCH  16  19
ATOM     19  O   UNL     1      -0.504  11.086  20.879  0.00  0.00    +0.000 OA
ATOM     20  C   UNL     1      -0.498  11.394  22.269  0.00  0.00    +0.000 C 
ENDBRANCH  16  19
ENDBRANCH  10  13
BRANCH   1  21
ATOM     21  C   UNL     1       6.427   4.595  14.436  0.00  0.00    +0.000 C 
ATOM     22  O   UNL     1       6.109   3.726  13.634  0.00  0.00    +0.000 OA
BRANCH  21  24
ATOM     23  C   UNL     1       8.107   5.413  13.034  0.00  0.00    +0.000 C 
ATOM     24  O   UNL     1       7.576   5.325  14.360  0.00  0.00    +0.000 OA
ENDBRANCH  21  24
ENDBRANCH   1  21
TORSDOF 4
ENDMDL
MODEL 6
REMARK VINA RESULT:      -6.2      2.372      7.860
REMARK  Name = 
REMARK  6 active torsions:
REMARK  status: ('A' for Active; 'I' for Inactive)
REMARK    1  A    between atoms: C_1  and  O_2
REMARK    2  A    between atoms: O_2  and  C_3
REMARK    3  A    between atoms: C_3  and  C_5
REMARK    4  A    between atoms: C_14  and  N_15
REMARK    5  A    between atoms: C_18  and  O_19
REMARK    6  A    between atoms: O_19  and  C_20
REMARK                            x       y       z     vdW  Elec       q    Type
REMARK                         _______ _______ _______ _____ _____    ______ ____
ROOT
ATOM      1  C   UNL     1       6.048   5.054  15.094  0.00  0.00    +0.000 A 
ATOM      2  C   UNL     1       5.629   6.253  15.655  0.00  0.00    +0.000 A 
ATOM      3  C   UNL     1       4.733   6.066  16.761  0.00  0.00    +0.000 A 
ATOM      4  C   UNL     1       4.532   4.730  16.998  0.00  0.00    +0.000 A 
ATOM      5  S   UNL     1       5.393   3.720  15.951  0.00  0.00    +0.000 S 
ATOM      6  C   UNL     1       3.665   4.220  18.021  0.00  0.00    +0.000 C 
ATOM      7  O   UNL     1       3.620   3.051  18.377  0.00  0.00    +0.000 OA
ATOM      8  C   UNL     1       2.767   5.249  18.650  0.00  0.00    +0.000 C 
ATOM      9 CL   UNL     1       1.393   4.529  19.447  0.00  0.00    +0.000 Cl
ATOM     10  C   UNL     1       2.953   6.587  18.498  0.00  0.00    +0.000 C 
ATOM     11  C   UNL     1       4.081   7.069  17.578  0.00  0.00    +0.000 C 
ATOM     12  O   UNL     1       4.373   8.261  17.522  0.00  0.00    +0.000 OA
ENDROOT
BRANCH  10  13
ATOM     13  N   UNL     1       2.085   7.560  19.120  0.00  0.00    +0.000 N 
ATOM     14  C   UNL     1       1.453   8.531  18.402  0.00  0.00    +0.000 A 
ATOM     15  C   UNL     1       0.750   9.558  19.021  0.00  0.00    +0.000 A 
ATOM     16  C   UNL     1       0.574   9.546  20.393  0.00  0.00    +0.000 A 
ATOM     17  C   UNL     1       1.108   8.498  21.119  0.00  0.00    +0.000 A 
ATOM     18  C   UNL     1       1.866   7.524  20.469  0.00  0.00    +0.000 A 
BRANCH  16  19
ATOM     19  O   UNL     1      -0.074  10.628  20.904  0.00  0.00    +0.000 OA
ATOM     20  C   UNL     1      -0.419  10.585  22.286  0.00  0.00    +0.000 C 
ENDBRANCH  16  19
ENDBRANCH  10  13
BRANCH   1  21
ATOM     21  C   UNL     1       6.909   4.789  13.951  0.00  0.00    +0.000 C 
ATOM     22  O   UNL     1       7.858   5.475  13.592  0.00  0.00    +0.000 OA
BRANCH  21  24
ATOM     23  C   UNL     1       6.773   3.636  11.923  0.00  0.00    +0.000 C 
ATOM     24  O   UNL     1       6.517   3.639  13.331  0.00  0.00    +0.000 OA
ENDBRANCH  21  24
ENDBRANCH   1  21
TORSDOF 4
ENDMDL
MODEL 7
REMARK VINA RESULT:      -6.2      0.570      1.389
REMARK  Name = 
REMARK  6 active torsions:
REMARK  status: ('A' for Active; 'I' for Inactive)
REMARK    1  A    between atoms: C_1  and  O_2
REMARK    2  A    between atoms: O_2  and  C_3
REMARK    3  A    between atoms: C_3  and  C_5
REMARK    4  A    between atoms: C_14  and  N_15
REMARK    5  A    between atoms: C_18  and  O_19
REMARK    6  A    between atoms: O_19  and  C_20
REMARK                            x       y       z     vdW  Elec       q    Type
REMARK                         _______ _______ _______ _____ _____    ______ ____
ROOT
ATOM      1  C   UNL     1       0.769   9.441  20.521  0.00  0.00    +0.000 A 
ATOM      2  C   UNL     1       1.441   9.359  19.309  0.00  0.00    +0.000 A 
ATOM      3  C   UNL     1       2.079   8.087  19.113  0.00  0.00    +0.000 A 
ATOM      4  C   UNL     1       1.842   7.259  20.179  0.00  0.00    +0.000 A 
ATOM      5  S   UNL     1       0.876   7.958  21.377  0.00  0.00    +0.000 S 
ATOM      6  C   UNL     1       2.369   5.930  20.293  0.00  0.00    +0.000 C 
ATOM      7  O   UNL     1       2.017   5.109  21.130  0.00  0.00    +0.000 OA
ATOM      8  C   UNL     1       3.433   5.590  19.287  0.00  0.00    +0.000 C 
ATOM      9 CL   UNL     1       4.409   4.234  19.788  0.00  0.00    +0.000 Cl
ATOM     10  C   UNL     1       3.673   6.342  18.180  0.00  0.00    +0.000 C 
ATOM     11  C   UNL     1       2.878   7.639  17.990  0.00  0.00    +0.000 C 
ATOM     12  O   UNL     1       2.961   8.274  16.941  0.00  0.00    +0.000 OA
ENDROOT
BRANCH  10  13
ATOM     13  N   UNL     1       4.694   5.994  17.219  0.00  0.00    +0.000 N 
ATOM     14  C   UNL     1       4.502   5.029  16.276  0.00  0.00    +0.000 A 
ATOM     15  C   UNL     1       5.537   4.586  15.460  0.00  0.00    +0.000 A 
ATOM     16  C   UNL     1       6.770   5.210  15.509  0.00  0.00    +0.000 A 
ATOM     17  C   UNL     1       6.940   6.272  16.377  0.00  0.00    +0.000 A 
ATOM     18  C   UNL     1       5.898   6.641  17.228  0.00  0.00    +0.000 A 
BRANCH  16  19
ATOM     19  O   UNL     1       7.730   4.661  14.717  0.00  0.00    +0.000 OA
ATOM     20  C   UNL     1       7.709   5.004  13.334  0.00  0.00    +0.000 C 
ENDBRANCH  16  19
ENDBRANCH  10  13
BRANCH   1  21
ATOM     21  C   UNL     1       0.036  10.541  21.130  0.00  0.00    +0.000 C 
ATOM     22  O   UNL     1      -0.592  11.404  20.529  0.00  0.00    +0.000 OA
BRANCH  21  24
ATOM     23  C   UNL     1      -1.102  10.733  23.161  0.00  0.00    +0.000 C 
ATOM     24  O   UNL     1       0.134  10.469  22.488  0.00  0.00    +0.000 OA
ENDBRANCH  21  24
ENDBRANCH   1  21
TORSDOF 4
ENDMDL
MODEL 8
REMARK VINA RESULT:      -5.8      2.231      7.734
REMARK  Name = 
REMARK  6 active torsions:
REMARK  status: ('A' for Active; 'I' for Inactive)
REMARK    1  A    between atoms: C_1  and  O_2
REMARK    2  A    between atoms: O_2  and  C_3
REMARK    3  A    between atoms: C_3  and  C_5
REMARK    4  A    between atoms: C_14  and  N_15
REMARK    5  A    between atoms: C_18  and  O_19
REMARK    6  A    between atoms: O_19  and  C_20
REMARK                            x       y       z     vdW  Elec       q    Type
REMARK                         _______ _______ _______ _____ _____    ______ ____
ROOT
ATOM      1  C   UNL     1       5.408   5.475  16.184  0.00  0.00    +0.000 A 
ATOM      2  C   UNL     1       4.814   6.729  16.240  0.00  0.00    +0.000 A 
ATOM      3  C   UNL     1       4.011   6.910  17.417  0.00  0.00    +0.000 A 
ATOM      4  C   UNL     1       4.053   5.790  18.207  0.00  0.00    +0.000 A 
ATOM      5  S   UNL     1       5.030   4.559  17.583  0.00  0.00    +0.000 S 
ATOM      6  C   UNL     1       3.332   5.651  19.439  0.00  0.00    +0.000 C 
ATOM      7  O   UNL     1       3.503   4.752  20.250  0.00  0.00    +0.000 OA
ATOM      8  C   UNL     1       2.298   6.716  19.681  0.00  0.00    +0.000 C 
ATOM      9 CL   UNL     1       1.104   6.224  20.853  0.00  0.00    +0.000 Cl
ATOM     10  C   UNL     1       2.245   7.873  18.969  0.00  0.00    +0.000 C 
ATOM     11  C   UNL     1       3.232   8.066  17.812  0.00  0.00    +0.000 C 
ATOM     12  O   UNL     1       3.313   9.147  17.235  0.00  0.00    +0.000 OA
ENDROOT
BRANCH  10  13
ATOM     13  N   UNL     1       1.250   8.888  19.225  0.00  0.00    +0.000 N 
ATOM     14  C   UNL     1       1.029   9.388  20.473  0.00  0.00    +0.000 A 
ATOM     15  C   UNL     1      -0.033  10.244  20.742  0.00  0.00    +0.000 A 
ATOM     16  C   UNL     1      -0.825  10.708  19.708  0.00  0.00    +0.000 A 
ATOM     17  C   UNL     1      -0.534  10.303  18.418  0.00  0.00    +0.000 A 
ATOM     18  C   UNL     1       0.498   9.388  18.199  0.00  0.00    +0.000 A 
BRANCH  16  19
ATOM     19  O   UNL     1      -1.873  11.489  20.084  0.00  0.00    +0.000 OA
ATOM     20  C   UNL     1      -1.789  12.880  19.785  0.00  0.00    +0.000 C 
ENDBRANCH  16  19
ENDBRANCH  10  13
BRANCH   1  21
ATOM     21  C   UNL     1       6.252   4.868  15.165  0.00  0.00    +0.000 C 
ATOM     22  O   UNL     1       7.473   4.776  15.206  0.00  0.00    +0.000 OA
BRANCH  21  24
ATOM     23  C   UNL     1       6.225   3.668  13.161  0.00  0.00    +0.000 C 
ATOM     24  O   UNL     1       5.481   4.392  14.146  0.00  0.00    +0.000 OA
ENDBRANCH  21  24
ENDBRANCH   1  21
TORSDOF 4
ENDMDL
MODEL 9
REMARK VINA RESULT:      -5.7      3.744      6.278
REMARK  Name = 
REMARK  6 active torsions:
REMARK  status: ('A' for Active; 'I' for Inactive)
REMARK    1  A    between atoms: C_1  and  O_2
REMARK    2  A    between atoms: O_2  and  C_3
REMARK    3  A    between atoms: C_3  and  C_5
REMARK    4  A    between atoms: C_14  and  N_15
REMARK    5  A    between atoms: C_18  and  O_19
REMARK    6  A    between atoms: O_19  and  C_20
REMARK                            x       y       z     vdW  Elec       q    Type
REMARK                         _______ _______ _______ _____ _____    ______ ____
ROOT
ATOM      1  C   UNL     1      -2.483  13.347  22.539  0.00  0.00    +0.000 A 
ATOM      2  C   UNL     1      -1.251  12.709  22.495  0.00  0.00    +0.000 A 
ATOM      3  C   UNL     1      -1.010  12.052  21.241  0.00  0.00    +0.000 A 
ATOM      4  C   UNL     1      -2.066  12.242  20.387  0.00  0.00    +0.000 A 
ATOM      5  S   UNL     1      -3.305  13.187  21.042  0.00  0.00    +0.000 S 
ATOM      6  C   UNL     1      -2.137  11.686  19.066  0.00  0.00    +0.000 C 
ATOM      7  O   UNL     1      -2.966  11.997  18.222  0.00  0.00    +0.000 OA
ATOM      8  C   UNL     1      -1.094  10.645  18.769  0.00  0.00    +0.000 C 
ATOM      9 CL   UNL     1      -1.538   9.629  17.423  0.00  0.00    +0.000 Cl
ATOM     10  C   UNL     1       0.004  10.452  19.548  0.00  0.00    +0.000 C 
ATOM     11  C   UNL     1       0.144  11.278  20.832  0.00  0.00    +0.000 C 
ATOM     12  O   UNL     1       1.182  11.238  21.489  0.00  0.00    +0.000 OA
ENDROOT
BRANCH  10  13
ATOM     13  N   UNL     1       1.000   9.453  19.239  0.00  0.00    +0.000 N 
ATOM     14  C   UNL     1       1.717   9.477  18.080  0.00  0.00    +0.000 A 
ATOM     15  C   UNL     1       2.556   8.431  17.715  0.00  0.00    +0.000 A 
ATOM     16  C   UNL     1       2.776   7.384  18.592  0.00  0.00    +0.000 A 
ATOM     17  C   UNL     1       2.149   7.410  19.824  0.00  0.00    +0.000 A 
ATOM     18  C   UNL     1       1.260   8.443  20.123  0.00  0.00    +0.000 A 
BRANCH  16  19
ATOM     19  O   UNL     1       3.563   6.383  18.114  0.00  0.00    +0.000 OA
ATOM     20  C   UNL     1       3.722   5.231  18.938  0.00  0.00    +0.000 C 
ENDBRANCH  16  19
ENDBRANCH  10  13
BRANCH   1  21
ATOM     21  C   UNL     1      -3.135  14.084  23.612  0.00  0.00    +0.000 C 
ATOM     22  O   UNL     1      -2.599  14.480  24.639  0.00  0.00    +0.000 OA
BRANCH  21  24
ATOM     23  C   UNL     1      -5.013  15.431  23.957  0.00  0.00    +0.000 C 
ATOM     24  O   UNL     1      -4.448  14.290  23.303  0.00  0.00    +0.000 OA
ENDBRANCH  21  24
ENDBRANCH   1  21
TORSDOF 4
ENDMDL
