MODEL 1
REMARK VINA RESULT:      -8.5      0.000      0.000
REMARK  Name = 
REMARK  8 active torsions:
REMARK  status: ('A' for Active; 'I' for Inactive)
REMARK    1  A    between atoms: C_2  and  C_3
REMARK    2  A    between atoms: C_3  and  N_4
REMARK    3  A    between atoms: C_5  and  C_7
REMARK    4  A    between atoms: C_7  and  C_8
REMARK    5  A    between atoms: C_7  and  N_16
REMARK    6  A    between atoms: C_8  and  C_9
REMARK    7  A    between atoms: C_17  and  C_19
REMARK    8  A    between atoms: C_22  and  C_23
REMARK                            x       y       z     vdW  Elec       q    Type
REMARK                         _______ _______ _______ _____ _____    ______ ____
ROOT
ATOM      1  C   UNL     1       5.549   4.162  16.244  0.00  0.00    +0.000 C 
ENDROOT
BRANCH   1   3
ATOM      2  N   UNL     1       6.103   3.381  13.941  0.00  0.00    +0.000 N 
ATOM      3  C   UNL     1       5.578   4.404  14.712  0.00  0.00    +0.000 C 
ATOM      4  O   UNL     1       5.168   5.457  14.218  0.00  0.00    +0.000 OA
ATOM      5  H   UNL     1       6.199   2.457  14.348  0.00  0.00    +0.000 HD
BRANCH   2   6
ATOM      6  C   UNL     1       6.139   3.473  12.494  0.00  0.00    +0.000 C 
ATOM      7  C   UNL     1       7.355   2.924  11.760  0.00  0.00    +0.000 C 
ATOM      8  C   UNL     1       7.143   4.402  11.833  0.00  0.00    +0.000 C 
BRANCH   6  10
ATOM      9  N   UNL     1       3.834   3.165  11.304  0.00  0.00    +0.000 NA
ATOM     10  C   UNL     1       4.861   3.273  11.838  0.00  0.00    +0.000 C 
ENDBRANCH   6  10
ENDBRANCH   2   6
ENDBRANCH   1   3
BRANCH   1  11
ATOM     11  N   UNL     1       4.631   5.154  16.815  0.00  0.00    +0.000 N 
ATOM     12  C   UNL     1       4.113   5.084  18.088  0.00  0.00    +0.000 C 
ATOM     13  O   UNL     1       4.367   4.175  18.867  0.00  0.00    +0.000 OA
ATOM     14  H   UNL     1       4.485   5.987  16.250  0.00  0.00    +0.000 HD
BRANCH  12  15
ATOM     15  C   UNL     1       3.272   6.239  18.511  0.00  0.00    +0.000 A 
ATOM     16  C   UNL     1       2.589   6.225  19.729  0.00  0.00    +0.000 A 
ATOM     17  C   UNL     1       1.787   7.311  20.094  0.00  0.00    +0.000 A 
ATOM     18  C   UNL     1       1.657   8.452  19.277  0.00  0.00    +0.000 A 
ATOM     19  C   UNL     1       2.364   8.447  18.060  0.00  0.00    +0.000 A 
ATOM     20  C   UNL     1       3.163   7.357  17.680  0.00  0.00    +0.000 A 
BRANCH  18  21
ATOM     21  C   UNL     1       0.807   9.593  19.702  0.00  0.00    +0.000 A 
ATOM     22  C   UNL     1       0.839  10.067  21.028  0.00  0.00    +0.000 A 
ATOM     23  C   UNL     1       0.007  11.103  21.465  0.00  0.00    +0.000 A 
ATOM     24  C   UNL     1      -0.867  11.711  20.573  0.00  0.00    +0.000 A 
ATOM     25  C   UNL     1      -0.905  11.285  19.249  0.00  0.00    +0.000 A 
ATOM     26  C   UNL     1      -0.080  10.237  18.820  0.00  0.00    +0.000 A 
ENDBRANCH  18  21
ENDBRANCH  12  15
ENDBRANCH   1  11
BRANCH   1  27
ATOM     27  C   UNL     1       6.962   4.204  16.865  0.00  0.00    +0.000 C 
BRANCH  27  28
ATOM     28  C   UNL     1       7.344   5.556  17.415  0.00  0.00    +0.000 A 
ATOM     29  C   UNL     1       7.850   5.695  18.709  0.00  0.00    +0.000 A 
ATOM     30  C   UNL     1       8.286   6.943  19.144  0.00  0.00    +0.000 A 
ATOM     31  C   UNL     1       8.189   8.008  18.269  0.00  0.00    +0.000 A 
ATOM     32 CL   UNL     1       8.746   9.567  18.715  0.00  0.00    +0.000 Cl
ATOM     33  N   UNL     1       7.676   7.926  17.025  0.00  0.00    +0.000 NA
ATOM     34  C   UNL     1       7.263   6.703  16.628  0.00  0.00    +0.000 A 
ENDBRANCH  27  28
ENDBRANCH   1  27
TORSDOF 8
ENDMDL
MODEL 2
REMARK VINA RESULT:      -8.3      0.299      1.221
REMARK  Name = 
REMARK  8 active torsions:
REMARK  status: ('A' for Active; 'I' for Inactive)
REMARK    1  A    between atoms: C_2  and  C_3
REMARK    2  A    between atoms: C_3  and  N_4
REMARK    3  A    between atoms: C_5  and  C_7
REMARK    4  A    between atoms: C_7  and  C_8
REMARK    5  A    between atoms: C_7  and  N_16
REMARK    6  A    between atoms: C_8  and  C_9
REMARK    7  A    between atoms: C_17  and  C_19
REMARK    8  A    between atoms: C_22  and  C_23
REMARK                            x       y       z     vdW  Elec       q    Type
REMARK                         _______ _______ _______ _____ _____    ______ ____
ROOT
ATOM      1  C   UNL     1       5.640   4.265  16.285  0.00  0.00    +0.000 C 
ENDROOT
BRANCH   1   3
ATOM      2  N   UNL     1       6.130   3.452  13.979  0.00  0.00    +0.000 N 
ATOM      3  C   UNL     1       5.661   4.500  14.752  0.00  0.00    +0.000 C 
ATOM      4  O   UNL     1       5.292   5.568  14.258  0.00  0.00    +0.000 OA
ATOM      5  H   UNL     1       6.189   2.526  14.388  0.00  0.00    +0.000 HD
BRANCH   2   6
ATOM      6  C   UNL     1       6.152   3.537  12.531  0.00  0.00    +0.000 C 
ATOM      7  C   UNL     1       7.341   2.944  11.786  0.00  0.00    +0.000 C 
ATOM      8  C   UNL     1       7.179   4.428  11.855  0.00  0.00    +0.000 C 
BRANCH   6  10
ATOM      9  N   UNL     1       3.834   3.196  11.377  0.00  0.00    +0.000 NA
ATOM     10  C   UNL     1       4.860   3.377  11.891  0.00  0.00    +0.000 C 
ENDBRANCH   6  10
ENDBRANCH   2   6
ENDBRANCH   1   3
BRANCH   1  11
ATOM     11  N   UNL     1       4.728   5.262  16.857  0.00  0.00    +0.000 N 
ATOM     12  C   UNL     1       3.799   4.988  17.835  0.00  0.00    +0.000 C 
ATOM     13  O   UNL     1       3.641   3.875  18.317  0.00  0.00    +0.000 OA
ATOM     14  H   UNL     1       4.902   6.223  16.574  0.00  0.00    +0.000 HD
BRANCH  12  15
ATOM     15  C   UNL     1       3.032   6.158  18.348  0.00  0.00    +0.000 A 
ATOM     16  C   UNL     1       2.782   7.266  17.537  0.00  0.00    +0.000 A 
ATOM     17  C   UNL     1       2.080   8.364  18.047  0.00  0.00    +0.000 A 
ATOM     18  C   UNL     1       1.584   8.385  19.367  0.00  0.00    +0.000 A 
ATOM     19  C   UNL     1       1.841   7.252  20.162  0.00  0.00    +0.000 A 
ATOM     20  C   UNL     1       2.553   6.150  19.661  0.00  0.00    +0.000 A 
BRANCH  18  21
ATOM     21  C   UNL     1       0.832   9.561  19.873  0.00  0.00    +0.000 A 
ATOM     22  C   UNL     1       0.267  10.497  18.984  0.00  0.00    +0.000 A 
ATOM     23  C   UNL     1      -0.397  11.641  19.438  0.00  0.00    +0.000 A 
ATOM     24  C   UNL     1      -0.535  11.867  20.801  0.00  0.00    +0.000 A 
ATOM     25  C   UNL     1      -0.011  10.949  21.707  0.00  0.00    +0.000 A 
ATOM     26  C   UNL     1       0.667   9.811  21.247  0.00  0.00    +0.000 A 
ENDBRANCH  18  21
ENDBRANCH  12  15
ENDBRANCH   1  11
BRANCH   1  27
ATOM     27  C   UNL     1       7.056   4.305  16.898  0.00  0.00    +0.000 C 
BRANCH  27  28
ATOM     28  C   UNL     1       7.433   5.650  17.469  0.00  0.00    +0.000 A 
ATOM     29  C   UNL     1       7.941   5.772  18.763  0.00  0.00    +0.000 A 
ATOM     30  C   UNL     1       8.372   7.015  19.217  0.00  0.00    +0.000 A 
ATOM     31  C   UNL     1       8.268   8.093  18.358  0.00  0.00    +0.000 A 
ATOM     32 CL   UNL     1       8.820   9.647  18.828  0.00  0.00    +0.000 Cl
ATOM     33  N   UNL     1       7.754   8.028  17.115  0.00  0.00    +0.000 NA
ATOM     34  C   UNL     1       7.346   6.809  16.700  0.00  0.00    +0.000 A 
ENDBRANCH  27  28
ENDBRANCH   1  27
TORSDOF 8
ENDMDL
MODEL 3
REMARK VINA RESULT:      -8.1      0.792      1.165
REMARK  Name = 
REMARK  8 active torsions:
REMARK  status: ('A' for Active; 'I' for Inactive)
REMARK    1  A    between atoms: C_2  and  C_3
REMARK    2  A    between atoms: C_3  and  N_4
REMARK    3  A    between atoms: C_5  and  C_7
REMARK    4  A    between atoms: C_7  and  C_8
REMARK    5  A    between atoms: C_7  and  N_16
REMARK    6  A    between atoms: C_8  and  C_9
REMARK    7  A    between atoms: C_17  and  C_19
REMARK    8  A    between atoms: C_22  and  C_23
REMARK                            x       y       z     vdW  Elec       q    Type
REMARK                         _______ _______ _______ _____ _____    ______ ____
ROOT
ATOM      1  C   UNL     1       5.619   4.235  16.492  0.00  0.00    +0.000 C 
ENDROOT
BRANCH   1   3
ATOM      2  N   UNL     1       6.142   3.472  14.176  0.00  0.00    +0.000 N 
ATOM      3  C   UNL     1       5.619   4.486  14.961  0.00  0.00    +0.000 C 
ATOM      4  O   UNL     1       5.189   5.536  14.479  0.00  0.00    +0.000 OA
ATOM      5  H   UNL     1       6.255   2.548  14.576  0.00  0.00    +0.000 HD
BRANCH   2   6
ATOM      6  C   UNL     1       6.153   3.573  12.729  0.00  0.00    +0.000 C 
ATOM      7  C   UNL     1       4.844   3.373  11.976  0.00  0.00    +0.000 C 
ATOM      8  C   UNL     1       5.908   2.327  11.896  0.00  0.00    +0.000 C 
BRANCH   6  10
ATOM      9  N   UNL     1       7.789   5.362  11.758  0.00  0.00    +0.000 NA
ATOM     10  C   UNL     1       7.041   4.588  12.194  0.00  0.00    +0.000 C 
ENDBRANCH   6  10
ENDBRANCH   2   6
ENDBRANCH   1   3
BRANCH   1  11
ATOM     11  N   UNL     1       4.688   5.204  17.082  0.00  0.00    +0.000 N 
ATOM     12  C   UNL     1       3.867   4.933  18.153  0.00  0.00    +0.000 C 
ATOM     13  O   UNL     1       3.831   3.845  18.712  0.00  0.00    +0.000 OA
ATOM     14  H   UNL     1       4.768   6.155  16.729  0.00  0.00    +0.000 HD
BRANCH  12  15
ATOM     15  C   UNL     1       3.064   6.080  18.662  0.00  0.00    +0.000 A 
ATOM     16  C   UNL     1       2.467   6.038  19.923  0.00  0.00    +0.000 A 
ATOM     17  C   UNL     1       1.698   7.117  20.370  0.00  0.00    +0.000 A 
ATOM     18  C   UNL     1       1.518   8.279  19.593  0.00  0.00    +0.000 A 
ATOM     19  C   UNL     1       2.139   8.302  18.329  0.00  0.00    +0.000 A 
ATOM     20  C   UNL     1       2.904   7.219  17.868  0.00  0.00    +0.000 A 
BRANCH  18  21
ATOM     21  C   UNL     1       0.706   9.412  20.104  0.00  0.00    +0.000 A 
ATOM     22  C   UNL     1       0.731   9.766  21.467  0.00  0.00    +0.000 A 
ATOM     23  C   UNL     1      -0.068  10.792  21.981  0.00  0.00    +0.000 A 
ATOM     24  C   UNL     1      -0.900  11.512  21.133  0.00  0.00    +0.000 A 
ATOM     25  C   UNL     1      -0.930  11.206  19.776  0.00  0.00    +0.000 A 
ATOM     26  C   UNL     1      -0.138  10.166  19.269  0.00  0.00    +0.000 A 
ENDBRANCH  18  21
ENDBRANCH  12  15
ENDBRANCH   1  11
BRANCH   1  27
ATOM     27  C   UNL     1       7.040   4.305  17.092  0.00  0.00    +0.000 C 
BRANCH  27  28
ATOM     28  C   UNL     1       7.427   5.679  17.580  0.00  0.00    +0.000 A 
ATOM     29  C   UNL     1       7.970   5.870  18.852  0.00  0.00    +0.000 A 
ATOM     30  C   UNL     1       8.408   7.136  19.227  0.00  0.00    +0.000 A 
ATOM     31  C   UNL     1       8.277   8.167  18.317  0.00  0.00    +0.000 A 
ATOM     32 CL   UNL     1       8.834   9.745  18.688  0.00  0.00    +0.000 Cl
ATOM     33  N   UNL     1       7.729   8.035  17.093  0.00  0.00    +0.000 NA
ATOM     34  C   UNL     1       7.314   6.795  16.754  0.00  0.00    +0.000 A 
ENDBRANCH  27  28
ENDBRANCH   1  27
TORSDOF 8
ENDMDL
MODEL 4
REMARK VINA RESULT:      -8.0      3.406      5.302
REMARK  Name = 
REMARK  8 active torsions:
REMARK  status: ('A' for Active; 'I' for Inactive)
REMARK    1  A    between atoms: C_2  and  C_3
REMARK    2  A    between atoms: C_3  and  N_4
REMARK    3  A    between atoms: C_5  and  C_7
REMARK    4  A    between atoms: C_7  and  C_8
REMARK    5  A    between atoms: C_7  and  N_16
REMARK    6  A    between atoms: C_8  and  C_9
REMARK    7  A    between atoms: C_17  and  C_19
REMARK    8  A    between atoms: C_22  and  C_23
REMARK                            x       y       z     vdW  Elec       q    Type
REMARK                         _______ _______ _______ _____ _____    ______ ____
ROOT
ATOM      1  C   UNL     1       4.021   5.046  16.832  0.00  0.00    +0.000 C 
ENDROOT
BRANCH   1   3
ATOM      2  N   UNL     1       5.930   5.783  18.258  0.00  0.00    +0.000 N 
ATOM      3  C   UNL     1       5.530   5.361  17.001  0.00  0.00    +0.000 C 
ATOM      4  O   UNL     1       6.321   5.254  16.061  0.00  0.00    +0.000 OA
ATOM      5  H   UNL     1       5.315   5.626  19.049  0.00  0.00    +0.000 HD
BRANCH   2   6
ATOM      6  C   UNL     1       7.324   6.062  18.548  0.00  0.00    +0.000 C 
ATOM      7  C   UNL     1       8.316   4.907  18.532  0.00  0.00    +0.000 C 
ATOM      8  C   UNL     1       7.935   5.534  19.834  0.00  0.00    +0.000 C 
BRANCH   6  10
ATOM      9  N   UNL     1       8.156   8.353  17.608  0.00  0.00    +0.000 NA
ATOM     10  C   UNL     1       7.814   7.325  18.028  0.00  0.00    +0.000 C 
ENDBRANCH   6  10
ENDBRANCH   2   6
ENDBRANCH   1   3
BRANCH   1  11
ATOM     11  N   UNL     1       3.290   5.989  17.687  0.00  0.00    +0.000 N 
ATOM     12  C   UNL     1       3.147   7.330  17.411  0.00  0.00    +0.000 C 
ATOM     13  O   UNL     1       3.628   7.867  16.423  0.00  0.00    +0.000 OA
ATOM     14  H   UNL     1       2.774   5.569  18.456  0.00  0.00    +0.000 HD
BRANCH  12  15
ATOM     15  C   UNL     1       2.290   8.099  18.356  0.00  0.00    +0.000 A 
ATOM     16  C   UNL     1       1.690   9.299  17.970  0.00  0.00    +0.000 A 
ATOM     17  C   UNL     1       0.908  10.016  18.882  0.00  0.00    +0.000 A 
ATOM     18  C   UNL     1       0.676   9.553  20.193  0.00  0.00    +0.000 A 
ATOM     19  C   UNL     1       1.282   8.335  20.555  0.00  0.00    +0.000 A 
ATOM     20  C   UNL     1       2.077   7.614  19.650  0.00  0.00    +0.000 A 
BRANCH  18  21
ATOM     21  C   UNL     1      -0.171  10.332  21.131  0.00  0.00    +0.000 A 
ATOM     22  C   UNL     1      -0.375   9.897  22.456  0.00  0.00    +0.000 A 
ATOM     23  C   UNL     1      -1.213  10.585  23.339  0.00  0.00    +0.000 A 
ATOM     24  C   UNL     1      -1.853  11.746  22.925  0.00  0.00    +0.000 A 
ATOM     25  C   UNL     1      -1.652  12.218  21.632  0.00  0.00    +0.000 A 
ATOM     26  C   UNL     1      -0.822  11.517  20.745  0.00  0.00    +0.000 A 
ENDBRANCH  18  21
ENDBRANCH  12  15
ENDBRANCH   1  11
BRANCH   1  27
ATOM     27  C   UNL     1       3.700   3.567  17.136  0.00  0.00    +0.000 C 
BRANCH  27  28
ATOM     28  C   UNL     1       2.982   3.357  18.446  0.00  0.00    +0.000 A 
ATOM     29  C   UNL     1       1.590   3.431  18.530  0.00  0.00    +0.000 A 
ATOM     30  C   UNL     1       0.959   3.132  19.733  0.00  0.00    +0.000 A 
ATOM     31  C   UNL     1       1.747   2.779  20.812  0.00  0.00    +0.000 A 
ATOM     32 CL   UNL     1       1.042   2.353  22.315  0.00  0.00    +0.000 Cl
ATOM     33  N   UNL     1       3.093   2.728  20.786  0.00  0.00    +0.000 NA
ATOM     34  C   UNL     1       3.680   3.021  19.604  0.00  0.00    +0.000 A 
ENDBRANCH  27  28
ENDBRANCH   1  27
TORSDOF 8
ENDMDL
MODEL 5
REMARK VINA RESULT:      -8.0      3.413      5.313
REMARK  Name = 
REMARK  8 active torsions:
REMARK  status: ('A' for Active; 'I' for Inactive)
REMARK    1  A    between atoms: C_2  and  C_3
REMARK    2  A    between atoms: C_3  and  N_4
REMARK    3  A    between atoms: C_5  and  C_7
REMARK    4  A    between atoms: C_7  and  C_8
REMARK    5  A    between atoms: C_7  and  N_16
REMARK    6  A    between atoms: C_8  and  C_9
REMARK    7  A    between atoms: C_17  and  C_19
REMARK    8  A    between atoms: C_22  and  C_23
REMARK                            x       y       z     vdW  Elec       q    Type
REMARK                         _______ _______ _______ _____ _____    ______ ____
ROOT
ATOM      1  C   UNL     1       3.972   4.825  16.896  0.00  0.00    +0.000 C 
ENDROOT
BRANCH   1   3
ATOM      2  N   UNL     1       5.814   6.215  17.840  0.00  0.00    +0.000 N 
ATOM      3  C   UNL     1       5.483   5.146  17.025  0.00  0.00    +0.000 C 
ATOM      4  O   UNL     1       6.336   4.491  16.422  0.00  0.00    +0.000 OA
ATOM      5  H   UNL     1       5.125   6.565  18.497  0.00  0.00    +0.000 HD
BRANCH   2   6
ATOM      6  C   UNL     1       7.198   6.581  18.076  0.00  0.00    +0.000 C 
ATOM      7  C   UNL     1       7.589   8.049  17.974  0.00  0.00    +0.000 C 
ATOM      8  C   UNL     1       8.039   7.090  16.919  0.00  0.00    +0.000 C 
BRANCH   6  10
ATOM      9  N   UNL     1       8.436   5.213  19.924  0.00  0.00    +0.000 NA
ATOM     10  C   UNL     1       7.861   5.821  19.119  0.00  0.00    +0.000 C 
ENDBRANCH   6  10
ENDBRANCH   2   6
ENDBRANCH   1   3
BRANCH   1  11
ATOM     11  N   UNL     1       3.257   5.792  17.737  0.00  0.00    +0.000 N 
ATOM     12  C   UNL     1       3.174   7.139  17.466  0.00  0.00    +0.000 C 
ATOM     13  O   UNL     1       3.702   7.661  16.494  0.00  0.00    +0.000 OA
ATOM     14  H   UNL     1       2.705   5.388  18.490  0.00  0.00    +0.000 HD
BRANCH  12  15
ATOM     15  C   UNL     1       2.324   7.936  18.393  0.00  0.00    +0.000 A 
ATOM     16  C   UNL     1       2.164   7.559  19.728  0.00  0.00    +0.000 A 
ATOM     17  C   UNL     1       1.341   8.310  20.574  0.00  0.00    +0.000 A 
ATOM     18  C   UNL     1       0.674   9.470  20.131  0.00  0.00    +0.000 A 
ATOM     19  C   UNL     1       0.859   9.835  18.784  0.00  0.00    +0.000 A 
ATOM     20  C   UNL     1       1.675   9.082  17.925  0.00  0.00    +0.000 A 
BRANCH  18  21
ATOM     21  C   UNL     1      -0.182  10.251  21.060  0.00  0.00    +0.000 A 
ATOM     22  C   UNL     1      -0.823  11.431  20.635  0.00  0.00    +0.000 A 
ATOM     23  C   UNL     1      -1.587  12.213  21.507  0.00  0.00    +0.000 A 
ATOM     24  C   UNL     1      -1.750  11.818  22.829  0.00  0.00    +0.000 A 
ATOM     25  C   UNL     1      -1.152  10.644  23.275  0.00  0.00    +0.000 A 
ATOM     26  C   UNL     1      -0.375   9.871  22.400  0.00  0.00    +0.000 A 
ENDBRANCH  18  21
ENDBRANCH  12  15
ENDBRANCH   1  11
BRANCH   1  27
ATOM     27  C   UNL     1       3.658   3.355  17.248  0.00  0.00    +0.000 C 
BRANCH  27  28
ATOM     28  C   UNL     1       2.937   3.185  18.562  0.00  0.00    +0.000 A 
ATOM     29  C   UNL     1       1.544   3.233  18.637  0.00  0.00    +0.000 A 
ATOM     30  C   UNL     1       0.913   2.972  19.849  0.00  0.00    +0.000 A 
ATOM     31  C   UNL     1       1.702   2.681  20.945  0.00  0.00    +0.000 A 
ATOM     32 CL   UNL     1       0.998   2.303  22.461  0.00  0.00    +0.000 Cl
ATOM     33  N   UNL     1       3.049   2.657  20.927  0.00  0.00    +0.000 NA
ATOM     34  C   UNL     1       3.636   2.912  19.737  0.00  0.00    +0.000 A 
ENDBRANCH  27  28
ENDBRANCH   1  27
TORSDOF 8
ENDMDL
MODEL 6
REMARK VINA RESULT:      -8.0      3.378      6.086
REMARK  Name = 
REMARK  8 active torsions:
REMARK  status: ('A' for Active; 'I' for Inactive)
REMARK    1  A    between atoms: C_2  and  C_3
REMARK    2  A    between atoms: C_3  and  N_4
REMARK    3  A    between atoms: C_5  and  C_7
REMARK    4  A    between atoms: C_7  and  C_8
REMARK    5  A    between atoms: C_7  and  N_16
REMARK    6  A    between atoms: C_8  and  C_9
REMARK    7  A    between atoms: C_17  and  C_19
REMARK    8  A    between atoms: C_22  and  C_23
REMARK                            x       y       z     vdW  Elec       q    Type
REMARK                         _______ _______ _______ _____ _____    ______ ____
ROOT
ATOM      1  C   UNL     1       2.582   6.703  19.607  0.00  0.00    +0.000 C 
ENDROOT
BRANCH   1   3
ATOM      2  N   UNL     1       2.442   4.220  19.417  0.00  0.00    +0.000 N 
ATOM      3  C   UNL     1       1.889   5.364  19.969  0.00  0.00    +0.000 C 
ATOM      4  O   UNL     1       0.894   5.328  20.696  0.00  0.00    +0.000 OA
ATOM      5  H   UNL     1       3.380   4.262  19.036  0.00  0.00    +0.000 HD
BRANCH   2   6
ATOM      6  C   UNL     1       1.909   2.906  19.721  0.00  0.00    +0.000 C 
ATOM      7  C   UNL     1       2.274   1.744  18.807  0.00  0.00    +0.000 C 
ATOM      8  C   UNL     1       0.882   2.287  18.790  0.00  0.00    +0.000 C 
BRANCH   6  10
ATOM      9  N   UNL     1       1.747   2.399  22.278  0.00  0.00    +0.000 NA
ATOM     10  C   UNL     1       1.823   2.595  21.136  0.00  0.00    +0.000 C 
ENDBRANCH   6  10
ENDBRANCH   2   6
ENDBRANCH   1   3
BRANCH   1  11
ATOM     11  N   UNL     1       1.850   7.765  20.307  0.00  0.00    +0.000 N 
ATOM     12  C   UNL     1       1.458   8.948  19.723  0.00  0.00    +0.000 C 
ATOM     13  O   UNL     1       1.692   9.230  18.556  0.00  0.00    +0.000 OA
ATOM     14  H   UNL     1       1.530   7.527  21.243  0.00  0.00    +0.000 HD
BRANCH  12  15
ATOM     15  C   UNL     1       0.643   9.855  20.579  0.00  0.00    +0.000 A 
ATOM     16  C   UNL     1       0.230   9.464  21.854  0.00  0.00    +0.000 A 
ATOM     17  C   UNL     1      -0.554  10.323  22.631  0.00  0.00    +0.000 A 
ATOM     18  C   UNL     1      -0.930  11.605  22.179  0.00  0.00    +0.000 A 
ATOM     19  C   UNL     1      -0.492  11.980  20.894  0.00  0.00    +0.000 A 
ATOM     20  C   UNL     1       0.286  11.120  20.104  0.00  0.00    +0.000 A 
BRANCH  18  21
ATOM     21  C   UNL     1      -1.752  12.497  23.034  0.00  0.00    +0.000 A 
ATOM     22  C   UNL     1      -1.268  13.755  23.445  0.00  0.00    +0.000 A 
ATOM     23  C   UNL     1      -2.001  14.588  24.296  0.00  0.00    +0.000 A 
ATOM     24  C   UNL     1      -3.255  14.191  24.743  0.00  0.00    +0.000 A 
ATOM     25  C   UNL     1      -3.774  12.965  24.336  0.00  0.00    +0.000 A 
ATOM     26  C   UNL     1      -3.029  12.128  23.493  0.00  0.00    +0.000 A 
ENDBRANCH  18  21
ENDBRANCH  12  15
ENDBRANCH   1  11
BRANCH   1  27
ATOM     27  C   UNL     1       2.666   6.919  18.080  0.00  0.00    +0.000 C 
BRANCH  27  28
ATOM     28  C   UNL     1       3.893   6.312  17.447  0.00  0.00    +0.000 A 
ATOM     29  C   UNL     1       3.914   4.977  17.040  0.00  0.00    +0.000 A 
ATOM     30  C   UNL     1       5.028   4.482  16.369  0.00  0.00    +0.000 A 
ATOM     31  C   UNL     1       6.085   5.342  16.138  0.00  0.00    +0.000 A 
ATOM     32 CL   UNL     1       7.472   4.819  15.278  0.00  0.00    +0.000 Cl
ATOM     33  N   UNL     1       6.121   6.626  16.542  0.00  0.00    +0.000 NA
ATOM     34  C   UNL     1       5.026   7.081  17.189  0.00  0.00    +0.000 A 
ENDBRANCH  27  28
ENDBRANCH   1  27
TORSDOF 8
ENDMDL
MODEL 7
REMARK VINA RESULT:      -7.9      3.324      5.155
REMARK  Name = 
REMARK  8 active torsions:
REMARK  status: ('A' for Active; 'I' for Inactive)
REMARK    1  A    between atoms: C_2  and  C_3
REMARK    2  A    between atoms: C_3  and  N_4
REMARK    3  A    between atoms: C_5  and  C_7
REMARK    4  A    between atoms: C_7  and  C_8
REMARK    5  A    between atoms: C_7  and  N_16
REMARK    6  A    between atoms: C_8  and  C_9
REMARK    7  A    between atoms: C_17  and  C_19
REMARK    8  A    between atoms: C_22  and  C_23
REMARK                            x       y       z     vdW  Elec       q    Type
REMARK                         _______ _______ _______ _____ _____    ______ ____
ROOT
ATOM      1  C   UNL     1       3.909   4.692  16.762  0.00  0.00    +0.000 C 
ENDROOT
BRANCH   1   3
ATOM      2  N   UNL     1       5.803   5.653  18.071  0.00  0.00    +0.000 N 
ATOM      3  C   UNL     1       5.425   4.979  16.922  0.00  0.00    +0.000 C 
ATOM      4  O   UNL     1       6.241   4.635  16.063  0.00  0.00    +0.000 OA
ATOM      5  H   UNL     1       5.155   5.700  18.850  0.00  0.00    +0.000 HD
BRANCH   2   6
ATOM      6  C   UNL     1       7.197   5.936  18.352  0.00  0.00    +0.000 C 
ATOM      7  C   UNL     1       8.179   4.774  18.404  0.00  0.00    +0.000 C 
ATOM      8  C   UNL     1       7.798   5.474  19.668  0.00  0.00    +0.000 C 
BRANCH   6  10
ATOM      9  N   UNL     1       8.092   8.172  17.341  0.00  0.00    +0.000 NA
ATOM     10  C   UNL     1       7.701   7.164  17.765  0.00  0.00    +0.000 C 
ENDBRANCH   6  10
ENDBRANCH   2   6
ENDBRANCH   1   3
BRANCH   1  11
ATOM     11  N   UNL     1       3.204   5.631  17.641  0.00  0.00    +0.000 N 
ATOM     12  C   UNL     1       3.298   7.001  17.544  0.00  0.00    +0.000 C 
ATOM     13  O   UNL     1       3.993   7.568  16.712  0.00  0.00    +0.000 OA
ATOM     14  H   UNL     1       2.523   5.211  18.270  0.00  0.00    +0.000 HD
BRANCH  12  15
ATOM     15  C   UNL     1       2.429   7.779  18.470  0.00  0.00    +0.000 A 
ATOM     16  C   UNL     1       2.220   7.359  19.785  0.00  0.00    +0.000 A 
ATOM     17  C   UNL     1       1.381   8.093  20.630  0.00  0.00    +0.000 A 
ATOM     18  C   UNL     1       0.745   9.277  20.206  0.00  0.00    +0.000 A 
ATOM     19  C   UNL     1       0.980   9.686  18.880  0.00  0.00    +0.000 A 
ATOM     20  C   UNL     1       1.811   8.950  18.021  0.00  0.00    +0.000 A 
BRANCH  18  21
ATOM     21  C   UNL     1      -0.129  10.039  21.134  0.00  0.00    +0.000 A 
ATOM     22  C   UNL     1      -0.801  11.202  20.707  0.00  0.00    +0.000 A 
ATOM     23  C   UNL     1      -1.583  11.967  21.578  0.00  0.00    +0.000 A 
ATOM     24  C   UNL     1      -1.735  11.572  22.901  0.00  0.00    +0.000 A 
ATOM     25  C   UNL     1      -1.106  10.414  23.349  0.00  0.00    +0.000 A 
ATOM     26  C   UNL     1      -0.310   9.659  22.476  0.00  0.00    +0.000 A 
ENDBRANCH  18  21
ENDBRANCH  12  15
ENDBRANCH   1  11
BRANCH   1  27
ATOM     27  C   UNL     1       3.566   3.213  17.041  0.00  0.00    +0.000 C 
BRANCH  27  28
ATOM     28  C   UNL     1       2.987   2.972  18.413  0.00  0.00    +0.000 A 
ATOM     29  C   UNL     1       3.805   2.899  19.543  0.00  0.00    +0.000 A 
ATOM     30  C   UNL     1       3.226   2.777  20.801  0.00  0.00    +0.000 A 
ATOM     31  C   UNL     1       1.848   2.721  20.882  0.00  0.00    +0.000 A 
ATOM     32 CL   UNL     1       1.059   2.616  22.400  0.00  0.00    +0.000 Cl
ATOM     33  N   UNL     1       1.022   2.753  19.818  0.00  0.00    +0.000 NA
ATOM     34  C   UNL     1       1.611   2.875  18.608  0.00  0.00    +0.000 A 
ENDBRANCH  27  28
ENDBRANCH   1  27
TORSDOF 8
ENDMDL
MODEL 8
REMARK VINA RESULT:      -7.9      5.588     10.609
REMARK  Name = 
REMARK  8 active torsions:
REMARK  status: ('A' for Active; 'I' for Inactive)
REMARK    1  A    between atoms: C_2  and  C_3
REMARK    2  A    between atoms: C_3  and  N_4
REMARK    3  A    between atoms: C_5  and  C_7
REMARK    4  A    between atoms: C_7  and  C_8
REMARK    5  A    between atoms: C_7  and  N_16
REMARK    6  A    between atoms: C_8  and  C_9
REMARK    7  A    between atoms: C_17  and  C_19
REMARK    8  A    between atoms: C_22  and  C_23
REMARK                            x       y       z     vdW  Elec       q    Type
REMARK                         _______ _______ _______ _____ _____    ______ ____
ROOT
ATOM      1  C   UNL     1      -0.043  11.837  20.839  0.00  0.00    +0.000 C 
ENDROOT
BRANCH   1   3
ATOM      2  N   UNL     1      -1.893  11.076  19.349  0.00  0.00    +0.000 N 
ATOM      3  C   UNL     1      -1.178  12.159  19.832  0.00  0.00    +0.000 C 
ATOM      4  O   UNL     1      -1.415  13.315  19.475  0.00  0.00    +0.000 OA
ATOM      5  H   UNL     1      -1.835  10.190  19.839  0.00  0.00    +0.000 HD
BRANCH   2   6
ATOM      6  C   UNL     1      -3.007  11.257  18.438  0.00  0.00    +0.000 C 
ATOM      7  C   UNL     1      -3.350  10.127  17.476  0.00  0.00    +0.000 C 
ATOM      8  C   UNL     1      -2.736  11.384  16.949  0.00  0.00    +0.000 C 
BRANCH   6  10
ATOM      9  N   UNL     1      -5.070  12.541  19.395  0.00  0.00    +0.000 NA
ATOM     10  C   UNL     1      -4.136  11.981  18.991  0.00  0.00    +0.000 C 
ENDBRANCH   6  10
ENDBRANCH   2   6
ENDBRANCH   1   3
BRANCH   1  11
ATOM     11  N   UNL     1       0.790  10.798  20.225  0.00  0.00    +0.000 N 
ATOM     12  C   UNL     1       0.605   9.446  20.413  0.00  0.00    +0.000 C 
ATOM     13  O   UNL     1      -0.276   8.983  21.124  0.00  0.00    +0.000 OA
ATOM     14  H   UNL     1       1.459  11.129  19.533  0.00  0.00    +0.000 HD
BRANCH  12  15
ATOM     15  C   UNL     1       1.499   8.553  19.626  0.00  0.00    +0.000 A 
ATOM     16  C   UNL     1       1.902   8.894  18.333  0.00  0.00    +0.000 A 
ATOM     17  C   UNL     1       2.723   8.028  17.604  0.00  0.00    +0.000 A 
ATOM     18  C   UNL     1       3.191   6.811  18.142  0.00  0.00    +0.000 A 
ATOM     19  C   UNL     1       2.780   6.495  19.451  0.00  0.00    +0.000 A 
ATOM     20  C   UNL     1       1.947   7.353  20.186  0.00  0.00    +0.000 A 
BRANCH  18  21
ATOM     21  C   UNL     1       4.073   5.922  17.345  0.00  0.00    +0.000 A 
ATOM     22  C   UNL     1       4.992   6.452  16.418  0.00  0.00    +0.000 A 
ATOM     23  C   UNL     1       5.792   5.632  15.617  0.00  0.00    +0.000 A 
ATOM     24  C   UNL     1       5.710   4.251  15.740  0.00  0.00    +0.000 A 
ATOM     25  C   UNL     1       4.831   3.694  16.664  0.00  0.00    +0.000 A 
ATOM     26  C   UNL     1       4.021   4.520  17.455  0.00  0.00    +0.000 A 
ENDBRANCH  18  21
ENDBRANCH  12  15
ENDBRANCH   1  11
BRANCH   1  27
ATOM     27  C   UNL     1      -0.594  11.442  22.226  0.00  0.00    +0.000 C 
BRANCH  27  28
ATOM     28  C   UNL     1      -1.453  12.506  22.864  0.00  0.00    +0.000 A 
ATOM     29  C   UNL     1      -2.772  12.244  23.240  0.00  0.00    +0.000 A 
ATOM     30  C   UNL     1      -3.499  13.218  23.916  0.00  0.00    +0.000 A 
ATOM     31  C   UNL     1      -2.880  14.424  24.183  0.00  0.00    +0.000 A 
ATOM     32 CL   UNL     1      -3.694  15.657  25.052  0.00  0.00    +0.000 Cl
ATOM     33  N   UNL     1      -1.623  14.732  23.811  0.00  0.00    +0.000 NA
ATOM     34  C   UNL     1      -0.939  13.767  23.157  0.00  0.00    +0.000 A 
ENDBRANCH  27  28
ENDBRANCH   1  27
TORSDOF 8
ENDMDL
MODEL 9
REMARK VINA RESULT:      -7.8      3.331      6.127
REMARK  Name = 
REMARK  8 active torsions:
REMARK  status: ('A' for Active; 'I' for Inactive)
REMARK    1  A    between atoms: C_2  and  C_3
REMARK    2  A    between atoms: C_3  and  N_4
REMARK    3  A    between atoms: C_5  and  C_7
REMARK    4  A    between atoms: C_7  and  C_8
REMARK    5  A    between atoms: C_7  and  N_16
REMARK    6  A    between atoms: C_8  and  C_9
REMARK    7  A    between atoms: C_17  and  C_19
REMARK    8  A    between atoms: C_22  and  C_23
REMARK                            x       y       z     vdW  Elec       q    Type
REMARK                         _______ _______ _______ _____ _____    ______ ____
ROOT
ATOM      1  C   UNL     1       2.655   6.779  19.574  0.00  0.00    +0.000 C 
ENDROOT
BRANCH   1   3
ATOM      2  N   UNL     1       2.564   4.294  19.375  0.00  0.00    +0.000 N 
ATOM      3  C   UNL     1       2.036   5.418  19.987  0.00  0.00    +0.000 C 
ATOM      4  O   UNL     1       1.115   5.350  20.805  0.00  0.00    +0.000 OA
ATOM      5  H   UNL     1       3.461   4.364  18.907  0.00  0.00    +0.000 HD
BRANCH   2   6
ATOM      6  C   UNL     1       2.098   2.964  19.716  0.00  0.00    +0.000 C 
ATOM      7  C   UNL     1       2.221   1.861  18.673  0.00  0.00    +0.000 C 
ATOM      8  C   UNL     1       0.872   2.404  19.017  0.00  0.00    +0.000 C 
BRANCH   6  10
ATOM      9  N   UNL     1       2.528   2.296  22.204  0.00  0.00    +0.000 NA
ATOM     10  C   UNL     1       2.342   2.565  21.090  0.00  0.00    +0.000 C 
ENDBRANCH   6  10
ENDBRANCH   2   6
ENDBRANCH   1   3
BRANCH   1  11
ATOM     11  N   UNL     1       1.896   7.822  20.272  0.00  0.00    +0.000 N 
ATOM     12  C   UNL     1       1.447   8.980  19.679  0.00  0.00    +0.000 C 
ATOM     13  O   UNL     1       1.648   9.252  18.503  0.00  0.00    +0.000 OA
ATOM     14  H   UNL     1       1.602   7.587  21.218  0.00  0.00    +0.000 HD
BRANCH  12  15
ATOM     15  C   UNL     1       0.614   9.869  20.536  0.00  0.00    +0.000 A 
ATOM     16  C   UNL     1      -0.040  10.980  20.001  0.00  0.00    +0.000 A 
ATOM     17  C   UNL     1      -0.797  11.814  20.830  0.00  0.00    +0.000 A 
ATOM     18  C   UNL     1      -0.950  11.558  22.208  0.00  0.00    +0.000 A 
ATOM     19  C   UNL     1      -0.290  10.426  22.722  0.00  0.00    +0.000 A 
ATOM     20  C   UNL     1       0.481   9.589  21.899  0.00  0.00    +0.000 A 
BRANCH  18  21
ATOM     21  C   UNL     1      -1.772  12.457  23.057  0.00  0.00    +0.000 A 
ATOM     22  C   UNL     1      -3.082  12.101  23.432  0.00  0.00    +0.000 A 
ATOM     23  C   UNL     1      -3.895  12.956  24.184  0.00  0.00    +0.000 A 
ATOM     24  C   UNL     1      -3.405  14.187  24.603  0.00  0.00    +0.000 A 
ATOM     25  C   UNL     1      -2.105  14.558  24.272  0.00  0.00    +0.000 A 
ATOM     26  C   UNL     1      -1.300  13.703  23.506  0.00  0.00    +0.000 A 
ENDBRANCH  18  21
ENDBRANCH  12  15
ENDBRANCH   1  11
BRANCH   1  27
ATOM     27  C   UNL     1       2.683   6.962  18.041  0.00  0.00    +0.000 C 
BRANCH  27  28
ATOM     28  C   UNL     1       3.903   6.368  17.381  0.00  0.00    +0.000 A 
ATOM     29  C   UNL     1       3.916   5.043  16.941  0.00  0.00    +0.000 A 
ATOM     30  C   UNL     1       5.021   4.562  16.247  0.00  0.00    +0.000 A 
ATOM     31  C   UNL     1       6.079   5.425  16.027  0.00  0.00    +0.000 A 
ATOM     32 CL   UNL     1       7.456   4.920  15.140  0.00  0.00    +0.000 Cl
ATOM     33  N   UNL     1       6.123   6.699  16.462  0.00  0.00    +0.000 NA
ATOM     34  C   UNL     1       5.035   7.140  17.132  0.00  0.00    +0.000 A 
ENDBRANCH  27  28
ENDBRANCH   1  27
TORSDOF 8
ENDMDL
