MODEL 1
REMARK VINA RESULT:      -7.8      0.000      0.000
REMARK  Name = 
REMARK  7 active torsions:
REMARK  status: ('A' for Active; 'I' for Inactive)
REMARK    1  A    between atoms: C_1  and  O_2
REMARK    2  A    between atoms: O_2  and  C_3
REMARK    3  A    between atoms: C_6  and  C_7
REMARK    4  A    between atoms: C_11  and  C_12
REMARK    5  A    between atoms: C_15  and  O_16
REMARK    6  A    between atoms: O_16  and  C_17
REMARK    7  A    between atoms: C_20  and  O_21
REMARK                            x       y       z     vdW  Elec       q    Type
REMARK                         _______ _______ _______ _____ _____    ______ ____
ROOT
ATOM      1  C   UNL     1       2.424   6.018  19.766  0.00  0.00    +0.000 A 
ATOM      2  O   UNL     1       1.600   5.474  20.738  0.00  0.00    +0.000 OA
ATOM      3  C   UNL     1       1.984   4.201  20.842  0.00  0.00    +0.000 A 
ATOM      4  C   UNL     1       3.001   3.872  20.002  0.00  0.00    +0.000 A 
ATOM      5  C   UNL     1       3.351   5.053  19.316  0.00  0.00    +0.000 A 
ATOM      6  C   UNL     1       3.354   2.446  20.169  0.00  0.00    +0.000 C 
ATOM      7  C   UNL     1       2.138   1.901  21.013  0.00  0.00    +0.000 C 
ATOM      8  C   UNL     1       1.464   3.136  21.706  0.00  0.00    +0.000 C 
ENDROOT
BRANCH   1  12
ATOM      9  C   UNL     1       1.360  10.044  18.741  0.00  0.00    +0.000 A 
ATOM     10  C   UNL     1       2.050   9.248  17.826  0.00  0.00    +0.000 A 
ATOM     11  C   UNL     1       2.428   7.940  18.162  0.00  0.00    +0.000 A 
ATOM     12  C   UNL     1       2.146   7.419  19.433  0.00  0.00    +0.000 A 
ATOM     13  C   UNL     1       1.551   8.273  20.372  0.00  0.00    +0.000 A 
ATOM     14  C   UNL     1       1.133   9.560  20.025  0.00  0.00    +0.000 A 
BRANCH   9  16
ATOM     15  C   UNL     1       1.837  12.357  18.706  0.00  0.00    +0.000 C 
ATOM     16  O   UNL     1       0.992  11.284  18.297  0.00  0.00    +0.000 OA
ENDBRANCH   9  16
ENDBRANCH   1  12
BRANCH   5  17
ATOM     17  C   UNL     1       4.404   5.267  18.341  0.00  0.00    +0.000 A 
ATOM     18  C   UNL     1       4.280   4.876  17.023  0.00  0.00    +0.000 A 
ATOM     19  N   UNL     1       5.216   5.083  16.072  0.00  0.00    +0.000 NA
ATOM     20  C   UNL     1       6.322   5.722  16.467  0.00  0.00    +0.000 A 
ATOM     21  N   UNL     1       6.579   6.132  17.719  0.00  0.00    +0.000 NA
ATOM     22  C   UNL     1       5.615   5.870  18.632  0.00  0.00    +0.000 A 
BRANCH  20  23
ATOM     23  O   UNL     1       7.274   5.895  15.488  0.00  0.00    +0.000 OA
ATOM     24  C   UNL     1       7.105   4.976  14.421  0.00  0.00    +0.000 C 
ENDBRANCH  20  23
ENDBRANCH   5  17
BRANCH   6  25
ATOM     25  O   UNL     1       3.440   1.744  18.942  0.00  0.00    +0.000 OA
ATOM     26  H   UNL     1       3.639   2.397  18.248  0.00  0.00    +0.000 HD
ENDBRANCH   6  25
TORSDOF 5
ENDMDL
MODEL 2
REMARK VINA RESULT:      -7.7      2.618      5.426
REMARK  Name = 
REMARK  7 active torsions:
REMARK  status: ('A' for Active; 'I' for Inactive)
REMARK    1  A    between atoms: C_1  and  O_2
REMARK    2  A    between atoms: O_2  and  C_3
REMARK    3  A    between atoms: C_6  and  C_7
REMARK    4  A    between atoms: C_11  and  C_12
REMARK    5  A    between atoms: C_15  and  O_16
REMARK    6  A    between atoms: O_16  and  C_17
REMARK    7  A    between atoms: C_20  and  O_21
REMARK                            x       y       z     vdW  Elec       q    Type
REMARK                         _______ _______ _______ _____ _____    ______ ____
ROOT
ATOM      1  C   UNL     1       4.340   4.994  18.326  0.00  0.00    +0.000 A 
ATOM      2  O   UNL     1       4.482   3.651  18.020  0.00  0.00    +0.000 OA
ATOM      3  C   UNL     1       3.279   3.118  18.242  0.00  0.00    +0.000 A 
ATOM      4  C   UNL     1       2.360   4.019  18.677  0.00  0.00    +0.000 A 
ATOM      5  C   UNL     1       3.006   5.272  18.696  0.00  0.00    +0.000 A 
ATOM      6  C   UNL     1       1.065   3.347  18.914  0.00  0.00    +0.000 C 
ATOM      7  C   UNL     1       1.470   1.823  18.869  0.00  0.00    +0.000 C 
ATOM      8  C   UNL     1       2.832   1.728  18.097  0.00  0.00    +0.000 C 
ENDROOT
BRANCH   1  12
ATOM      9  C   UNL     1       7.853   7.451  18.201  0.00  0.00    +0.000 A 
ATOM     10  C   UNL     1       6.798   7.692  17.320  0.00  0.00    +0.000 A 
ATOM     11  C   UNL     1       5.658   6.877  17.332  0.00  0.00    +0.000 A 
ATOM     12  C   UNL     1       5.569   5.788  18.211  0.00  0.00    +0.000 A 
ATOM     13  C   UNL     1       6.684   5.497  19.009  0.00  0.00    +0.000 A 
ATOM     14  C   UNL     1       7.802   6.335  19.029  0.00  0.00    +0.000 A 
BRANCH   9  16
ATOM     15  C   UNL     1       8.534   9.712  18.230  0.00  0.00    +0.000 C 
ATOM     16  O   UNL     1       8.895   8.335  18.144  0.00  0.00    +0.000 OA
ENDBRANCH   9  16
ENDBRANCH   1  12
BRANCH   5  17
ATOM     17  C   UNL     1       2.467   6.575  19.035  0.00  0.00    +0.000 A 
ATOM     18  C   UNL     1       2.306   7.575  18.096  0.00  0.00    +0.000 A 
ATOM     19  N   UNL     1       1.778   8.790  18.354  0.00  0.00    +0.000 NA
ATOM     20  C   UNL     1       1.386   9.003  19.614  0.00  0.00    +0.000 A 
ATOM     21  N   UNL     1       1.508   8.130  20.626  0.00  0.00    +0.000 NA
ATOM     22  C   UNL     1       2.071   6.940  20.310  0.00  0.00    +0.000 A 
BRANCH  20  23
ATOM     23  O   UNL     1       0.878  10.259  19.860  0.00  0.00    +0.000 OA
ATOM     24  C   UNL     1      -0.380  10.450  19.235  0.00  0.00    +0.000 C 
ENDBRANCH  20  23
ENDBRANCH   5  17
BRANCH   6  25
ATOM     25  O   UNL     1       0.496   3.656  20.174  0.00  0.00    +0.000 OA
ATOM     26  H   UNL     1      -0.061   2.901  20.433  0.00  0.00    +0.000 HD
ENDBRANCH   6  25
TORSDOF 5
ENDMDL
MODEL 3
REMARK VINA RESULT:      -7.5      0.393      1.037
REMARK  Name = 
REMARK  7 active torsions:
REMARK  status: ('A' for Active; 'I' for Inactive)
REMARK    1  A    between atoms: C_1  and  O_2
REMARK    2  A    between atoms: O_2  and  C_3
REMARK    3  A    between atoms: C_6  and  C_7
REMARK    4  A    between atoms: C_11  and  C_12
REMARK    5  A    between atoms: C_15  and  O_16
REMARK    6  A    between atoms: O_16  and  C_17
REMARK    7  A    between atoms: C_20  and  O_21
REMARK                            x       y       z     vdW  Elec       q    Type
REMARK                         _______ _______ _______ _____ _____    ______ ____
ROOT
ATOM      1  C   UNL     1       2.482   5.983  19.745  0.00  0.00    +0.000 A 
ATOM      2  O   UNL     1       1.704   5.451  20.760  0.00  0.00    +0.000 OA
ATOM      3  C   UNL     1       2.162   4.210  20.930  0.00  0.00    +0.000 A 
ATOM      4  C   UNL     1       3.183   3.890  20.091  0.00  0.00    +0.000 A 
ATOM      5  C   UNL     1       3.455   5.048  19.334  0.00  0.00    +0.000 A 
ATOM      6  C   UNL     1       3.618   2.498  20.331  0.00  0.00    +0.000 C 
ATOM      7  C   UNL     1       2.448   1.935  21.226  0.00  0.00    +0.000 C 
ATOM      8  C   UNL     1       1.716   3.169  21.862  0.00  0.00    +0.000 C 
ENDROOT
BRANCH   1  12
ATOM      9  C   UNL     1       1.671  10.039  18.608  0.00  0.00    +0.000 A 
ATOM     10  C   UNL     1       1.263   9.567  19.856  0.00  0.00    +0.000 A 
ATOM     11  C   UNL     1       1.497   8.235  20.227  0.00  0.00    +0.000 A 
ATOM     12  C   UNL     1       2.120   7.346  19.338  0.00  0.00    +0.000 A 
ATOM     13  C   UNL     1       2.420   7.811  18.051  0.00  0.00    +0.000 A 
ATOM     14  C   UNL     1       2.228   9.149  17.696  0.00  0.00    +0.000 A 
BRANCH   9  16
ATOM     15  C   UNL     1       0.266  11.903  18.967  0.00  0.00    +0.000 C 
ATOM     16  O   UNL     1       1.442  11.365  18.366  0.00  0.00    +0.000 OA
ENDBRANCH   9  16
ENDBRANCH   1  12
BRANCH   5  17
ATOM     17  C   UNL     1       4.479   5.264  18.329  0.00  0.00    +0.000 A 
ATOM     18  C   UNL     1       4.323   4.864  17.017  0.00  0.00    +0.000 A 
ATOM     19  N   UNL     1       5.231   5.072  16.039  0.00  0.00    +0.000 NA
ATOM     20  C   UNL     1       6.342   5.722  16.400  0.00  0.00    +0.000 A 
ATOM     21  N   UNL     1       6.630   6.142  17.643  0.00  0.00    +0.000 NA
ATOM     22  C   UNL     1       5.693   5.878  18.583  0.00  0.00    +0.000 A 
BRANCH  20  23
ATOM     23  O   UNL     1       7.265   5.897  15.395  0.00  0.00    +0.000 OA
ATOM     24  C   UNL     1       7.109   4.936  14.364  0.00  0.00    +0.000 C 
ENDBRANCH  20  23
ENDBRANCH   5  17
BRANCH   6  25
ATOM     25  O   UNL     1       3.726   1.733  19.145  0.00  0.00    +0.000 OA
ATOM     26  H   UNL     1       2.901   1.225  19.051  0.00  0.00    +0.000 HD
ENDBRANCH   6  25
TORSDOF 5
ENDMDL
MODEL 4
REMARK VINA RESULT:      -7.4      1.347      1.532
REMARK  Name = 
REMARK  7 active torsions:
REMARK  status: ('A' for Active; 'I' for Inactive)
REMARK    1  A    between atoms: C_1  and  O_2
REMARK    2  A    between atoms: O_2  and  C_3
REMARK    3  A    between atoms: C_6  and  C_7
REMARK    4  A    between atoms: C_11  and  C_12
REMARK    5  A    between atoms: C_15  and  O_16
REMARK    6  A    between atoms: O_16  and  C_17
REMARK    7  A    between atoms: C_20  and  O_21
REMARK                            x       y       z     vdW  Elec       q    Type
REMARK                         _______ _______ _______ _____ _____    ______ ____
ROOT
ATOM      1  C   UNL     1       2.234   5.894  19.584  0.00  0.00    +0.000 A 
ATOM      2  O   UNL     1       1.264   5.041  20.082  0.00  0.00    +0.000 OA
ATOM      3  C   UNL     1       1.750   3.814  19.885  0.00  0.00    +0.000 A 
ATOM      4  C   UNL     1       2.971   3.805  19.288  0.00  0.00    +0.000 A 
ATOM      5  C   UNL     1       3.344   5.155  19.121  0.00  0.00    +0.000 A 
ATOM      6  C   UNL     1       3.428   2.414  19.092  0.00  0.00    +0.000 C 
ATOM      7  C   UNL     1       2.112   1.591  19.369  0.00  0.00    +0.000 C 
ATOM      8  C   UNL     1       1.157   2.511  20.205  0.00  0.00    +0.000 C 
ENDROOT
BRANCH   1  12
ATOM      9  C   UNL     1       0.978   9.993  19.726  0.00  0.00    +0.000 A 
ATOM     10  C   UNL     1       1.495   9.459  18.545  0.00  0.00    +0.000 A 
ATOM     11  C   UNL     1       1.936   8.130  18.495  0.00  0.00    +0.000 A 
ATOM     12  C   UNL     1       1.891   7.320  19.640  0.00  0.00    +0.000 A 
ATOM     13  C   UNL     1       1.472   7.908  20.841  0.00  0.00    +0.000 A 
ATOM     14  C   UNL     1       0.991   9.219  20.881  0.00  0.00    +0.000 A 
BRANCH   9  16
ATOM     15  C   UNL     1       1.441  12.218  19.086  0.00  0.00    +0.000 C 
ATOM     16  O   UNL     1       0.528  11.282  19.654  0.00  0.00    +0.000 OA
ENDBRANCH   9  16
ENDBRANCH   1  12
BRANCH   5  17
ATOM     17  C   UNL     1       4.572   5.705  18.578  0.00  0.00    +0.000 A 
ATOM     18  C   UNL     1       4.593   6.475  17.433  0.00  0.00    +0.000 A 
ATOM     19  N   UNL     1       5.703   7.036  16.907  0.00  0.00    +0.000 NA
ATOM     20  C   UNL     1       6.842   6.818  17.574  0.00  0.00    +0.000 A 
ATOM     21  N   UNL     1       6.964   6.070  18.682  0.00  0.00    +0.000 NA
ATOM     22  C   UNL     1       5.820   5.512  19.143  0.00  0.00    +0.000 A 
BRANCH  20  23
ATOM     23  O   UNL     1       7.964   7.375  17.005  0.00  0.00    +0.000 OA
ATOM     24  C   UNL     1       8.261   8.646  17.560  0.00  0.00    +0.000 C 
ENDBRANCH  20  23
ENDBRANCH   5  17
BRANCH   6  25
ATOM     25  O   UNL     1       3.889   2.156  17.777  0.00  0.00    +0.000 OA
ATOM     26  H   UNL     1       3.113   1.912  17.242  0.00  0.00    +0.000 HD
ENDBRANCH   6  25
TORSDOF 5
ENDMDL
MODEL 5
REMARK VINA RESULT:      -7.1      1.500      1.954
REMARK  Name = 
REMARK  7 active torsions:
REMARK  status: ('A' for Active; 'I' for Inactive)
REMARK    1  A    between atoms: C_1  and  O_2
REMARK    2  A    between atoms: O_2  and  C_3
REMARK    3  A    between atoms: C_6  and  C_7
REMARK    4  A    between atoms: C_11  and  C_12
REMARK    5  A    between atoms: C_15  and  O_16
REMARK    6  A    between atoms: O_16  and  C_17
REMARK    7  A    between atoms: C_20  and  O_21
REMARK                            x       y       z     vdW  Elec       q    Type
REMARK                         _______ _______ _______ _____ _____    ______ ____
ROOT
ATOM      1  C   UNL     1       2.380   5.764  19.281  0.00  0.00    +0.000 A 
ATOM      2  O   UNL     1       1.459   4.824  19.712  0.00  0.00    +0.000 OA
ATOM      3  C   UNL     1       2.052   3.645  19.512  0.00  0.00    +0.000 A 
ATOM      4  C   UNL     1       3.296   3.750  18.975  0.00  0.00    +0.000 A 
ATOM      5  C   UNL     1       3.566   5.128  18.856  0.00  0.00    +0.000 A 
ATOM      6  C   UNL     1       3.873   2.404  18.770  0.00  0.00    +0.000 C 
ATOM      7  C   UNL     1       2.616   1.472  18.964  0.00  0.00    +0.000 C 
ATOM      8  C   UNL     1       1.552   2.291  19.774  0.00  0.00    +0.000 C 
ENDROOT
BRANCH   1  12
ATOM      9  C   UNL     1       1.289   9.907  19.503  0.00  0.00    +0.000 A 
ATOM     10  C   UNL     1       1.181   9.093  20.631  0.00  0.00    +0.000 A 
ATOM     11  C   UNL     1       1.507   7.731  20.563  0.00  0.00    +0.000 A 
ATOM     12  C   UNL     1       1.920   7.156  19.352  0.00  0.00    +0.000 A 
ATOM     13  C   UNL     1       1.916   7.967  18.208  0.00  0.00    +0.000 A 
ATOM     14  C   UNL     1       1.635   9.333  18.284  0.00  0.00    +0.000 A 
BRANCH   9  16
ATOM     15  C   UNL     1       1.625  12.129  18.776  0.00  0.00    +0.000 C 
ATOM     16  O   UNL     1       0.998  11.230  19.689  0.00  0.00    +0.000 OA
ENDBRANCH   9  16
ENDBRANCH   1  12
BRANCH   5  17
ATOM     17  C   UNL     1       4.770   5.788  18.387  0.00  0.00    +0.000 A 
ATOM     18  C   UNL     1       4.775   6.613  17.279  0.00  0.00    +0.000 A 
ATOM     19  N   UNL     1       5.860   7.275  16.823  0.00  0.00    +0.000 NA
ATOM     20  C   UNL     1       6.987   7.105  17.522  0.00  0.00    +0.000 A 
ATOM     21  N   UNL     1       7.124   6.316  18.598  0.00  0.00    +0.000 NA
ATOM     22  C   UNL     1       6.008   5.656  18.989  0.00  0.00    +0.000 A 
BRANCH  20  23
ATOM     23  O   UNL     1       8.086   7.766  17.021  0.00  0.00    +0.000 OA
ATOM     24  C   UNL     1       8.315   8.993  17.696  0.00  0.00    +0.000 C 
ENDBRANCH  20  23
ENDBRANCH   5  17
BRANCH   6  25
ATOM     25  O   UNL     1       4.414   2.219  17.475  0.00  0.00    +0.000 OA
ATOM     26  H   UNL     1       4.440   1.260  17.306  0.00  0.00    +0.000 HD
ENDBRANCH   6  25
TORSDOF 5
ENDMDL
MODEL 6
REMARK VINA RESULT:      -7.0      3.018      6.199
REMARK  Name = 
REMARK  7 active torsions:
REMARK  status: ('A' for Active; 'I' for Inactive)
REMARK    1  A    between atoms: C_1  and  O_2
REMARK    2  A    between atoms: O_2  and  C_3
REMARK    3  A    between atoms: C_6  and  C_7
REMARK    4  A    between atoms: C_11  and  C_12
REMARK    5  A    between atoms: C_15  and  O_16
REMARK    6  A    between atoms: O_16  and  C_17
REMARK    7  A    between atoms: C_20  and  O_21
REMARK                            x       y       z     vdW  Elec       q    Type
REMARK                         _______ _______ _______ _____ _____    ______ ____
ROOT
ATOM      1  C   UNL     1       5.051   4.425  16.005  0.00  0.00    +0.000 A 
ATOM      2  O   UNL     1       4.724   3.609  14.935  0.00  0.00    +0.000 OA
ATOM      3  C   UNL     1       5.722   3.766  14.064  0.00  0.00    +0.000 A 
ATOM      4  C   UNL     1       6.678   4.635  14.488  0.00  0.00    +0.000 A 
ATOM      5  C   UNL     1       6.297   5.049  15.781  0.00  0.00    +0.000 A 
ATOM      6  C   UNL     1       7.734   4.765  13.461  0.00  0.00    +0.000 C 
ATOM      7  C   UNL     1       7.063   4.082  12.208  0.00  0.00    +0.000 C 
ATOM      8  C   UNL     1       5.914   3.158  12.744  0.00  0.00    +0.000 C 
ENDROOT
BRANCH   1  12
ATOM      9  C   UNL     1       2.336   4.582  19.322  0.00  0.00    +0.000 A 
ATOM     10  C   UNL     1       2.736   3.350  18.802  0.00  0.00    +0.000 A 
ATOM     11  C   UNL     1       3.600   3.288  17.700  0.00  0.00    +0.000 A 
ATOM     12  C   UNL     1       4.055   4.462  17.082  0.00  0.00    +0.000 A 
ATOM     13  C   UNL     1       3.553   5.684  17.551  0.00  0.00    +0.000 A 
ATOM     14  C   UNL     1       2.729   5.749  18.676  0.00  0.00    +0.000 A 
BRANCH   9  16
ATOM     15  C   UNL     1       1.172   3.223  20.863  0.00  0.00    +0.000 C 
ATOM     16  O   UNL     1       1.535   4.533  20.429  0.00  0.00    +0.000 OA
ENDBRANCH   9  16
ENDBRANCH   1  12
BRANCH   5  17
ATOM     17  C   UNL     1       6.989   5.934  16.699  0.00  0.00    +0.000 A 
ATOM     18  C   UNL     1       7.179   7.275  16.430  0.00  0.00    +0.000 A 
ATOM     19  N   UNL     1       7.785   8.145  17.266  0.00  0.00    +0.000 NA
ATOM     20  C   UNL     1       8.210   7.641  18.429  0.00  0.00    +0.000 A 
ATOM     21  N   UNL     1       8.112   6.355  18.804  0.00  0.00    +0.000 NA
ATOM     22  C   UNL     1       7.520   5.528  17.910  0.00  0.00    +0.000 A 
BRANCH  20  23
ATOM     23  O   UNL     1       8.851   8.539  19.252  0.00  0.00    +0.000 OA
ATOM     24  C   UNL     1       8.891   9.838  18.684  0.00  0.00    +0.000 C 
ENDBRANCH  20  23
ENDBRANCH   5  17
BRANCH   6  25
ATOM     25  O   UNL     1       8.057   6.110  13.159  0.00  0.00    +0.000 OA
ATOM     26  H   UNL     1       7.804   6.268  12.233  0.00  0.00    +0.000 HD
ENDBRANCH   6  25
TORSDOF 5
ENDMDL
MODEL 7
REMARK VINA RESULT:      -6.9      1.862      5.801
REMARK  Name = 
REMARK  7 active torsions:
REMARK  status: ('A' for Active; 'I' for Inactive)
REMARK    1  A    between atoms: C_1  and  O_2
REMARK    2  A    between atoms: O_2  and  C_3
REMARK    3  A    between atoms: C_6  and  C_7
REMARK    4  A    between atoms: C_11  and  C_12
REMARK    5  A    between atoms: C_15  and  O_16
REMARK    6  A    between atoms: O_16  and  C_17
REMARK    7  A    between atoms: C_20  and  O_21
REMARK                            x       y       z     vdW  Elec       q    Type
REMARK                         _______ _______ _______ _____ _____    ______ ____
ROOT
ATOM      1  C   UNL     1       3.790   4.427  17.588  0.00  0.00    +0.000 A 
ATOM      2  O   UNL     1       3.656   3.068  17.816  0.00  0.00    +0.000 OA
ATOM      3  C   UNL     1       2.674   2.965  18.713  0.00  0.00    +0.000 A 
ATOM      4  C   UNL     1       2.159   4.165  19.092  0.00  0.00    +0.000 A 
ATOM      5  C   UNL     1       2.833   5.145  18.335  0.00  0.00    +0.000 A 
ATOM      6  C   UNL     1       1.092   3.964  20.095  0.00  0.00    +0.000 C 
ATOM      7  C   UNL     1       1.299   2.453  20.499  0.00  0.00    +0.000 C 
ATOM      8  C   UNL     1       2.100   1.769  19.338  0.00  0.00    +0.000 C 
ENDROOT
BRANCH   1  12
ATOM      9  C   UNL     1       7.044   5.261  14.920  0.00  0.00    +0.000 A 
ATOM     10  C   UNL     1       7.060   5.762  16.222  0.00  0.00    +0.000 A 
ATOM     11  C   UNL     1       5.989   5.521  17.093  0.00  0.00    +0.000 A 
ATOM     12  C   UNL     1       4.868   4.795  16.662  0.00  0.00    +0.000 A 
ATOM     13  C   UNL     1       4.824   4.396  15.319  0.00  0.00    +0.000 A 
ATOM     14  C   UNL     1       5.910   4.598  14.464  0.00  0.00    +0.000 A 
BRANCH   9  16
ATOM     15  C   UNL     1       7.994   5.364  12.760  0.00  0.00    +0.000 C 
ATOM     16  O   UNL     1       8.160   5.509  14.170  0.00  0.00    +0.000 OA
ENDBRANCH   9  16
ENDBRANCH   1  12
BRANCH   5  17
ATOM     17  C   UNL     1       2.634   6.583  18.316  0.00  0.00    +0.000 A 
ATOM     18  C   UNL     1       2.951   7.357  17.217  0.00  0.00    +0.000 A 
ATOM     19  N   UNL     1       2.754   8.690  17.137  0.00  0.00    +0.000 NA
ATOM     20  C   UNL     1       2.204   9.267  18.211  0.00  0.00    +0.000 A 
ATOM     21  N   UNL     1       1.872   8.637  19.349  0.00  0.00    +0.000 NA
ATOM     22  C   UNL     1       2.121   7.306  19.377  0.00  0.00    +0.000 A 
BRANCH  20  23
ATOM     23  O   UNL     1       2.040  10.630  18.118  0.00  0.00    +0.000 OA
ATOM     24  C   UNL     1       1.098  11.113  19.062  0.00  0.00    +0.000 C 
ENDBRANCH  20  23
ENDBRANCH   5  17
BRANCH   6  25
ATOM     25  O   UNL     1       1.235   4.790  21.236  0.00  0.00    +0.000 OA
ATOM     26  H   UNL     1       1.981   4.441  21.755  0.00  0.00    +0.000 HD
ENDBRANCH   6  25
TORSDOF 5
ENDMDL
MODEL 8
REMARK VINA RESULT:      -6.9      3.206      6.355
REMARK  Name = 
REMARK  7 active torsions:
REMARK  status: ('A' for Active; 'I' for Inactive)
REMARK    1  A    between atoms: C_1  and  O_2
REMARK    2  A    between atoms: O_2  and  C_3
REMARK    3  A    between atoms: C_6  and  C_7
REMARK    4  A    between atoms: C_11  and  C_12
REMARK    5  A    between atoms: C_15  and  O_16
REMARK    6  A    between atoms: O_16  and  C_17
REMARK    7  A    between atoms: C_20  and  O_21
REMARK                            x       y       z     vdW  Elec       q    Type
REMARK                         _______ _______ _______ _____ _____    ______ ____
ROOT
ATOM      1  C   UNL     1       5.122   4.266  15.912  0.00  0.00    +0.000 A 
ATOM      2  O   UNL     1       4.851   3.444  14.830  0.00  0.00    +0.000 OA
ATOM      3  C   UNL     1       5.831   3.690  13.958  0.00  0.00    +0.000 A 
ATOM      4  C   UNL     1       6.722   4.619  14.393  0.00  0.00    +0.000 A 
ATOM      5  C   UNL     1       6.317   4.983  15.694  0.00  0.00    +0.000 A 
ATOM      6  C   UNL     1       7.761   4.844  13.366  0.00  0.00    +0.000 C 
ATOM      7  C   UNL     1       7.137   4.133  12.104  0.00  0.00    +0.000 C 
ATOM      8  C   UNL     1       6.062   3.118  12.628  0.00  0.00    +0.000 C 
ENDROOT
BRANCH   1  12
ATOM      9  C   UNL     1       2.040   4.056  18.888  0.00  0.00    +0.000 A 
ATOM     10  C   UNL     1       2.513   5.296  18.456  0.00  0.00    +0.000 A 
ATOM     11  C   UNL     1       3.540   5.376  17.506  0.00  0.00    +0.000 A 
ATOM     12  C   UNL     1       4.131   4.211  16.993  0.00  0.00    +0.000 A 
ATOM     13  C   UNL     1       3.717   2.981  17.522  0.00  0.00    +0.000 A 
ATOM     14  C   UNL     1       2.663   2.898  18.435  0.00  0.00    +0.000 A 
BRANCH   9  16
ATOM     15  C   UNL     1       1.122   3.206  20.891  0.00  0.00    +0.000 C 
ATOM     16  O   UNL     1       1.002   4.089  19.777  0.00  0.00    +0.000 OA
ENDBRANCH   9  16
ENDBRANCH   1  12
BRANCH   5  17
ATOM     17  C   UNL     1       6.946   5.902  16.625  0.00  0.00    +0.000 A 
ATOM     18  C   UNL     1       7.512   5.479  17.811  0.00  0.00    +0.000 A 
ATOM     19  N   UNL     1       8.138   6.288  18.693  0.00  0.00    +0.000 NA
ATOM     20  C   UNL     1       8.203   7.580  18.357  0.00  0.00    +0.000 A 
ATOM     21  N   UNL     1       7.675   8.126  17.250  0.00  0.00    +0.000 NA
ATOM     22  C   UNL     1       7.036   7.267  16.421  0.00  0.00    +0.000 A 
BRANCH  20  23
ATOM     23  O   UNL     1       8.819   8.390  19.284  0.00  0.00    +0.000 OA
ATOM     24  C   UNL     1       8.918   9.730  18.830  0.00  0.00    +0.000 C 
ENDBRANCH  20  23
ENDBRANCH   5  17
BRANCH   6  25
ATOM     25  O   UNL     1       7.983   6.214  13.085  0.00  0.00    +0.000 OA
ATOM     26  H   UNL     1       8.557   6.259  12.300  0.00  0.00    +0.000 HD
ENDBRANCH   6  25
TORSDOF 5
ENDMDL
MODEL 9
REMARK VINA RESULT:      -6.7      2.502      5.250
REMARK  Name = 
REMARK  7 active torsions:
REMARK  status: ('A' for Active; 'I' for Inactive)
REMARK    1  A    between atoms: C_1  and  O_2
REMARK    2  A    between atoms: O_2  and  C_3
REMARK    3  A    between atoms: C_6  and  C_7
REMARK    4  A    between atoms: C_11  and  C_12
REMARK    5  A    between atoms: C_15  and  O_16
REMARK    6  A    between atoms: O_16  and  C_17
REMARK    7  A    between atoms: C_20  and  O_21
REMARK                            x       y       z     vdW  Elec       q    Type
REMARK                         _______ _______ _______ _____ _____    ______ ____
ROOT
ATOM      1  C   UNL     1       4.755   5.451  16.845  0.00  0.00    +0.000 A 
ATOM      2  O   UNL     1       4.271   4.496  15.966  0.00  0.00    +0.000 OA
ATOM      3  C   UNL     1       5.275   4.273  15.115  0.00  0.00    +0.000 A 
ATOM      4  C   UNL     1       6.380   5.020  15.374  0.00  0.00    +0.000 A 
ATOM      5  C   UNL     1       6.094   5.768  16.534  0.00  0.00    +0.000 A 
ATOM      6  C   UNL     1       7.434   4.726  14.380  0.00  0.00    +0.000 C 
ATOM      7  C   UNL     1       6.637   3.923  13.281  0.00  0.00    +0.000 C 
ATOM      8  C   UNL     1       5.339   3.367  13.963  0.00  0.00    +0.000 C 
ENDROOT
BRANCH   1  12
ATOM      9  C   UNL     1       2.137   6.904  19.917  0.00  0.00    +0.000 A 
ATOM     10  C   UNL     1       2.600   5.589  19.956  0.00  0.00    +0.000 A 
ATOM     11  C   UNL     1       3.432   5.094  18.942  0.00  0.00    +0.000 A 
ATOM     12  C   UNL     1       3.791   5.905  17.855  0.00  0.00    +0.000 A 
ATOM     13  C   UNL     1       3.226   7.185  17.779  0.00  0.00    +0.000 A 
ATOM     14  C   UNL     1       2.434   7.694  18.811  0.00  0.00    +0.000 A 
BRANCH   9  16
ATOM     15  C   UNL     1       1.023   8.685  20.996  0.00  0.00    +0.000 C 
ATOM     16  O   UNL     1       1.375   7.303  20.980  0.00  0.00    +0.000 OA
ENDBRANCH   9  16
ENDBRANCH   1  12
BRANCH   5  17
ATOM     17  C   UNL     1       6.947   6.688  17.264  0.00  0.00    +0.000 A 
ATOM     18  C   UNL     1       7.050   8.023  16.929  0.00  0.00    +0.000 A 
ATOM     19  N   UNL     1       7.802   8.925  17.596  0.00  0.00    +0.000 NA
ATOM     20  C   UNL     1       8.473   8.458  18.655  0.00  0.00    +0.000 A 
ATOM     21  N   UNL     1       8.482   7.182  19.072  0.00  0.00    +0.000 NA
ATOM     22  C   UNL     1       7.730   6.322  18.344  0.00  0.00    +0.000 A 
BRANCH  20  23
ATOM     23  O   UNL     1       9.256   9.388  19.301  0.00  0.00    +0.000 OA
ATOM     24  C   UNL     1       9.273  10.630  18.616  0.00  0.00    +0.000 C 
ENDBRANCH  20  23
ENDBRANCH   5  17
BRANCH   6  25
ATOM     25  O   UNL     1       8.003   5.890  13.807  0.00  0.00    +0.000 OA
ATOM     26  H   UNL     1       7.456   6.131  13.039  0.00  0.00    +0.000 HD
ENDBRANCH   6  25
TORSDOF 5
ENDMDL
