MODEL 1
REMARK VINA RESULT:      -6.9      0.000      0.000
REMARK  Name = 
REMARK  3 active torsions:
REMARK  status: ('A' for Active; 'I' for Inactive)
REMARK    1  A    between atoms: C_1  and  C_2
REMARK    2  A    between atoms: C_2  and  C_3
REMARK    3  A    between atoms: C_3  and  C_4
REMARK                            x       y       z     vdW  Elec       q    Type
REMARK                         _______ _______ _______ _____ _____    ______ ____
ROOT
ATOM      1  C   UNL     1       5.461   5.408  17.201  0.00  0.00    +0.000 C 
ATOM      2  S   UNL     1       3.827   6.305  16.869  0.00  0.00    +0.000 S 
ATOM      3  C   UNL     1       3.010   6.304  18.448  0.00  0.00    +0.000 A 
ATOM      4  C   UNL     1       2.750   7.568  18.993  0.00  0.00    +0.000 A 
ATOM      5  C   UNL     1       2.013   7.701  20.162  0.00  0.00    +0.000 A 
ATOM      6  C   UNL     1       1.474   6.569  20.763  0.00  0.00    +0.000 A 
ATOM      7  C   UNL     1       1.689   5.297  20.213  0.00  0.00    +0.000 A 
ATOM      8 CL   UNL     1       1.028   3.974  21.116  0.00  0.00    +0.000 Cl
ATOM      9  C   UNL     1       2.475   5.156  19.058  0.00  0.00    +0.000 A 
ATOM     10  N   UNL     1       2.762   3.883  18.503  0.00  0.00    +0.000 N 
ATOM     11  C   UNL     1       1.862   2.858  18.284  0.00  0.00    +0.000 A 
ATOM     12  C   UNL     1       2.537   1.754  17.819  0.00  0.00    +0.000 A 
ATOM     13  C   UNL     1       3.897   2.108  17.743  0.00  0.00    +0.000 A 
ATOM     14  C   UNL     1       4.015   3.445  18.098  0.00  0.00    +0.000 A 
ATOM     15  C   UNL     1       5.247   4.220  18.187  0.00  0.00    +0.000 C 
ATOM     16  O   UNL     1       6.164   3.839  18.918  0.00  0.00    +0.000 OA
ENDROOT
BRANCH   1  17
ATOM     17  C   UNL     1       5.964   4.905  15.809  0.00  0.00    +0.000 A 
ATOM     18  C   UNL     1       5.134   4.201  14.917  0.00  0.00    +0.000 A 
ATOM     19  C   UNL     1       5.542   3.932  13.606  0.00  0.00    +0.000 A 
ATOM     20  C   UNL     1       6.805   4.318  13.172  0.00  0.00    +0.000 A 
ATOM     21  C   UNL     1       7.683   4.923  14.064  0.00  0.00    +0.000 A 
ATOM     22  C   UNL     1       7.274   5.194  15.371  0.00  0.00    +0.000 A 
ENDBRANCH   1  17
BRANCH   1  24
ATOM     23  C   UNL     1       6.392   7.881  17.337  0.00  0.00    +0.000 C 
ATOM     24  C   UNL     1       6.510   6.418  17.762  0.00  0.00    +0.000 C 
ENDBRANCH   1  24
TORSDOF 2
ENDMDL
MODEL 2
REMARK VINA RESULT:      -6.7      0.233      1.004
REMARK  Name = 
REMARK  3 active torsions:
REMARK  status: ('A' for Active; 'I' for Inactive)
REMARK    1  A    between atoms: C_1  and  C_2
REMARK    2  A    between atoms: C_2  and  C_3
REMARK    3  A    between atoms: C_3  and  C_4
REMARK                            x       y       z     vdW  Elec       q    Type
REMARK                         _______ _______ _______ _____ _____    ______ ____
ROOT
ATOM      1  C   UNL     1       5.364   5.537  17.311  0.00  0.00    +0.000 C 
ATOM      2  S   UNL     1       3.703   6.413  17.074  0.00  0.00    +0.000 S 
ATOM      3  C   UNL     1       2.920   6.284  18.666  0.00  0.00    +0.000 A 
ATOM      4  C   UNL     1       2.643   7.500  19.302  0.00  0.00    +0.000 A 
ATOM      5  C   UNL     1       1.929   7.535  20.493  0.00  0.00    +0.000 A 
ATOM      6  C   UNL     1       1.430   6.351  21.025  0.00  0.00    +0.000 A 
ATOM      7  C   UNL     1       1.662   5.126  20.384  0.00  0.00    +0.000 A 
ATOM      8 CL   UNL     1       1.053   3.728  21.207  0.00  0.00    +0.000 Cl
ATOM      9  C   UNL     1       2.426   5.084  19.206  0.00  0.00    +0.000 A 
ATOM     10  N   UNL     1       2.731   3.859  18.559  0.00  0.00    +0.000 N 
ATOM     11  C   UNL     1       1.850   2.830  18.289  0.00  0.00    +0.000 A 
ATOM     12  C   UNL     1       2.540   1.777  17.735  0.00  0.00    +0.000 A 
ATOM     13  C   UNL     1       3.890   2.170  17.656  0.00  0.00    +0.000 A 
ATOM     14  C   UNL     1       3.984   3.481  18.099  0.00  0.00    +0.000 A 
ATOM     15  C   UNL     1       5.200   4.279  18.216  0.00  0.00    +0.000 C 
ATOM     16  O   UNL     1       6.141   3.872  18.900  0.00  0.00    +0.000 OA
ENDROOT
BRANCH   1  17
ATOM     17  C   UNL     1       5.847   5.143  15.878  0.00  0.00    +0.000 A 
ATOM     18  C   UNL     1       7.188   5.270  15.472  0.00  0.00    +0.000 A 
ATOM     19  C   UNL     1       7.633   4.734  14.259  0.00  0.00    +0.000 A 
ATOM     20  C   UNL     1       6.740   4.100  13.404  0.00  0.00    +0.000 A 
ATOM     21  C   UNL     1       5.391   4.051  13.732  0.00  0.00    +0.000 A 
ATOM     22  C   UNL     1       4.947   4.584  14.944  0.00  0.00    +0.000 A 
ENDBRANCH   1  17
BRANCH   1  24
ATOM     23  C   UNL     1       6.436   7.955  17.364  0.00  0.00    +0.000 C 
ATOM     24  C   UNL     1       6.401   6.532  17.919  0.00  0.00    +0.000 C 
ENDBRANCH   1  24
TORSDOF 2
ENDMDL
MODEL 3
REMARK VINA RESULT:      -6.3      8.723     11.624
REMARK  Name = 
REMARK  3 active torsions:
REMARK  status: ('A' for Active; 'I' for Inactive)
REMARK    1  A    between atoms: C_1  and  C_2
REMARK    2  A    between atoms: C_2  and  C_3
REMARK    3  A    between atoms: C_3  and  C_4
REMARK                            x       y       z     vdW  Elec       q    Type
REMARK                         _______ _______ _______ _____ _____    ______ ____
ROOT
ATOM      1  C   UNL     1      -1.617  12.767  20.208  0.00  0.00    +0.000 C 
ATOM      2  S   UNL     1      -1.383  14.283  21.318  0.00  0.00    +0.000 S 
ATOM      3  C   UNL     1      -1.488  15.656  20.192  0.00  0.00    +0.000 A 
ATOM      4  C   UNL     1      -2.538  16.552  20.431  0.00  0.00    +0.000 A 
ATOM      5  C   UNL     1      -2.654  17.724  19.695  0.00  0.00    +0.000 A 
ATOM      6  C   UNL     1      -1.679  18.041  18.755  0.00  0.00    +0.000 A 
ATOM      7  C   UNL     1      -0.597  17.177  18.529  0.00  0.00    +0.000 A 
ATOM      8 CL   UNL     1       0.491  17.662  17.270  0.00  0.00    +0.000 Cl
ATOM      9  C   UNL     1      -0.505  15.968  19.237  0.00  0.00    +0.000 A 
ATOM     10  N   UNL     1       0.542  15.042  18.995  0.00  0.00    +0.000 N 
ATOM     11  C   UNL     1       1.887  15.333  18.878  0.00  0.00    +0.000 A 
ATOM     12  C   UNL     1       2.572  14.185  18.556  0.00  0.00    +0.000 A 
ATOM     13  C   UNL     1       1.621  13.150  18.476  0.00  0.00    +0.000 A 
ATOM     14  C   UNL     1       0.383  13.674  18.820  0.00  0.00    +0.000 A 
ATOM     15  C   UNL     1      -0.891  12.965  18.844  0.00  0.00    +0.000 C 
ATOM     16  O   UNL     1      -1.300  12.397  17.828  0.00  0.00    +0.000 OA
ENDROOT
BRANCH   1  17
ATOM     17  C   UNL     1      -1.014  11.561  21.000  0.00  0.00    +0.000 A 
ATOM     18  C   UNL     1      -1.033  11.496  22.405  0.00  0.00    +0.000 A 
ATOM     19  C   UNL     1      -0.666  10.328  23.082  0.00  0.00    +0.000 A 
ATOM     20  C   UNL     1      -0.228   9.215  22.373  0.00  0.00    +0.000 A 
ATOM     21  C   UNL     1      -0.102   9.287  20.990  0.00  0.00    +0.000 A 
ATOM     22  C   UNL     1      -0.471  10.452  20.315  0.00  0.00    +0.000 A 
ENDBRANCH   1  17
BRANCH   1  24
ATOM     23  C   UNL     1      -4.116  13.087  21.017  0.00  0.00    +0.000 C 
ATOM     24  C   UNL     1      -3.140  12.499  19.998  0.00  0.00    +0.000 C 
ENDBRANCH   1  24
TORSDOF 2
ENDMDL
MODEL 4
REMARK VINA RESULT:      -6.2      1.984      4.559
REMARK  Name = 
REMARK  3 active torsions:
REMARK  status: ('A' for Active; 'I' for Inactive)
REMARK    1  A    between atoms: C_1  and  C_2
REMARK    2  A    between atoms: C_2  and  C_3
REMARK    3  A    between atoms: C_3  and  C_4
REMARK                            x       y       z     vdW  Elec       q    Type
REMARK                         _______ _______ _______ _____ _____    ______ ____
ROOT
ATOM      1  C   UNL     1       6.425   5.761  17.191  0.00  0.00    +0.000 C 
ATOM      2  S   UNL     1       6.006   4.770  18.748  0.00  0.00    +0.000 S 
ATOM      3  C   UNL     1       4.549   3.857  18.294  0.00  0.00    +0.000 A 
ATOM      4  C   UNL     1       4.677   2.463  18.324  0.00  0.00    +0.000 A 
ATOM      5  C   UNL     1       3.579   1.642  18.106  0.00  0.00    +0.000 A 
ATOM      6  C   UNL     1       2.325   2.213  17.917  0.00  0.00    +0.000 A 
ATOM      7  C   UNL     1       2.167   3.607  17.922  0.00  0.00    +0.000 A 
ATOM      8 CL   UNL     1       0.564   4.175  17.591  0.00  0.00    +0.000 Cl
ATOM      9  C   UNL     1       3.285   4.439  18.094  0.00  0.00    +0.000 A 
ATOM     10  N   UNL     1       3.176   5.852  18.048  0.00  0.00    +0.000 N 
ATOM     11  C   UNL     1       2.224   6.625  18.686  0.00  0.00    +0.000 A 
ATOM     12  C   UNL     1       2.394   7.941  18.325  0.00  0.00    +0.000 A 
ATOM     13  C   UNL     1       3.489   7.984  17.441  0.00  0.00    +0.000 A 
ATOM     14  C   UNL     1       4.008   6.702  17.333  0.00  0.00    +0.000 A 
ATOM     15  C   UNL     1       5.128   6.279  16.500  0.00  0.00    +0.000 C 
ATOM     16  O   UNL     1       5.102   6.480  15.284  0.00  0.00    +0.000 OA
ENDROOT
BRANCH   1  17
ATOM     17  C   UNL     1       7.324   6.948  17.669  0.00  0.00    +0.000 A 
ATOM     18  C   UNL     1       7.295   8.212  17.052  0.00  0.00    +0.000 A 
ATOM     19  C   UNL     1       7.958   9.308  17.613  0.00  0.00    +0.000 A 
ATOM     20  C   UNL     1       8.703   9.156  18.777  0.00  0.00    +0.000 A 
ATOM     21  C   UNL     1       8.833   7.897  19.350  0.00  0.00    +0.000 A 
ATOM     22  C   UNL     1       8.168   6.803  18.791  0.00  0.00    +0.000 A 
ENDBRANCH   1  17
BRANCH   1  24
ATOM     23  C   UNL     1       6.513   3.892  15.320  0.00  0.00    +0.000 C 
ATOM     24  C   UNL     1       7.264   4.878  16.215  0.00  0.00    +0.000 C 
ENDBRANCH   1  24
TORSDOF 2
ENDMDL
MODEL 5
REMARK VINA RESULT:      -6.2      8.561     10.281
REMARK  Name = 
REMARK  3 active torsions:
REMARK  status: ('A' for Active; 'I' for Inactive)
REMARK    1  A    between atoms: C_1  and  C_2
REMARK    2  A    between atoms: C_2  and  C_3
REMARK    3  A    between atoms: C_3  and  C_4
REMARK                            x       y       z     vdW  Elec       q    Type
REMARK                         _______ _______ _______ _____ _____    ______ ____
ROOT
ATOM      1  C   UNL     1      -0.986  12.311  20.074  0.00  0.00    +0.000 C 
ATOM      2  S   UNL     1      -2.258  13.713  20.046  0.00  0.00    +0.000 S 
ATOM      3  C   UNL     1      -3.807  12.890  20.336  0.00  0.00    +0.000 A 
ATOM      4  C   UNL     1      -4.487  13.279  21.497  0.00  0.00    +0.000 A 
ATOM      5  C   UNL     1      -5.760  12.796  21.772  0.00  0.00    +0.000 A 
ATOM      6  C   UNL     1      -6.391  11.967  20.850  0.00  0.00    +0.000 A 
ATOM      7  C   UNL     1      -5.743  11.598  19.662  0.00  0.00    +0.000 A 
ATOM      8 CL   UNL     1      -6.617  10.495  18.651  0.00  0.00    +0.000 Cl
ATOM      9  C   UNL     1      -4.437  12.045  19.406  0.00  0.00    +0.000 A 
ATOM     10  N   UNL     1      -3.728  11.648  18.244  0.00  0.00    +0.000 N 
ATOM     11  C   UNL     1      -4.213  11.629  16.951  0.00  0.00    +0.000 A 
ATOM     12  C   UNL     1      -3.257  11.096  16.117  0.00  0.00    +0.000 A 
ATOM     13  C   UNL     1      -2.144  10.781  16.919  0.00  0.00    +0.000 A 
ATOM     14  C   UNL     1      -2.418  11.192  18.217  0.00  0.00    +0.000 A 
ATOM     15  C   UNL     1      -1.556  11.036  19.383  0.00  0.00    +0.000 C 
ATOM     16  O   UNL     1      -1.161   9.915  19.712  0.00  0.00    +0.000 OA
ENDROOT
BRANCH   1  17
ATOM     17  C   UNL     1       0.266  12.854  19.312  0.00  0.00    +0.000 A 
ATOM     18  C   UNL     1       0.530  14.230  19.179  0.00  0.00    +0.000 A 
ATOM     19  C   UNL     1       1.748  14.688  18.666  0.00  0.00    +0.000 A 
ATOM     20  C   UNL     1       2.711  13.784  18.232  0.00  0.00    +0.000 A 
ATOM     21  C   UNL     1       2.435  12.422  18.257  0.00  0.00    +0.000 A 
ATOM     22  C   UNL     1       1.220  11.965  18.771  0.00  0.00    +0.000 A 
ENDBRANCH   1  17
BRANCH   1  24
ATOM     23  C   UNL     1      -0.861  13.073  22.604  0.00  0.00    +0.000 C 
ATOM     24  C   UNL     1      -0.568  12.009  21.547  0.00  0.00    +0.000 C 
ENDBRANCH   1  24
TORSDOF 2
ENDMDL
MODEL 6
REMARK VINA RESULT:      -6.2      8.412     10.148
REMARK  Name = 
REMARK  3 active torsions:
REMARK  status: ('A' for Active; 'I' for Inactive)
REMARK    1  A    between atoms: C_1  and  C_2
REMARK    2  A    between atoms: C_2  and  C_3
REMARK    3  A    between atoms: C_3  and  C_4
REMARK                            x       y       z     vdW  Elec       q    Type
REMARK                         _______ _______ _______ _____ _____    ______ ____
ROOT
ATOM      1  C   UNL     1      -0.913  12.125  20.224  0.00  0.00    +0.000 C 
ATOM      2  S   UNL     1      -2.143  13.561  20.139  0.00  0.00    +0.000 S 
ATOM      3  C   UNL     1      -3.729  12.776  20.320  0.00  0.00    +0.000 A 
ATOM      4  C   UNL     1      -4.469  13.166  21.443  0.00  0.00    +0.000 A 
ATOM      5  C   UNL     1      -5.769  12.714  21.631  0.00  0.00    +0.000 A 
ATOM      6  C   UNL     1      -6.362  11.915  20.660  0.00  0.00    +0.000 A 
ATOM      7  C   UNL     1      -5.652  11.545  19.508  0.00  0.00    +0.000 A 
ATOM      8 CL   UNL     1      -6.489  10.479  18.428  0.00  0.00    +0.000 Cl
ATOM      9  C   UNL     1      -4.321  11.961  19.341  0.00  0.00    +0.000 A 
ATOM     10  N   UNL     1      -3.551  11.560  18.218  0.00  0.00    +0.000 N 
ATOM     11  C   UNL     1      -3.955  11.571  16.897  0.00  0.00    +0.000 A 
ATOM     12  C   UNL     1      -2.964  11.025  16.117  0.00  0.00    +0.000 A 
ATOM     13  C   UNL     1      -1.911  10.670  16.982  0.00  0.00    +0.000 A 
ATOM     14  C   UNL     1      -2.254  11.070  18.265  0.00  0.00    +0.000 A 
ATOM     15  C   UNL     1      -1.471  10.875  19.480  0.00  0.00    +0.000 C 
ATOM     16  O   UNL     1      -1.126   9.739  19.816  0.00  0.00    +0.000 OA
ENDROOT
BRANCH   1  17
ATOM     17  C   UNL     1       0.398  12.645  19.550  0.00  0.00    +0.000 A 
ATOM     18  C   UNL     1       1.343  11.779  18.968  0.00  0.00    +0.000 A 
ATOM     19  C   UNL     1       2.405  12.273  18.204  0.00  0.00    +0.000 A 
ATOM     20  C   UNL     1       2.576  13.643  18.043  0.00  0.00    +0.000 A 
ATOM     21  C   UNL     1       1.718  14.523  18.692  0.00  0.00    +0.000 A 
ATOM     22  C   UNL     1       0.655  14.030  19.452  0.00  0.00    +0.000 A 
ENDBRANCH   1  17
BRANCH   1  24
ATOM     23  C   UNL     1      -0.946  12.840  22.771  0.00  0.00    +0.000 C 
ATOM     24  C   UNL     1      -0.595  11.793  21.715  0.00  0.00    +0.000 C 
ENDBRANCH   1  24
TORSDOF 2
ENDMDL
MODEL 7
REMARK VINA RESULT:      -6.0      7.835     10.770
REMARK  Name = 
REMARK  3 active torsions:
REMARK  status: ('A' for Active; 'I' for Inactive)
REMARK    1  A    between atoms: C_1  and  C_2
REMARK    2  A    between atoms: C_2  and  C_3
REMARK    3  A    between atoms: C_3  and  C_4
REMARK                            x       y       z     vdW  Elec       q    Type
REMARK                         _______ _______ _______ _____ _____    ______ ____
ROOT
ATOM      1  C   UNL     1       0.531  15.352  20.280  0.00  0.00    +0.000 C 
ATOM      2  S   UNL     1      -1.085  14.378  20.138  0.00  0.00    +0.000 S 
ATOM      3  C   UNL     1      -0.831  12.972  21.197  0.00  0.00    +0.000 A 
ATOM      4  C   UNL     1      -1.712  12.865  22.280  0.00  0.00    +0.000 A 
ATOM      5  C   UNL     1      -1.691  11.751  23.108  0.00  0.00    +0.000 A 
ATOM      6  C   UNL     1      -0.826  10.701  22.819  0.00  0.00    +0.000 A 
ATOM      7  C   UNL     1       0.037  10.770  21.716  0.00  0.00    +0.000 A 
ATOM      8 CL   UNL     1       1.115   9.425  21.530  0.00  0.00    +0.000 Cl
ATOM      9  C   UNL     1       0.051  11.917  20.907  0.00  0.00    +0.000 A 
ATOM     10  N   UNL     1       0.950  12.049  19.817  0.00  0.00    +0.000 N 
ATOM     11  C   UNL     1       1.221  11.095  18.854  0.00  0.00    +0.000 A 
ATOM     12  C   UNL     1       2.211  11.562  18.022  0.00  0.00    +0.000 A 
ATOM     13  C   UNL     1       2.559  12.846  18.481  0.00  0.00    +0.000 A 
ATOM     14  C   UNL     1       1.726  13.166  19.543  0.00  0.00    +0.000 A 
ATOM     15  C   UNL     1       1.754  14.387  20.339  0.00  0.00    +0.000 C 
ATOM     16  O   UNL     1       2.789  14.722  20.919  0.00  0.00    +0.000 OA
ENDROOT
BRANCH   1  17
ATOM     17  C   UNL     1       0.593  16.265  19.012  0.00  0.00    +0.000 A 
ATOM     18  C   UNL     1      -0.559  16.818  18.423  0.00  0.00    +0.000 A 
ATOM     19  C   UNL     1      -0.466  17.782  17.414  0.00  0.00    +0.000 A 
ATOM     20  C   UNL     1       0.777  18.180  16.937  0.00  0.00    +0.000 A 
ATOM     21  C   UNL     1       1.928  17.574  17.428  0.00  0.00    +0.000 A 
ATOM     22  C   UNL     1       1.835  16.614  18.438  0.00  0.00    +0.000 A 
ENDBRANCH   1  17
BRANCH   1  24
ATOM     23  C   UNL     1      -0.884  16.569  22.155  0.00  0.00    +0.000 C 
ATOM     24  C   UNL     1       0.483  16.272  21.539  0.00  0.00    +0.000 C 
ENDBRANCH   1  24
TORSDOF 2
ENDMDL
MODEL 8
REMARK VINA RESULT:      -6.0      8.990     11.303
REMARK  Name = 
REMARK  3 active torsions:
REMARK  status: ('A' for Active; 'I' for Inactive)
REMARK    1  A    between atoms: C_1  and  C_2
REMARK    2  A    between atoms: C_2  and  C_3
REMARK    3  A    between atoms: C_3  and  C_4
REMARK                            x       y       z     vdW  Elec       q    Type
REMARK                         _______ _______ _______ _____ _____    ______ ____
ROOT
ATOM      1  C   UNL     1      -0.506  12.622  20.839  0.00  0.00    +0.000 C 
ATOM      2  S   UNL     1      -1.042  14.424  20.615  0.00  0.00    +0.000 S 
ATOM      3  C   UNL     1      -0.546  15.209  22.132  0.00  0.00    +0.000 A 
ATOM      4  C   UNL     1       0.396  16.237  21.998  0.00  0.00    +0.000 A 
ATOM      5  C   UNL     1       0.773  17.004  23.093  0.00  0.00    +0.000 A 
ATOM      6  C   UNL     1       0.158  16.789  24.322  0.00  0.00    +0.000 A 
ATOM      7  C   UNL     1      -0.817  15.791  24.469  0.00  0.00    +0.000 A 
ATOM      8 CL   UNL     1      -1.432  15.582  26.075  0.00  0.00    +0.000 Cl
ATOM      9  C   UNL     1      -1.163  14.983  23.374  0.00  0.00    +0.000 A 
ATOM     10  N   UNL     1      -2.102  13.926  23.496  0.00  0.00    +0.000 N 
ATOM     11  C   UNL     1      -3.331  13.986  24.124  0.00  0.00    +0.000 A 
ATOM     12  C   UNL     1      -3.907  12.738  24.111  0.00  0.00    +0.000 A 
ATOM     13  C   UNL     1      -3.008  11.880  23.450  0.00  0.00    +0.000 A 
ATOM     14  C   UNL     1      -1.932  12.637  23.011  0.00  0.00    +0.000 A 
ATOM     15  C   UNL     1      -0.752  12.152  22.305  0.00  0.00    +0.000 C 
ATOM     16  O   UNL     1      -0.055  11.266  22.804  0.00  0.00    +0.000 OA
ENDROOT
BRANCH   1  17
ATOM     17  C   UNL     1      -1.362  11.793  19.828  0.00  0.00    +0.000 A 
ATOM     18  C   UNL     1      -2.672  12.161  19.468  0.00  0.00    +0.000 A 
ATOM     19  C   UNL     1      -3.344  11.519  18.423  0.00  0.00    +0.000 A 
ATOM     20  C   UNL     1      -2.743  10.466  17.745  0.00  0.00    +0.000 A 
ATOM     21  C   UNL     1      -1.491  10.014  18.148  0.00  0.00    +0.000 A 
ATOM     22  C   UNL     1      -0.819  10.657  19.190  0.00  0.00    +0.000 A 
ENDBRANCH   1  17
BRANCH   1  24
ATOM     23  C   UNL     1       1.599  13.508  19.503  0.00  0.00    +0.000 C 
ATOM     24  C   UNL     1       0.996  12.468  20.447  0.00  0.00    +0.000 C 
ENDBRANCH   1  24
TORSDOF 2
ENDMDL
MODEL 9
REMARK VINA RESULT:      -5.9      7.510     10.435
REMARK  Name = 
REMARK  3 active torsions:
REMARK  status: ('A' for Active; 'I' for Inactive)
REMARK    1  A    between atoms: C_1  and  C_2
REMARK    2  A    between atoms: C_2  and  C_3
REMARK    3  A    between atoms: C_3  and  C_4
REMARK                            x       y       z     vdW  Elec       q    Type
REMARK                         _______ _______ _______ _____ _____    ______ ____
ROOT
ATOM      1  C   UNL     1       0.728  14.637  21.040  0.00  0.00    +0.000 C 
ATOM      2  S   UNL     1      -0.895  13.678  20.876  0.00  0.00    +0.000 S 
ATOM      3  C   UNL     1      -0.524  12.086  21.577  0.00  0.00    +0.000 A 
ATOM      4  C   UNL     1      -1.277  11.733  22.704  0.00  0.00    +0.000 A 
ATOM      5  C   UNL     1      -1.163  10.470  23.270  0.00  0.00    +0.000 A 
ATOM      6  C   UNL     1      -0.338   9.525  22.671  0.00  0.00    +0.000 A 
ATOM      7  C   UNL     1       0.395   9.844  21.518  0.00  0.00    +0.000 A 
ATOM      8 CL   UNL     1       1.443   8.594  20.933  0.00  0.00    +0.000 Cl
ATOM      9  C   UNL     1       0.318  11.136  20.974  0.00  0.00    +0.000 A 
ATOM     10  N   UNL     1       1.087  11.515  19.844  0.00  0.00    +0.000 N 
ATOM     11  C   UNL     1       1.247  10.793  18.677  0.00  0.00    +0.000 A 
ATOM     12  C   UNL     1       2.136  11.447  17.858  0.00  0.00    +0.000 A 
ATOM     13  C   UNL     1       2.536  12.613  18.537  0.00  0.00    +0.000 A 
ATOM     14  C   UNL     1       1.828  12.683  19.729  0.00  0.00    +0.000 A 
ATOM     15  C   UNL     1       1.948  13.709  20.758  0.00  0.00    +0.000 C 
ATOM     16  O   UNL     1       3.043  13.938  21.276  0.00  0.00    +0.000 OA
ENDROOT
BRANCH   1  17
ATOM     17  C   UNL     1       0.646  15.797  19.995  0.00  0.00    +0.000 A 
ATOM     18  C   UNL     1       1.657  16.767  19.864  0.00  0.00    +0.000 A 
ATOM     19  C   UNL     1       1.657  17.675  18.800  0.00  0.00    +0.000 A 
ATOM     20  C   UNL     1       0.624  17.666  17.871  0.00  0.00    +0.000 A 
ATOM     21  C   UNL     1      -0.440  16.787  18.035  0.00  0.00    +0.000 A 
ATOM     22  C   UNL     1      -0.439  15.878  19.096  0.00  0.00    +0.000 A 
ENDBRANCH   1  17
BRANCH   1  24
ATOM     23  C   UNL     1      -0.480  15.562  23.205  0.00  0.00    +0.000 C 
ATOM     24  C   UNL     1       0.824  15.269  22.464  0.00  0.00    +0.000 C 
ENDBRANCH   1  24
TORSDOF 2
ENDMDL
