MODEL 1
REMARK VINA RESULT:      -8.3      0.000      0.000
REMARK  Name = 
REMARK  4 active torsions:
REMARK  status: ('A' for Active; 'I' for Inactive)
REMARK    1  A    between atoms: C_2  and  C_4
REMARK    2  A    between atoms: C_9  and  C_10
REMARK    3  A    between atoms: C_13  and  O_14
REMARK    4  A    between atoms: O_14  and  C_15
REMARK                            x       y       z     vdW  Elec       q    Type
REMARK                         _______ _______ _______ _____ _____    ______ ____
ROOT
ATOM      1  C   UNL     1      10.409  13.363  18.444  0.00  0.00    +0.000 A 
ATOM      2  C   UNL     1      10.843  12.967  19.719  0.00  0.00    +0.000 A 
ATOM      3  C   UNL     1      10.521  11.705  20.239  0.00  0.00    +0.000 A 
ATOM      4  C   UNL     1       9.774  10.860  19.410  0.00  0.00    +0.000 A 
ATOM      5  N   UNL     1       9.304   9.578  19.555  0.00  0.00    +0.000 N 
ATOM      6  C   UNL     1       8.624   9.220  18.419  0.00  0.00    +0.000 A 
ATOM      7  N   UNL     1       8.651  10.215  17.546  0.00  0.00    +0.000 NA
ATOM      8  C   UNL     1       9.347  11.230  18.139  0.00  0.00    +0.000 A 
ATOM      9  C   UNL     1       9.657  12.497  17.640  0.00  0.00    +0.000 A 
ATOM     10  H   UNL     1       9.439   8.992  20.367  0.00  0.00    +0.000 HD
ENDROOT
BRANCH   6  11
ATOM     11  C   UNL     1       7.945   7.936  18.193  0.00  0.00    +0.000 A 
ATOM     12  C   UNL     1       8.201   6.774  18.933  0.00  0.00    +0.000 A 
ATOM     13  C   UNL     1       7.441   5.607  18.723  0.00  0.00    +0.000 A 
ATOM     14  C   UNL     1       6.406   5.576  17.782  0.00  0.00    +0.000 A 
ATOM     15  C   UNL     1       6.198   6.710  16.998  0.00  0.00    +0.000 A 
ATOM     16  C   UNL     1       6.953   7.870  17.204  0.00  0.00    +0.000 A 
BRANCH  14  17
ATOM     17  O   UNL     1       5.674   4.411  17.722  0.00  0.00    +0.000 OA
BRANCH  17  18
ATOM     18  C   UNL     1       4.773   4.132  18.812  0.00  0.00    +0.000 C 
ATOM     19  C   UNL     1       3.950   2.868  18.559  0.00  0.00    +0.000 C 
ATOM     20  C   UNL     1       2.826   3.076  17.545  0.00  0.00    +0.000 C 
ATOM     21  N   UNL     1       1.953   4.205  17.841  0.00  0.00    +0.000 NA
ATOM     22  C   UNL     1       2.681   5.446  18.096  0.00  0.00    +0.000 C 
ATOM     23  C   UNL     1       3.835   5.313  19.084  0.00  0.00    +0.000 C 
ATOM     24  H   UNL     1       1.341   3.985  18.625  0.00  0.00    +0.000 HD
ENDBRANCH  17  18
ENDBRANCH  14  17
ENDBRANCH   6  11
BRANCH   1  26
ATOM     25  N   UNL     1      11.057  14.806  16.603  0.00  0.00    +0.000 N 
ATOM     26  C   UNL     1      10.796  14.700  17.942  0.00  0.00    +0.000 C 
ATOM     27  O   UNL     1      10.857  15.674  18.679  0.00  0.00    +0.000 OA
ATOM     28  H   UNL     1      11.254  15.731  16.244  0.00  0.00    +0.000 HD
ATOM     29  H   UNL     1      10.801  14.084  15.940  0.00  0.00    +0.000 HD
ENDBRANCH   1  26
TORSDOF 4
ENDMDL
MODEL 2
REMARK VINA RESULT:      -8.2      0.723      1.240
REMARK  Name = 
REMARK  4 active torsions:
REMARK  status: ('A' for Active; 'I' for Inactive)
REMARK    1  A    between atoms: C_2  and  C_4
REMARK    2  A    between atoms: C_9  and  C_10
REMARK    3  A    between atoms: C_13  and  O_14
REMARK    4  A    between atoms: O_14  and  C_15
REMARK                            x       y       z     vdW  Elec       q    Type
REMARK                         _______ _______ _______ _____ _____    ______ ____
ROOT
ATOM      1  C   UNL     1      10.539  13.316  18.419  0.00  0.00    +0.000 A 
ATOM      2  C   UNL     1      10.906  12.944  19.722  0.00  0.00    +0.000 A 
ATOM      3  C   UNL     1      10.527  11.706  20.261  0.00  0.00    +0.000 A 
ATOM      4  C   UNL     1       9.793  10.859  19.424  0.00  0.00    +0.000 A 
ATOM      5  N   UNL     1       9.282   9.595  19.582  0.00  0.00    +0.000 N 
ATOM      6  C   UNL     1       8.642   9.224  18.427  0.00  0.00    +0.000 A 
ATOM      7  N   UNL     1       8.734  10.193  17.530  0.00  0.00    +0.000 NA
ATOM      8  C   UNL     1       9.432  11.205  18.126  0.00  0.00    +0.000 A 
ATOM      9  C   UNL     1       9.798  12.449  17.607  0.00  0.00    +0.000 A 
ATOM     10  H   UNL     1       9.366   9.028  20.414  0.00  0.00    +0.000 HD
ENDROOT
BRANCH   6  11
ATOM     11  C   UNL     1       7.937   7.952  18.206  0.00  0.00    +0.000 A 
ATOM     12  C   UNL     1       8.220   6.770  18.902  0.00  0.00    +0.000 A 
ATOM     13  C   UNL     1       7.436   5.616  18.705  0.00  0.00    +0.000 A 
ATOM     14  C   UNL     1       6.352   5.618  17.820  0.00  0.00    +0.000 A 
ATOM     15  C   UNL     1       6.116   6.775  17.076  0.00  0.00    +0.000 A 
ATOM     16  C   UNL     1       6.893   7.921  17.271  0.00  0.00    +0.000 A 
BRANCH  14  17
ATOM     17  O   UNL     1       5.605   4.463  17.770  0.00  0.00    +0.000 OA
BRANCH  17  18
ATOM     18  C   UNL     1       4.173   4.597  17.693  0.00  0.00    +0.000 C 
ATOM     19  C   UNL     1       3.552   4.860  19.066  0.00  0.00    +0.000 C 
ATOM     20  C   UNL     1       3.493   3.612  19.946  0.00  0.00    +0.000 C 
ATOM     21  N   UNL     1       2.864   2.460  19.312  0.00  0.00    +0.000 NA
ATOM     22  C   UNL     1       3.411   2.158  17.992  0.00  0.00    +0.000 C 
ATOM     23  C   UNL     1       3.523   3.361  17.061  0.00  0.00    +0.000 C 
ATOM     24  H   UNL     1       1.855   2.591  19.256  0.00  0.00    +0.000 HD
ENDBRANCH  17  18
ENDBRANCH  14  17
ENDBRANCH   6  11
BRANCH   1  26
ATOM     25  N   UNL     1      11.068  14.758  16.539  0.00  0.00    +0.000 N 
ATOM     26  C   UNL     1      10.984  14.628  17.899  0.00  0.00    +0.000 C 
ATOM     27  O   UNL     1      11.243  15.564  18.642  0.00  0.00    +0.000 OA
ATOM     28  H   UNL     1      11.304  15.673  16.178  0.00  0.00    +0.000 HD
ATOM     29  H   UNL     1      10.652  14.089  15.903  0.00  0.00    +0.000 HD
ENDBRANCH   1  26
TORSDOF 4
ENDMDL
MODEL 3
REMARK VINA RESULT:      -8.1      6.171      9.302
REMARK  Name = 
REMARK  4 active torsions:
REMARK  status: ('A' for Active; 'I' for Inactive)
REMARK    1  A    between atoms: C_2  and  C_4
REMARK    2  A    between atoms: C_9  and  C_10
REMARK    3  A    between atoms: C_13  and  O_14
REMARK    4  A    between atoms: O_14  and  C_15
REMARK                            x       y       z     vdW  Elec       q    Type
REMARK                         _______ _______ _______ _____ _____    ______ ____
ROOT
ATOM      1  C   UNL     1       5.618   4.939  15.798  0.00  0.00    +0.000 A 
ATOM      2  C   UNL     1       5.074   3.872  16.531  0.00  0.00    +0.000 A 
ATOM      3  C   UNL     1       4.084   4.085  17.501  0.00  0.00    +0.000 A 
ATOM      4  C   UNL     1       3.654   5.405  17.676  0.00  0.00    +0.000 A 
ATOM      5  N   UNL     1       2.712   5.986  18.488  0.00  0.00    +0.000 N 
ATOM      6  C   UNL     1       2.688   7.337  18.251  0.00  0.00    +0.000 A 
ATOM      7  N   UNL     1       3.568   7.643  17.310  0.00  0.00    +0.000 NA
ATOM      8  C   UNL     1       4.173   6.472  16.950  0.00  0.00    +0.000 A 
ATOM      9  C   UNL     1       5.172   6.251  16.000  0.00  0.00    +0.000 A 
ATOM     10  H   UNL     1       2.127   5.497  19.152  0.00  0.00    +0.000 HD
ENDROOT
BRANCH   6  11
ATOM     11  C   UNL     1       1.835   8.316  18.941  0.00  0.00    +0.000 A 
ATOM     12  C   UNL     1       1.229   9.408  18.308  0.00  0.00    +0.000 A 
ATOM     13  C   UNL     1       0.346  10.248  19.015  0.00  0.00    +0.000 A 
ATOM     14  C   UNL     1       0.042  10.011  20.361  0.00  0.00    +0.000 A 
ATOM     15  C   UNL     1       0.700   8.965  21.008  0.00  0.00    +0.000 A 
ATOM     16  C   UNL     1       1.578   8.130  20.307  0.00  0.00    +0.000 A 
BRANCH  14  17
ATOM     17  O   UNL     1      -0.898  10.843  20.927  0.00  0.00    +0.000 OA
BRANCH  17  18
ATOM     18  C   UNL     1      -0.547  11.502  22.160  0.00  0.00    +0.000 C 
ATOM     19  C   UNL     1      -1.664  11.394  23.199  0.00  0.00    +0.000 C 
ATOM     20  C   UNL     1      -2.842  12.325  22.913  0.00  0.00    +0.000 C 
ATOM     21  N   UNL     1      -2.469  13.718  22.706  0.00  0.00    +0.000 NA
ATOM     22  C   UNL     1      -1.401  13.890  21.725  0.00  0.00    +0.000 C 
ATOM     23  C   UNL     1      -0.197  12.977  21.930  0.00  0.00    +0.000 C 
ATOM     24  H   UNL     1      -2.211  14.153  23.591  0.00  0.00    +0.000 HD
ENDBRANCH  17  18
ENDBRANCH  14  17
ENDBRANCH   6  11
BRANCH   1  26
ATOM     25  N   UNL     1       6.360   3.661  13.871  0.00  0.00    +0.000 N 
ATOM     26  C   UNL     1       6.646   4.650  14.774  0.00  0.00    +0.000 C 
ATOM     27  O   UNL     1       7.694   5.277  14.715  0.00  0.00    +0.000 OA
ATOM     28  H   UNL     1       7.029   3.509  13.129  0.00  0.00    +0.000 HD
ATOM     29  H   UNL     1       5.427   3.286  13.755  0.00  0.00    +0.000 HD
ENDBRANCH   1  26
TORSDOF 4
ENDMDL
MODEL 4
REMARK VINA RESULT:      -8.0      7.240     10.982
REMARK  Name = 
REMARK  4 active torsions:
REMARK  status: ('A' for Active; 'I' for Inactive)
REMARK    1  A    between atoms: C_2  and  C_4
REMARK    2  A    between atoms: C_9  and  C_10
REMARK    3  A    between atoms: C_13  and  O_14
REMARK    4  A    between atoms: O_14  and  C_15
REMARK                            x       y       z     vdW  Elec       q    Type
REMARK                         _______ _______ _______ _____ _____    ______ ____
ROOT
ATOM      1  C   UNL     1       3.402   4.303  18.784  0.00  0.00    +0.000 A 
ATOM      2  C   UNL     1       3.765   5.191  17.760  0.00  0.00    +0.000 A 
ATOM      3  C   UNL     1       3.357   6.533  17.781  0.00  0.00    +0.000 A 
ATOM      4  C   UNL     1       2.598   6.938  18.884  0.00  0.00    +0.000 A 
ATOM      5  N   UNL     1       2.055   8.142  19.260  0.00  0.00    +0.000 N 
ATOM      6  C   UNL     1       1.402   7.984  20.455  0.00  0.00    +0.000 A 
ATOM      7  N   UNL     1       1.515   6.732  20.868  0.00  0.00    +0.000 NA
ATOM      8  C   UNL     1       2.240   6.075  19.915  0.00  0.00    +0.000 A 
ATOM      9  C   UNL     1       2.636   4.736  19.873  0.00  0.00    +0.000 A 
ATOM     10  H   UNL     1       2.128   9.006  18.740  0.00  0.00    +0.000 HD
ENDROOT
BRANCH   6  11
ATOM     11  C   UNL     1       0.664   9.033  21.175  0.00  0.00    +0.000 A 
ATOM     12  C   UNL     1       0.216   8.907  22.496  0.00  0.00    +0.000 A 
ATOM     13  C   UNL     1      -0.399   9.991  23.152  0.00  0.00    +0.000 A 
ATOM     14  C   UNL     1      -0.570  11.224  22.511  0.00  0.00    +0.000 A 
ATOM     15  C   UNL     1      -0.187  11.326  21.174  0.00  0.00    +0.000 A 
ATOM     16  C   UNL     1       0.424  10.250  20.521  0.00  0.00    +0.000 A 
BRANCH  14  17
ATOM     17  O   UNL     1      -1.104  12.237  23.275  0.00  0.00    +0.000 OA
BRANCH  17  18
ATOM     18  C   UNL     1      -2.168  13.018  22.696  0.00  0.00    +0.000 C 
ATOM     19  C   UNL     1      -2.132  14.470  23.175  0.00  0.00    +0.000 C 
ATOM     20  C   UNL     1      -2.642  14.643  24.605  0.00  0.00    +0.000 C 
ATOM     21  N   UNL     1      -3.953  14.055  24.849  0.00  0.00    +0.000 NA
ATOM     22  C   UNL     1      -4.054  12.666  24.410  0.00  0.00    +0.000 C 
ATOM     23  C   UNL     1      -3.543  12.409  22.996  0.00  0.00    +0.000 C 
ATOM     24  H   UNL     1      -4.683  14.619  24.415  0.00  0.00    +0.000 HD
ENDBRANCH  17  18
ENDBRANCH  14  17
ENDBRANCH   6  11
BRANCH   1  26
ATOM     25  N   UNL     1       4.937   2.571  19.518  0.00  0.00    +0.000 N 
ATOM     26  C   UNL     1       3.878   2.903  18.717  0.00  0.00    +0.000 C 
ATOM     27  O   UNL     1       3.341   2.072  18.000  0.00  0.00    +0.000 OA
ATOM     28  H   UNL     1       5.220   1.600  19.527  0.00  0.00    +0.000 HD
ATOM     29  H   UNL     1       5.253   3.165  20.274  0.00  0.00    +0.000 HD
ENDBRANCH   1  26
TORSDOF 4
ENDMDL
MODEL 5
REMARK VINA RESULT:      -8.0      1.984      9.832
REMARK  Name = 
REMARK  4 active torsions:
REMARK  status: ('A' for Active; 'I' for Inactive)
REMARK    1  A    between atoms: C_2  and  C_4
REMARK    2  A    between atoms: C_9  and  C_10
REMARK    3  A    between atoms: C_13  and  O_14
REMARK    4  A    between atoms: O_14  and  C_15
REMARK                            x       y       z     vdW  Elec       q    Type
REMARK                         _______ _______ _______ _____ _____    ______ ____
ROOT
ATOM      1  C   UNL     1       6.587   5.103  17.040  0.00  0.00    +0.000 A 
ATOM      2  C   UNL     1       7.230   4.657  18.206  0.00  0.00    +0.000 A 
ATOM      3  C   UNL     1       7.999   5.526  18.992  0.00  0.00    +0.000 A 
ATOM      4  C   UNL     1       8.066   6.858  18.568  0.00  0.00    +0.000 A 
ATOM      5  N   UNL     1       8.680   7.976  19.076  0.00  0.00    +0.000 N 
ATOM      6  C   UNL     1       8.415   9.043  18.257  0.00  0.00    +0.000 A 
ATOM      7  N   UNL     1       7.644   8.659  17.252  0.00  0.00    +0.000 NA
ATOM      8  C   UNL     1       7.425   7.321  17.424  0.00  0.00    +0.000 A 
ATOM      9  C   UNL     1       6.677   6.441  16.637  0.00  0.00    +0.000 A 
ATOM     10  H   UNL     1       9.237   8.007  19.919  0.00  0.00    +0.000 HD
ENDROOT
BRANCH   6  11
ATOM     11  C   UNL     1       8.918  10.413  18.441  0.00  0.00    +0.000 A 
ATOM     12  C   UNL     1       8.508  11.507  17.667  0.00  0.00    +0.000 A 
ATOM     13  C   UNL     1       8.962  12.807  17.966  0.00  0.00    +0.000 A 
ATOM     14  C   UNL     1       9.821  13.045  19.045  0.00  0.00    +0.000 A 
ATOM     15  C   UNL     1      10.283  11.946  19.770  0.00  0.00    +0.000 A 
ATOM     16  C   UNL     1       9.834  10.654  19.474  0.00  0.00    +0.000 A 
BRANCH  14  17
ATOM     17  O   UNL     1      10.131  14.362  19.296  0.00  0.00    +0.000 OA
BRANCH  17  18
ATOM     18  C   UNL     1      11.476  14.797  19.011  0.00  0.00    +0.000 C 
ATOM     19  C   UNL     1      11.787  16.145  19.663  0.00  0.00    +0.000 C 
ATOM     20  C   UNL     1      11.140  17.325  18.939  0.00  0.00    +0.000 C 
ATOM     21  N   UNL     1      11.413  17.373  17.509  0.00  0.00    +0.000 NA
ATOM     22  C   UNL     1      11.138  16.111  16.826  0.00  0.00    +0.000 C 
ATOM     23  C   UNL     1      11.733  14.881  17.502  0.00  0.00    +0.000 C 
ATOM     24  H   UNL     1      12.374  17.667  17.339  0.00  0.00    +0.000 HD
ENDBRANCH  17  18
ENDBRANCH  14  17
ENDBRANCH   6  11
BRANCH   1  26
ATOM     25  N   UNL     1       4.934   3.326  16.970  0.00  0.00    +0.000 N 
ATOM     26  C   UNL     1       5.773   4.143  16.262  0.00  0.00    +0.000 C 
ATOM     27  O   UNL     1       5.824   4.094  15.041  0.00  0.00    +0.000 OA
ATOM     28  H   UNL     1       4.326   2.718  16.437  0.00  0.00    +0.000 HD
ATOM     29  H   UNL     1       4.705   3.493  17.942  0.00  0.00    +0.000 HD
ENDBRANCH   1  26
TORSDOF 4
ENDMDL
MODEL 6
REMARK VINA RESULT:      -7.9      6.202      9.408
REMARK  Name = 
REMARK  4 active torsions:
REMARK  status: ('A' for Active; 'I' for Inactive)
REMARK    1  A    between atoms: C_2  and  C_4
REMARK    2  A    between atoms: C_9  and  C_10
REMARK    3  A    between atoms: C_13  and  O_14
REMARK    4  A    between atoms: O_14  and  C_15
REMARK                            x       y       z     vdW  Elec       q    Type
REMARK                         _______ _______ _______ _____ _____    ______ ____
ROOT
ATOM      1  C   UNL     1       5.472   4.938  15.886  0.00  0.00    +0.000 A 
ATOM      2  C   UNL     1       4.773   3.848  16.427  0.00  0.00    +0.000 A 
ATOM      3  C   UNL     1       3.748   4.033  17.365  0.00  0.00    +0.000 A 
ATOM      4  C   UNL     1       3.443   5.355  17.706  0.00  0.00    +0.000 A 
ATOM      5  N   UNL     1       2.512   5.920  18.543  0.00  0.00    +0.000 N 
ATOM      6  C   UNL     1       2.643   7.284  18.502  0.00  0.00    +0.000 A 
ATOM      7  N   UNL     1       3.610   7.619  17.663  0.00  0.00    +0.000 NA
ATOM      8  C   UNL     1       4.115   6.449  17.170  0.00  0.00    +0.000 A 
ATOM      9  C   UNL     1       5.149   6.252  16.251  0.00  0.00    +0.000 A 
ATOM     10  H   UNL     1       1.838   5.411  19.098  0.00  0.00    +0.000 HD
ENDROOT
BRANCH   6  11
ATOM     11  C   UNL     1       1.849   8.246  19.280  0.00  0.00    +0.000 A 
ATOM     12  C   UNL     1       1.307   9.424  18.749  0.00  0.00    +0.000 A 
ATOM     13  C   UNL     1       0.475  10.248  19.533  0.00  0.00    +0.000 A 
ATOM     14  C   UNL     1       0.159   9.912  20.854  0.00  0.00    +0.000 A 
ATOM     15  C   UNL     1       0.756   8.777  21.403  0.00  0.00    +0.000 A 
ATOM     16  C   UNL     1       1.582   7.957  20.626  0.00  0.00    +0.000 A 
BRANCH  14  17
ATOM     17  O   UNL     1      -0.730  10.744  21.497  0.00  0.00    +0.000 OA
BRANCH  17  18
ATOM     18  C   UNL     1      -0.878  12.084  20.986  0.00  0.00    +0.000 C 
ATOM     19  C   UNL     1      -0.312  13.126  21.951  0.00  0.00    +0.000 C 
ATOM     20  C   UNL     1      -1.211  13.375  23.162  0.00  0.00    +0.000 C 
ATOM     21  N   UNL     1      -2.595  13.686  22.826  0.00  0.00    +0.000 NA
ATOM     22  C   UNL     1      -3.194  12.727  21.902  0.00  0.00    +0.000 C 
ATOM     23  C   UNL     1      -2.344  12.409  20.677  0.00  0.00    +0.000 C 
ATOM     24  H   UNL     1      -2.666  14.632  22.452  0.00  0.00    +0.000 HD
ENDBRANCH  17  18
ENDBRANCH  14  17
ENDBRANCH   6  11
BRANCH   1  26
ATOM     25  N   UNL     1       7.650   5.468  14.955  0.00  0.00    +0.000 N 
ATOM     26  C   UNL     1       6.532   4.682  14.886  0.00  0.00    +0.000 C 
ATOM     27  O   UNL     1       6.431   3.796  14.050  0.00  0.00    +0.000 OA
ATOM     28  H   UNL     1       8.406   5.250  14.318  0.00  0.00    +0.000 HD
ATOM     29  H   UNL     1       7.859   6.047  15.759  0.00  0.00    +0.000 HD
ENDBRANCH   1  26
TORSDOF 4
ENDMDL
MODEL 7
REMARK VINA RESULT:      -7.9      7.293     10.395
REMARK  Name = 
REMARK  4 active torsions:
REMARK  status: ('A' for Active; 'I' for Inactive)
REMARK    1  A    between atoms: C_2  and  C_4
REMARK    2  A    between atoms: C_9  and  C_10
REMARK    3  A    between atoms: C_13  and  O_14
REMARK    4  A    between atoms: O_14  and  C_15
REMARK                            x       y       z     vdW  Elec       q    Type
REMARK                         _______ _______ _______ _____ _____    ______ ____
ROOT
ATOM      1  C   UNL     1       4.078   5.797  17.481  0.00  0.00    +0.000 A 
ATOM      2  C   UNL     1       3.926   4.794  18.452  0.00  0.00    +0.000 A 
ATOM      3  C   UNL     1       3.194   5.023  19.626  0.00  0.00    +0.000 A 
ATOM      4  C   UNL     1       2.606   6.285  19.761  0.00  0.00    +0.000 A 
ATOM      5  N   UNL     1       1.817   6.855  20.729  0.00  0.00    +0.000 N 
ATOM      6  C   UNL     1       1.506   8.137  20.354  0.00  0.00    +0.000 A 
ATOM      7  N   UNL     1       2.052   8.408  19.180  0.00  0.00    +0.000 NA
ATOM      8  C   UNL     1       2.735   7.286  18.803  0.00  0.00    +0.000 A 
ATOM      9  C   UNL     1       3.483   7.054  17.647  0.00  0.00    +0.000 A 
ATOM     10  H   UNL     1       1.511   6.402  21.579  0.00  0.00    +0.000 HD
ENDROOT
BRANCH   6  11
ATOM     11  C   UNL     1       0.703   9.090  21.135  0.00  0.00    +0.000 A 
ATOM     12  C   UNL     1       0.292   8.867  22.456  0.00  0.00    +0.000 A 
ATOM     13  C   UNL     1      -0.392   9.869  23.173  0.00  0.00    +0.000 A 
ATOM     14  C   UNL     1      -0.671  11.112  22.595  0.00  0.00    +0.000 A 
ATOM     15  C   UNL     1      -0.323  11.307  21.258  0.00  0.00    +0.000 A 
ATOM     16  C   UNL     1       0.356  10.313  20.544  0.00  0.00    +0.000 A 
BRANCH  14  17
ATOM     17  O   UNL     1      -1.268  12.044  23.414  0.00  0.00    +0.000 OA
BRANCH  17  18
ATOM     18  C   UNL     1      -2.214  12.950  22.815  0.00  0.00    +0.000 C 
ATOM     19  C   UNL     1      -2.009  14.387  23.298  0.00  0.00    +0.000 C 
ATOM     20  C   UNL     1      -2.523  14.622  24.718  0.00  0.00    +0.000 C 
ATOM     21  N   UNL     1      -3.901  14.202  24.934  0.00  0.00    +0.000 NA
ATOM     22  C   UNL     1      -4.164  12.836  24.490  0.00  0.00    +0.000 C 
ATOM     23  C   UNL     1      -3.659  12.516  23.086  0.00  0.00    +0.000 C 
ATOM     24  H   UNL     1      -4.546  14.851  24.486  0.00  0.00    +0.000 HD
ENDBRANCH  17  18
ENDBRANCH  14  17
ENDBRANCH   6  11
BRANCH   1  26
ATOM     25  N   UNL     1       5.366   6.556  15.568  0.00  0.00    +0.000 N 
ATOM     26  C   UNL     1       4.846   5.491  16.254  0.00  0.00    +0.000 C 
ATOM     27  O   UNL     1       5.032   4.343  15.877  0.00  0.00    +0.000 OA
ATOM     28  H   UNL     1       5.949   6.347  14.769  0.00  0.00    +0.000 HD
ATOM     29  H   UNL     1       5.421   7.484  15.968  0.00  0.00    +0.000 HD
ENDBRANCH   1  26
TORSDOF 4
ENDMDL
MODEL 8
REMARK VINA RESULT:      -7.9      6.402      8.953
REMARK  Name = 
REMARK  4 active torsions:
REMARK  status: ('A' for Active; 'I' for Inactive)
REMARK    1  A    between atoms: C_2  and  C_4
REMARK    2  A    between atoms: C_9  and  C_10
REMARK    3  A    between atoms: C_13  and  O_14
REMARK    4  A    between atoms: O_14  and  C_15
REMARK                            x       y       z     vdW  Elec       q    Type
REMARK                         _______ _______ _______ _____ _____    ______ ____
ROOT
ATOM      1  C   UNL     1      -1.766  12.298  22.273  0.00  0.00    +0.000 A 
ATOM      2  C   UNL     1      -1.801  13.022  21.071  0.00  0.00    +0.000 A 
ATOM      3  C   UNL     1      -1.102  12.584  19.936  0.00  0.00    +0.000 A 
ATOM      4  C   UNL     1      -0.397  11.382  20.061  0.00  0.00    +0.000 A 
ATOM      5  N   UNL     1       0.361  10.642  19.188  0.00  0.00    +0.000 N 
ATOM      6  C   UNL     1       0.825   9.525  19.834  0.00  0.00    +0.000 A 
ATOM      7  N   UNL     1       0.385   9.511  21.082  0.00  0.00    +0.000 NA
ATOM      8  C   UNL     1      -0.362  10.644  21.240  0.00  0.00    +0.000 A 
ATOM      9  C   UNL     1      -1.046  11.100  22.370  0.00  0.00    +0.000 A 
ATOM     10  H   UNL     1       0.545  10.881  18.223  0.00  0.00    +0.000 HD
ENDROOT
BRANCH   6  11
ATOM     11  C   UNL     1       1.699   8.496  19.251  0.00  0.00    +0.000 A 
ATOM     12  C   UNL     1       2.318   8.614  18.000  0.00  0.00    +0.000 A 
ATOM     13  C   UNL     1       3.219   7.629  17.550  0.00  0.00    +0.000 A 
ATOM     14  C   UNL     1       3.529   6.515  18.339  0.00  0.00    +0.000 A 
ATOM     15  C   UNL     1       2.858   6.364  19.553  0.00  0.00    +0.000 A 
ATOM     16  C   UNL     1       1.963   7.341  20.001  0.00  0.00    +0.000 A 
BRANCH  14  17
ATOM     17  O   UNL     1       4.486   5.661  17.837  0.00  0.00    +0.000 OA
BRANCH  17  18
ATOM     18  C   UNL     1       5.573   6.243  17.092  0.00  0.00    +0.000 C 
ATOM     19  C   UNL     1       5.794   5.528  15.758  0.00  0.00    +0.000 C 
ATOM     20  C   UNL     1       6.484   4.173  15.910  0.00  0.00    +0.000 C 
ATOM     21  N   UNL     1       7.721   4.213  16.680  0.00  0.00    +0.000 NA
ATOM     22  C   UNL     1       7.577   4.887  17.967  0.00  0.00    +0.000 C 
ATOM     23  C   UNL     1       6.876   6.240  17.901  0.00  0.00    +0.000 C 
ATOM     24  H   UNL     1       8.466   4.644  16.135  0.00  0.00    +0.000 HD
ENDBRANCH  17  18
ENDBRANCH  14  17
ENDBRANCH   6  11
BRANCH   1  26
ATOM     25  N   UNL     1      -3.542  11.995  23.900  0.00  0.00    +0.000 N 
ATOM     26  C   UNL     1      -2.539  12.799  23.431  0.00  0.00    +0.000 C 
ATOM     27  O   UNL     1      -2.282  13.869  23.964  0.00  0.00    +0.000 OA
ATOM     28  H   UNL     1      -4.026  12.302  24.733  0.00  0.00    +0.000 HD
ATOM     29  H   UNL     1      -3.631  11.023  23.630  0.00  0.00    +0.000 HD
ENDBRANCH   1  26
TORSDOF 4
ENDMDL
MODEL 9
REMARK VINA RESULT:      -7.7      7.389     11.046
REMARK  Name = 
REMARK  4 active torsions:
REMARK  status: ('A' for Active; 'I' for Inactive)
REMARK    1  A    between atoms: C_2  and  C_4
REMARK    2  A    between atoms: C_9  and  C_10
REMARK    3  A    between atoms: C_13  and  O_14
REMARK    4  A    between atoms: O_14  and  C_15
REMARK                            x       y       z     vdW  Elec       q    Type
REMARK                         _______ _______ _______ _____ _____    ______ ____
ROOT
ATOM      1  C   UNL     1       3.247   4.543  18.999  0.00  0.00    +0.000 A 
ATOM      2  C   UNL     1       3.567   5.375  17.915  0.00  0.00    +0.000 A 
ATOM      3  C   UNL     1       3.172   6.720  17.888  0.00  0.00    +0.000 A 
ATOM      4  C   UNL     1       2.472   7.189  19.004  0.00  0.00    +0.000 A 
ATOM      5  N   UNL     1       1.959   8.416  19.345  0.00  0.00    +0.000 N 
ATOM      6  C   UNL     1       1.364   8.327  20.577  0.00  0.00    +0.000 A 
ATOM      7  N   UNL     1       1.486   7.095  21.046  0.00  0.00    +0.000 NA
ATOM      8  C   UNL     1       2.158   6.383  20.094  0.00  0.00    +0.000 A 
ATOM      9  C   UNL     1       2.539   5.039  20.101  0.00  0.00    +0.000 A 
ATOM     10  H   UNL     1       2.015   9.252  18.779  0.00  0.00    +0.000 HD
ENDROOT
BRANCH   6  11
ATOM     11  C   UNL     1       0.672   9.418  21.278  0.00  0.00    +0.000 A 
ATOM     12  C   UNL     1       0.619  10.738  20.811  0.00  0.00    +0.000 A 
ATOM     13  C   UNL     1      -0.145  11.708  21.488  0.00  0.00    +0.000 A 
ATOM     14  C   UNL     1      -0.879  11.383  22.634  0.00  0.00    +0.000 A 
ATOM     15  C   UNL     1      -0.769  10.086  23.137  0.00  0.00    +0.000 A 
ATOM     16  C   UNL     1      -0.010   9.121  22.466  0.00  0.00    +0.000 A 
BRANCH  14  17
ATOM     17  O   UNL     1      -1.657  12.388  23.164  0.00  0.00    +0.000 OA
BRANCH  17  18
ATOM     18  C   UNL     1      -3.088  12.227  23.101  0.00  0.00    +0.000 C 
ATOM     19  C   UNL     1      -3.670  12.822  21.818  0.00  0.00    +0.000 C 
ATOM     20  C   UNL     1      -3.737  14.349  21.840  0.00  0.00    +0.000 C 
ATOM     21  N   UNL     1      -4.406  14.902  23.011  0.00  0.00    +0.000 NA
ATOM     22  C   UNL     1      -3.897  14.370  24.272  0.00  0.00    +0.000 C 
ATOM     23  C   UNL     1      -3.779  12.850  24.319  0.00  0.00    +0.000 C 
ATOM     24  H   UNL     1      -5.413  14.759  22.946  0.00  0.00    +0.000 HD
ENDBRANCH  17  18
ENDBRANCH  14  17
ENDBRANCH   6  11
BRANCH   1  26
ATOM     25  N   UNL     1       5.012   2.908  19.321  0.00  0.00    +0.000 N 
ATOM     26  C   UNL     1       3.707   3.137  18.980  0.00  0.00    +0.000 C 
ATOM     27  O   UNL     1       2.955   2.215  18.698  0.00  0.00    +0.000 OA
ATOM     28  H   UNL     1       5.311   1.943  19.377  0.00  0.00    +0.000 HD
ATOM     29  H   UNL     1       5.588   3.610  19.769  0.00  0.00    +0.000 HD
ENDBRANCH   1  26
TORSDOF 4
ENDMDL
