MODEL 1
REMARK VINA RESULT:      -8.4      0.000      0.000
REMARK  Name = 
REMARK  7 active torsions:
REMARK  status: ('A' for Active; 'I' for Inactive)
REMARK    1  A    between atoms: C_1  and  O_2
REMARK    2  A    between atoms: O_2  and  C_3
REMARK    3  A    between atoms: C_5  and  N_6
REMARK    4  A    between atoms: C_7  and  C_9
REMARK    5  A    between atoms: C_17  and  C_18
REMARK    6  A    between atoms: C_21  and  N_22
REMARK    7  A    between atoms: C_23  and  C_25
REMARK                            x       y       z     vdW  Elec       q    Type
REMARK                         _______ _______ _______ _____ _____    ______ ____
ROOT
ATOM      1  C   UNL     1      -0.294  10.437  20.225  0.00  0.00    +0.000 A 
ATOM      2  C   UNL     1       0.498   9.495  19.555  0.00  0.00    +0.000 A 
ATOM      3  C   UNL     1       1.340   8.625  20.242  0.00  0.00    +0.000 A 
ATOM      4  C   UNL     1       1.345   8.666  21.633  0.00  0.00    +0.000 A 
ATOM      5  C   UNL     1       0.510   9.562  22.318  0.00  0.00    +0.000 A 
ATOM      6  C   UNL     1      -0.326  10.448  21.630  0.00  0.00    +0.000 A 
ENDROOT
BRANCH   3   7
ATOM      7  N   UNL     1       2.177   7.702  19.587  0.00  0.00    +0.000 N 
ATOM      8  C   UNL     1       2.297   6.345  19.860  0.00  0.00    +0.000 C 
ATOM      9  O   UNL     1       1.626   5.729  20.681  0.00  0.00    +0.000 OA
ATOM     10  H   UNL     1       2.719   8.034  18.795  0.00  0.00    +0.000 HD
BRANCH   8  11
ATOM     11  C   UNL     1       3.271   5.673  19.023  0.00  0.00    +0.000 A 
ATOM     12  O   UNL     1       4.607   5.899  19.247  0.00  0.00    +0.000 OA
ATOM     13  C   UNL     1       5.291   5.237  18.281  0.00  0.00    +0.000 A 
ATOM     14  C   UNL     1       6.673   5.195  18.162  0.00  0.00    +0.000 A 
ATOM     15  C   UNL     1       7.181   4.543  17.035  0.00  0.00    +0.000 A 
ATOM     16  C   UNL     1       6.329   3.976  16.085  0.00  0.00    +0.000 A 
ATOM     17  C   UNL     1       4.938   3.983  16.264  0.00  0.00    +0.000 A 
ATOM     18  C   UNL     1       4.408   4.610  17.408  0.00  0.00    +0.000 A 
ATOM     19  C   UNL     1       3.109   4.786  17.966  0.00  0.00    +0.000 A 
ATOM     20  C   UNL     1       1.834   4.166  17.524  0.00  0.00    +0.000 C 
ENDBRANCH   8  11
ENDBRANCH   3   7
BRANCH   6  21
ATOM     21  N   UNL     1      -1.228  11.321  22.289  0.00  0.00    +0.000 N 
ATOM     22  C   UNL     1      -0.988  12.633  22.665  0.00  0.00    +0.000 C 
ATOM     23  O   UNL     1       0.005  13.284  22.333  0.00  0.00    +0.000 OA
ATOM     24  H   UNL     1      -2.147  10.938  22.496  0.00  0.00    +0.000 HD
BRANCH  22  25
ATOM     25  C   UNL     1      -2.018  13.233  23.494  0.00  0.00    +0.000 A 
ATOM     26  C   UNL     1      -2.017  14.440  24.171  0.00  0.00    +0.000 A 
ATOM     27  C   UNL     1      -3.249  14.531  24.859  0.00  0.00    +0.000 A 
ATOM     28  C   UNL     1      -3.931  13.372  24.567  0.00  0.00    +0.000 A 
ATOM     29  O   UNL     1      -3.199  12.579  23.735  0.00  0.00    +0.000 OA
ENDBRANCH  22  25
ENDBRANCH   6  21
BRANCH   1  31
ATOM     30  C   UNL     1      -1.743  10.850  18.408  0.00  0.00    +0.000 C 
ATOM     31  O   UNL     1      -1.045  11.374  19.547  0.00  0.00    +0.000 OA
ENDBRANCH   1  31
TORSDOF 5
ENDMDL
MODEL 2
REMARK VINA RESULT:      -7.9      1.311      1.433
REMARK  Name = 
REMARK  7 active torsions:
REMARK  status: ('A' for Active; 'I' for Inactive)
REMARK    1  A    between atoms: C_1  and  O_2
REMARK    2  A    between atoms: O_2  and  C_3
REMARK    3  A    between atoms: C_5  and  N_6
REMARK    4  A    between atoms: C_7  and  C_9
REMARK    5  A    between atoms: C_17  and  C_18
REMARK    6  A    between atoms: C_21  and  N_22
REMARK    7  A    between atoms: C_23  and  C_25
REMARK                            x       y       z     vdW  Elec       q    Type
REMARK                         _______ _______ _______ _____ _____    ______ ____
ROOT
ATOM      1  C   UNL     1       0.372  10.712  19.410  0.00  0.00    +0.000 A 
ATOM      2  C   UNL     1       1.166   9.796  18.707  0.00  0.00    +0.000 A 
ATOM      3  C   UNL     1       1.632   8.625  19.298  0.00  0.00    +0.000 A 
ATOM      4  C   UNL     1       1.247   8.343  20.606  0.00  0.00    +0.000 A 
ATOM      5  C   UNL     1       0.401   9.221  21.300  0.00  0.00    +0.000 A 
ATOM      6  C   UNL     1      -0.058  10.406  20.713  0.00  0.00    +0.000 A 
ENDROOT
BRANCH   3   7
ATOM      7  N   UNL     1       2.468   7.713  18.625  0.00  0.00    +0.000 N 
ATOM      8  C   UNL     1       2.822   6.439  19.048  0.00  0.00    +0.000 C 
ATOM      9  O   UNL     1       2.395   5.885  20.056  0.00  0.00    +0.000 OA
ATOM     10  H   UNL     1       2.815   7.978  17.708  0.00  0.00    +0.000 HD
BRANCH   8  11
ATOM     11  C   UNL     1       3.726   5.761  18.139  0.00  0.00    +0.000 A 
ATOM     12  O   UNL     1       4.977   6.285  17.933  0.00  0.00    +0.000 OA
ATOM     13  C   UNL     1       5.576   5.528  16.980  0.00  0.00    +0.000 A 
ATOM     14  C   UNL     1       6.864   5.715  16.497  0.00  0.00    +0.000 A 
ATOM     15  C   UNL     1       7.257   4.890  15.440  0.00  0.00    +0.000 A 
ATOM     16  C   UNL     1       6.387   3.938  14.905  0.00  0.00    +0.000 A 
ATOM     17  C   UNL     1       5.114   3.732  15.455  0.00  0.00    +0.000 A 
ATOM     18  C   UNL     1       4.709   4.534  16.539  0.00  0.00    +0.000 A 
ATOM     19  C   UNL     1       3.562   4.607  17.383  0.00  0.00    +0.000 A 
ATOM     20  C   UNL     1       2.418   3.663  17.452  0.00  0.00    +0.000 C 
ENDBRANCH   8  11
ENDBRANCH   3   7
BRANCH   6  21
ATOM     21  N   UNL     1      -0.963  11.283  21.360  0.00  0.00    +0.000 N 
ATOM     22  C   UNL     1      -1.296  11.289  22.706  0.00  0.00    +0.000 C 
ATOM     23  O   UNL     1      -0.721  10.622  23.569  0.00  0.00    +0.000 OA
ATOM     24  H   UNL     1      -1.405  11.983  20.769  0.00  0.00    +0.000 HD
BRANCH  22  25
ATOM     25  C   UNL     1      -2.392  12.170  23.064  0.00  0.00    +0.000 A 
ATOM     26  C   UNL     1      -2.614  13.492  22.719  0.00  0.00    +0.000 A 
ATOM     27  C   UNL     1      -3.807  13.894  23.362  0.00  0.00    +0.000 A 
ATOM     28  C   UNL     1      -4.245  12.796  24.067  0.00  0.00    +0.000 A 
ATOM     29  O   UNL     1      -3.399  11.743  23.891  0.00  0.00    +0.000 OA
ENDBRANCH  22  25
ENDBRANCH   6  21
BRANCH   1  31
ATOM     30  C   UNL     1       1.078  12.860  18.734  0.00  0.00    +0.000 C 
ATOM     31  O   UNL     1      -0.000  11.923  18.866  0.00  0.00    +0.000 OA
ENDBRANCH   1  31
TORSDOF 5
ENDMDL
MODEL 3
REMARK VINA RESULT:      -7.9      2.018     10.467
REMARK  Name = 
REMARK  7 active torsions:
REMARK  status: ('A' for Active; 'I' for Inactive)
REMARK    1  A    between atoms: C_1  and  O_2
REMARK    2  A    between atoms: O_2  and  C_3
REMARK    3  A    between atoms: C_5  and  N_6
REMARK    4  A    between atoms: C_7  and  C_9
REMARK    5  A    between atoms: C_17  and  C_18
REMARK    6  A    between atoms: C_21  and  N_22
REMARK    7  A    between atoms: C_23  and  C_25
REMARK                            x       y       z     vdW  Elec       q    Type
REMARK                         _______ _______ _______ _____ _____    ______ ____
ROOT
ATOM      1  C   UNL     1       2.396   7.071  19.466  0.00  0.00    +0.000 A 
ATOM      2  C   UNL     1       1.450   7.904  20.079  0.00  0.00    +0.000 A 
ATOM      3  C   UNL     1       1.017   9.083  19.481  0.00  0.00    +0.000 A 
ATOM      4  C   UNL     1       1.503   9.406  18.217  0.00  0.00    +0.000 A 
ATOM      5  C   UNL     1       2.402   8.549  17.565  0.00  0.00    +0.000 A 
ATOM      6  C   UNL     1       2.852   7.369  18.170  0.00  0.00    +0.000 A 
ENDROOT
BRANCH   3   7
ATOM      7  N   UNL     1       0.101   9.958  20.099  0.00  0.00    +0.000 N 
ATOM      8  C   UNL     1       0.356  10.822  21.155  0.00  0.00    +0.000 C 
ATOM      9  O   UNL     1       1.456  11.003  21.670  0.00  0.00    +0.000 OA
ATOM     10  H   UNL     1      -0.834  10.014  19.709  0.00  0.00    +0.000 HD
BRANCH   8  11
ATOM     11  C   UNL     1      -0.810  11.570  21.582  0.00  0.00    +0.000 A 
ATOM     12  O   UNL     1      -1.325  11.339  22.833  0.00  0.00    +0.000 OA
ATOM     13  C   UNL     1      -2.453  12.084  22.944  0.00  0.00    +0.000 A 
ATOM     14  C   UNL     1      -3.265  12.149  24.068  0.00  0.00    +0.000 A 
ATOM     15  C   UNL     1      -4.439  12.896  23.944  0.00  0.00    +0.000 A 
ATOM     16  C   UNL     1      -4.767  13.532  22.745  0.00  0.00    +0.000 A 
ATOM     17  C   UNL     1      -3.896  13.498  21.646  0.00  0.00    +0.000 A 
ATOM     18  C   UNL     1      -2.694  12.773  21.761  0.00  0.00    +0.000 A 
ATOM     19  C   UNL     1      -1.559  12.540  20.929  0.00  0.00    +0.000 A 
ATOM     20  C   UNL     1      -1.231  13.183  19.632  0.00  0.00    +0.000 C 
ENDBRANCH   8  11
ENDBRANCH   3   7
BRANCH   6  21
ATOM     21  N   UNL     1       3.709   6.450  17.516  0.00  0.00    +0.000 N 
ATOM     22  C   UNL     1       5.038   6.652  17.174  0.00  0.00    +0.000 C 
ATOM     23  O   UNL     1       5.713   7.617  17.539  0.00  0.00    +0.000 OA
ATOM     24  H   UNL     1       3.301   5.548  17.284  0.00  0.00    +0.000 HD
BRANCH  22  25
ATOM     25  C   UNL     1       5.623   5.615  16.342  0.00  0.00    +0.000 A 
ATOM     26  C   UNL     1       5.199   4.317  16.118  0.00  0.00    +0.000 A 
ATOM     27  C   UNL     1       6.145   3.715  15.257  0.00  0.00    +0.000 A 
ATOM     28  C   UNL     1       7.096   4.679  15.008  0.00  0.00    +0.000 A 
ATOM     29  O   UNL     1       6.789   5.837  15.655  0.00  0.00    +0.000 OA
ENDBRANCH  22  25
ENDBRANCH   6  21
BRANCH   1  31
ATOM     30  C   UNL     1       1.920   5.001  20.495  0.00  0.00    +0.000 C 
ATOM     31  O   UNL     1       2.911   5.961  20.100  0.00  0.00    +0.000 OA
ENDBRANCH   1  31
TORSDOF 5
ENDMDL
MODEL 4
REMARK VINA RESULT:      -7.8      1.249      1.271
REMARK  Name = 
REMARK  7 active torsions:
REMARK  status: ('A' for Active; 'I' for Inactive)
REMARK    1  A    between atoms: C_1  and  O_2
REMARK    2  A    between atoms: O_2  and  C_3
REMARK    3  A    between atoms: C_5  and  N_6
REMARK    4  A    between atoms: C_7  and  C_9
REMARK    5  A    between atoms: C_17  and  C_18
REMARK    6  A    between atoms: C_21  and  N_22
REMARK    7  A    between atoms: C_23  and  C_25
REMARK                            x       y       z     vdW  Elec       q    Type
REMARK                         _______ _______ _______ _____ _____    ______ ____
ROOT
ATOM      1  C   UNL     1      -0.354  10.666  20.092  0.00  0.00    +0.000 A 
ATOM      2  C   UNL     1       0.468   9.759  19.409  0.00  0.00    +0.000 A 
ATOM      3  C   UNL     1       1.274   8.848  20.086  0.00  0.00    +0.000 A 
ATOM      4  C   UNL     1       1.211   8.811  21.477  0.00  0.00    +0.000 A 
ATOM      5  C   UNL     1       0.345   9.671  22.170  0.00  0.00    +0.000 A 
ATOM      6  C   UNL     1      -0.455  10.598  21.492  0.00  0.00    +0.000 A 
ENDROOT
BRANCH   3   7
ATOM      7  N   UNL     1       2.141   7.959  19.423  0.00  0.00    +0.000 N 
ATOM      8  C   UNL     1       2.595   8.058  18.114  0.00  0.00    +0.000 C 
ATOM      9  O   UNL     1       2.356   8.990  17.352  0.00  0.00    +0.000 OA
ATOM     10  H   UNL     1       2.527   7.188  19.959  0.00  0.00    +0.000 HD
BRANCH   8  11
ATOM     11  C   UNL     1       3.458   6.962  17.719  0.00  0.00    +0.000 A 
ATOM     12  O   UNL     1       4.768   7.226  17.411  0.00  0.00    +0.000 OA
ATOM     13  C   UNL     1       5.321   6.063  16.987  0.00  0.00    +0.000 A 
ATOM     14  C   UNL     1       6.643   5.897  16.597  0.00  0.00    +0.000 A 
ATOM     15  C   UNL     1       6.990   4.641  16.093  0.00  0.00    +0.000 A 
ATOM     16  C   UNL     1       6.044   3.619  15.988  0.00  0.00    +0.000 A 
ATOM     17  C   UNL     1       4.731   3.798  16.447  0.00  0.00    +0.000 A 
ATOM     18  C   UNL     1       4.369   5.049  16.984  0.00  0.00    +0.000 A 
ATOM     19  C   UNL     1       3.200   5.603  17.582  0.00  0.00    +0.000 A 
ATOM     20  C   UNL     1       1.955   4.897  17.978  0.00  0.00    +0.000 C 
ENDBRANCH   8  11
ENDBRANCH   3   7
BRANCH   6  21
ATOM     21  N   UNL     1      -1.387  11.437  22.154  0.00  0.00    +0.000 N 
ATOM     22  C   UNL     1      -1.114  12.633  22.799  0.00  0.00    +0.000 C 
ATOM     23  O   UNL     1      -0.032  13.221  22.751  0.00  0.00    +0.000 OA
ATOM     24  H   UNL     1      -2.354  11.124  22.142  0.00  0.00    +0.000 HD
BRANCH  22  25
ATOM     25  C   UNL     1      -2.222  13.189  23.555  0.00  0.00    +0.000 A 
ATOM     26  C   UNL     1      -2.362  14.442  24.126  0.00  0.00    +0.000 A 
ATOM     27  C   UNL     1      -3.615  14.460  24.783  0.00  0.00    +0.000 A 
ATOM     28  C   UNL     1      -4.166  13.216  24.579  0.00  0.00    +0.000 A 
ATOM     29  O   UNL     1      -3.335  12.437  23.832  0.00  0.00    +0.000 OA
ENDBRANCH  22  25
ENDBRANCH   6  21
BRANCH   1  31
ATOM     30  C   UNL     1      -1.962  11.136  18.429  0.00  0.00    +0.000 C 
ATOM     31  O   UNL     1      -1.069  11.643  19.431  0.00  0.00    +0.000 OA
ENDBRANCH   1  31
TORSDOF 5
ENDMDL
MODEL 5
REMARK VINA RESULT:      -7.8      1.993     10.450
REMARK  Name = 
REMARK  7 active torsions:
REMARK  status: ('A' for Active; 'I' for Inactive)
REMARK    1  A    between atoms: C_1  and  O_2
REMARK    2  A    between atoms: O_2  and  C_3
REMARK    3  A    between atoms: C_5  and  N_6
REMARK    4  A    between atoms: C_7  and  C_9
REMARK    5  A    between atoms: C_17  and  C_18
REMARK    6  A    between atoms: C_21  and  N_22
REMARK    7  A    between atoms: C_23  and  C_25
REMARK                            x       y       z     vdW  Elec       q    Type
REMARK                         _______ _______ _______ _____ _____    ______ ____
ROOT
ATOM      1  C   UNL     1       2.341   7.064  19.646  0.00  0.00    +0.000 A 
ATOM      2  C   UNL     1       1.518   7.956  20.347  0.00  0.00    +0.000 A 
ATOM      3  C   UNL     1       1.167   9.196  19.821  0.00  0.00    +0.000 A 
ATOM      4  C   UNL     1       1.606   9.523  18.541  0.00  0.00    +0.000 A 
ATOM      5  C   UNL     1       2.378   8.613  17.804  0.00  0.00    +0.000 A 
ATOM      6  C   UNL     1       2.746   7.372  18.336  0.00  0.00    +0.000 A 
ENDROOT
BRANCH   3   7
ATOM      7  N   UNL     1       0.378  10.126  20.526  0.00  0.00    +0.000 N 
ATOM      8  C   UNL     1       0.380  10.351  21.896  0.00  0.00    +0.000 C 
ATOM      9  O   UNL     1       1.133   9.810  22.700  0.00  0.00    +0.000 OA
ATOM     10  H   UNL     1      -0.221  10.741  19.986  0.00  0.00    +0.000 HD
BRANCH   8  11
ATOM     11  C   UNL     1      -0.572  11.360  22.315  0.00  0.00    +0.000 A 
ATOM     12  O   UNL     1      -1.644  10.983  23.085  0.00  0.00    +0.000 OA
ATOM     13  C   UNL     1      -2.421  12.082  23.254  0.00  0.00    +0.000 A 
ATOM     14  C   UNL     1      -3.596  12.129  23.992  0.00  0.00    +0.000 A 
ATOM     15  C   UNL     1      -4.304  13.333  23.957  0.00  0.00    +0.000 A 
ATOM     16  C   UNL     1      -3.844  14.419  23.210  0.00  0.00    +0.000 A 
ATOM     17  C   UNL     1      -2.623  14.361  22.524  0.00  0.00    +0.000 A 
ATOM     18  C   UNL     1      -1.880  13.165  22.570  0.00  0.00    +0.000 A 
ATOM     19  C   UNL     1      -0.617  12.728  22.073  0.00  0.00    +0.000 A 
ATOM     20  C   UNL     1       0.440  13.543  21.423  0.00  0.00    +0.000 C 
ENDBRANCH   8  11
ENDBRANCH   3   7
BRANCH   6  21
ATOM     21  N   UNL     1       3.471   6.403  17.597  0.00  0.00    +0.000 N 
ATOM     22  C   UNL     1       4.795   6.485  17.195  0.00  0.00    +0.000 C 
ATOM     23  O   UNL     1       5.584   7.357  17.567  0.00  0.00    +0.000 OA
ATOM     24  H   UNL     1       2.959   5.561  17.346  0.00  0.00    +0.000 HD
BRANCH  22  25
ATOM     25  C   UNL     1       5.228   5.438  16.287  0.00  0.00    +0.000 A 
ATOM     26  C   UNL     1       5.493   5.498  14.930  0.00  0.00    +0.000 A 
ATOM     27  C   UNL     1       5.842   4.192  14.518  0.00  0.00    +0.000 A 
ATOM     28  C   UNL     1       5.766   3.406  15.646  0.00  0.00    +0.000 A 
ATOM     29  O   UNL     1       5.400   4.150  16.727  0.00  0.00    +0.000 OA
ENDBRANCH  22  25
ENDBRANCH   6  21
BRANCH   1  31
ATOM     30  C   UNL     1       1.728   4.996  20.605  0.00  0.00    +0.000 C 
ATOM     31  O   UNL     1       2.783   5.884  20.207  0.00  0.00    +0.000 OA
ENDBRANCH   1  31
TORSDOF 5
ENDMDL
MODEL 6
REMARK VINA RESULT:      -7.6      1.968     10.527
REMARK  Name = 
REMARK  7 active torsions:
REMARK  status: ('A' for Active; 'I' for Inactive)
REMARK    1  A    between atoms: C_1  and  O_2
REMARK    2  A    between atoms: O_2  and  C_3
REMARK    3  A    between atoms: C_5  and  N_6
REMARK    4  A    between atoms: C_7  and  C_9
REMARK    5  A    between atoms: C_17  and  C_18
REMARK    6  A    between atoms: C_21  and  N_22
REMARK    7  A    between atoms: C_23  and  C_25
REMARK                            x       y       z     vdW  Elec       q    Type
REMARK                         _______ _______ _______ _____ _____    ______ ____
ROOT
ATOM      1  C   UNL     1       2.481   7.148  19.444  0.00  0.00    +0.000 A 
ATOM      2  C   UNL     1       1.596   8.012  20.103  0.00  0.00    +0.000 A 
ATOM      3  C   UNL     1       1.180   9.211  19.530  0.00  0.00    +0.000 A 
ATOM      4  C   UNL     1       1.620   9.522  18.246  0.00  0.00    +0.000 A 
ATOM      5  C   UNL     1       2.456   8.635  17.551  0.00  0.00    +0.000 A 
ATOM      6  C   UNL     1       2.888   7.436  18.130  0.00  0.00    +0.000 A 
ENDROOT
BRANCH   3   7
ATOM      7  N   UNL     1       0.328  10.115  20.193  0.00  0.00    +0.000 N 
ATOM      8  C   UNL     1       0.696  11.291  20.833  0.00  0.00    +0.000 C 
ATOM      9  O   UNL     1       1.830  11.758  20.856  0.00  0.00    +0.000 OA
ATOM     10  H   UNL     1      -0.670   9.931  20.163  0.00  0.00    +0.000 HD
BRANCH   8  11
ATOM     11  C   UNL     1      -0.419  11.986  21.446  0.00  0.00    +0.000 A 
ATOM     12  O   UNL     1      -0.849  13.167  20.895  0.00  0.00    +0.000 OA
ATOM     13  C   UNL     1      -1.824  13.653  21.702  0.00  0.00    +0.000 A 
ATOM     14  C   UNL     1      -2.535  14.826  21.487  0.00  0.00    +0.000 A 
ATOM     15  C   UNL     1      -3.428  15.206  22.492  0.00  0.00    +0.000 A 
ATOM     16  C   UNL     1      -3.580  14.439  23.649  0.00  0.00    +0.000 A 
ATOM     17  C   UNL     1      -2.892  13.228  23.810  0.00  0.00    +0.000 A 
ATOM     18  C   UNL     1      -2.009  12.813  22.795  0.00  0.00    +0.000 A 
ATOM     19  C   UNL     1      -1.190  11.670  22.557  0.00  0.00    +0.000 A 
ATOM     20  C   UNL     1      -1.150  10.401  23.327  0.00  0.00    +0.000 C 
ENDBRANCH   8  11
ENDBRANCH   3   7
BRANCH   6  21
ATOM     21  N   UNL     1       3.680   6.489  17.434  0.00  0.00    +0.000 N 
ATOM     22  C   UNL     1       5.021   6.609  17.105  0.00  0.00    +0.000 C 
ATOM     23  O   UNL     1       5.763   7.503  17.517  0.00  0.00    +0.000 OA
ATOM     24  H   UNL     1       3.208   5.631  17.158  0.00  0.00    +0.000 HD
BRANCH  22  25
ATOM     25  C   UNL     1       5.533   5.574  16.225  0.00  0.00    +0.000 A 
ATOM     26  C   UNL     1       5.184   4.237  16.135  0.00  0.00    +0.000 A 
ATOM     27  C   UNL     1       6.010   3.660  15.143  0.00  0.00    +0.000 A 
ATOM     28  C   UNL     1       6.820   4.675  14.687  0.00  0.00    +0.000 A 
ATOM     29  O   UNL     1       6.537   5.842  15.330  0.00  0.00    +0.000 OA
ENDBRANCH  22  25
ENDBRANCH   6  21
BRANCH   1  31
ATOM     30  C   UNL     1       1.987   5.026  20.353  0.00  0.00    +0.000 C 
ATOM     31  O   UNL     1       2.982   6.015  20.050  0.00  0.00    +0.000 OA
ENDBRANCH   1  31
TORSDOF 5
ENDMDL
MODEL 7
REMARK VINA RESULT:      -7.6      2.360      2.620
REMARK  Name = 
REMARK  7 active torsions:
REMARK  status: ('A' for Active; 'I' for Inactive)
REMARK    1  A    between atoms: C_1  and  O_2
REMARK    2  A    between atoms: O_2  and  C_3
REMARK    3  A    between atoms: C_5  and  N_6
REMARK    4  A    between atoms: C_7  and  C_9
REMARK    5  A    between atoms: C_17  and  C_18
REMARK    6  A    between atoms: C_21  and  N_22
REMARK    7  A    between atoms: C_23  and  C_25
REMARK                            x       y       z     vdW  Elec       q    Type
REMARK                         _______ _______ _______ _____ _____    ______ ____
ROOT
ATOM      1  C   UNL     1      -1.363  10.764  18.089  0.00  0.00    +0.000 A 
ATOM      2  C   UNL     1      -0.499   9.699  17.801  0.00  0.00    +0.000 A 
ATOM      3  C   UNL     1       0.834   9.709  18.202  0.00  0.00    +0.000 A 
ATOM      4  C   UNL     1       1.294  10.787  18.954  0.00  0.00    +0.000 A 
ATOM      5  C   UNL     1       0.423  11.830  19.302  0.00  0.00    +0.000 A 
ATOM      6  C   UNL     1      -0.914  11.830  18.889  0.00  0.00    +0.000 A 
ENDROOT
BRANCH   3   7
ATOM      7  N   UNL     1       1.732   8.671  17.885  0.00  0.00    +0.000 N 
ATOM      8  C   UNL     1       2.284   7.749  18.764  0.00  0.00    +0.000 C 
ATOM      9  O   UNL     1       2.012   7.660  19.958  0.00  0.00    +0.000 OA
ATOM     10  H   UNL     1       1.969   8.534  16.907  0.00  0.00    +0.000 HD
BRANCH   8  11
ATOM     11  C   UNL     1       3.199   6.822  18.127  0.00  0.00    +0.000 A 
ATOM     12  O   UNL     1       4.434   7.272  17.735  0.00  0.00    +0.000 OA
ATOM     13  C   UNL     1       5.046   6.249  17.089  0.00  0.00    +0.000 A 
ATOM     14  C   UNL     1       6.325   6.288  16.551  0.00  0.00    +0.000 A 
ATOM     15  C   UNL     1       6.733   5.161  15.833  0.00  0.00    +0.000 A 
ATOM     16  C   UNL     1       5.885   4.064  15.669  0.00  0.00    +0.000 A 
ATOM     17  C   UNL     1       4.621   4.029  16.276  0.00  0.00    +0.000 A 
ATOM     18  C   UNL     1       4.203   5.144  17.028  0.00  0.00    +0.000 A 
ATOM     19  C   UNL     1       3.061   5.475  17.814  0.00  0.00    +0.000 A 
ATOM     20  C   UNL     1       1.943   4.586  18.219  0.00  0.00    +0.000 C 
ENDBRANCH   8  11
ENDBRANCH   3   7
BRANCH   6  21
ATOM     21  N   UNL     1      -1.837  12.833  19.275  0.00  0.00    +0.000 N 
ATOM     22  C   UNL     1      -2.464  12.955  20.505  0.00  0.00    +0.000 C 
ATOM     23  O   UNL     1      -2.181  12.287  21.502  0.00  0.00    +0.000 OA
ATOM     24  H   UNL     1      -2.050  13.537  18.572  0.00  0.00    +0.000 HD
BRANCH  22  25
ATOM     25  C   UNL     1      -3.506  13.965  20.567  0.00  0.00    +0.000 A 
ATOM     26  C   UNL     1      -3.417  15.310  20.880  0.00  0.00    +0.000 A 
ATOM     27  C   UNL     1      -4.729  15.834  20.833  0.00  0.00    +0.000 A 
ATOM     28  C   UNL     1      -5.546  14.779  20.497  0.00  0.00    +0.000 A 
ATOM     29  O   UNL     1      -4.817  13.641  20.327  0.00  0.00    +0.000 OA
ENDBRANCH  22  25
ENDBRANCH   6  21
BRANCH   1  31
ATOM     30  C   UNL     1      -2.739  10.706  16.172  0.00  0.00    +0.000 C 
ATOM     31  O   UNL     1      -2.651  10.811  17.601  0.00  0.00    +0.000 OA
ENDBRANCH   1  31
TORSDOF 5
ENDMDL
MODEL 8
REMARK VINA RESULT:      -7.6      1.899     10.480
REMARK  Name = 
REMARK  7 active torsions:
REMARK  status: ('A' for Active; 'I' for Inactive)
REMARK    1  A    between atoms: C_1  and  O_2
REMARK    2  A    between atoms: O_2  and  C_3
REMARK    3  A    between atoms: C_5  and  N_6
REMARK    4  A    between atoms: C_7  and  C_9
REMARK    5  A    between atoms: C_17  and  C_18
REMARK    6  A    between atoms: C_21  and  N_22
REMARK    7  A    between atoms: C_23  and  C_25
REMARK                            x       y       z     vdW  Elec       q    Type
REMARK                         _______ _______ _______ _____ _____    ______ ____
ROOT
ATOM      1  C   UNL     1       2.452   7.212  19.447  0.00  0.00    +0.000 A 
ATOM      2  C   UNL     1       1.585   8.104  20.092  0.00  0.00    +0.000 A 
ATOM      3  C   UNL     1       1.188   9.298  19.497  0.00  0.00    +0.000 A 
ATOM      4  C   UNL     1       1.629   9.576  18.206  0.00  0.00    +0.000 A 
ATOM      5  C   UNL     1       2.447   8.661  17.525  0.00  0.00    +0.000 A 
ATOM      6  C   UNL     1       2.859   7.467  18.126  0.00  0.00    +0.000 A 
ENDROOT
BRANCH   3   7
ATOM      7  N   UNL     1       0.353  10.230  20.144  0.00  0.00    +0.000 N 
ATOM      8  C   UNL     1       0.621  11.574  20.367  0.00  0.00    +0.000 C 
ATOM      9  O   UNL     1       1.614  12.173  19.965  0.00  0.00    +0.000 OA
ATOM     10  H   UNL     1      -0.566   9.916  20.437  0.00  0.00    +0.000 HD
BRANCH   8  11
ATOM     11  C   UNL     1      -0.433  12.259  21.089  0.00  0.00    +0.000 A 
ATOM     12  O   UNL     1      -0.131  12.878  22.276  0.00  0.00    +0.000 OA
ATOM     13  C   UNL     1      -1.295  13.351  22.787  0.00  0.00    +0.000 A 
ATOM     14  C   UNL     1      -1.421  14.061  23.973  0.00  0.00    +0.000 A 
ATOM     15  C   UNL     1      -2.723  14.370  24.378  0.00  0.00    +0.000 A 
ATOM     16  C   UNL     1      -3.827  13.972  23.621  0.00  0.00    +0.000 A 
ATOM     17  C   UNL     1      -3.664  13.309  22.397  0.00  0.00    +0.000 A 
ATOM     18  C   UNL     1      -2.359  13.014  21.958  0.00  0.00    +0.000 A 
ATOM     19  C   UNL     1      -1.782  12.422  20.796  0.00  0.00    +0.000 A 
ATOM     20  C   UNL     1      -2.461  12.044  19.531  0.00  0.00    +0.000 C 
ENDBRANCH   8  11
ENDBRANCH   3   7
BRANCH   6  21
ATOM     21  N   UNL     1       3.632   6.492  17.447  0.00  0.00    +0.000 N 
ATOM     22  C   UNL     1       4.976   6.580  17.116  0.00  0.00    +0.000 C 
ATOM     23  O   UNL     1       5.735   7.467  17.512  0.00  0.00    +0.000 OA
ATOM     24  H   UNL     1       3.143   5.639  17.185  0.00  0.00    +0.000 HD
BRANCH  22  25
ATOM     25  C   UNL     1       5.467   5.520  16.253  0.00  0.00    +0.000 A 
ATOM     26  C   UNL     1       5.117   4.182  16.210  0.00  0.00    +0.000 A 
ATOM     27  C   UNL     1       5.919   3.576  15.216  0.00  0.00    +0.000 A 
ATOM     28  C   UNL     1       6.717   4.578  14.711  0.00  0.00    +0.000 A 
ATOM     29  O   UNL     1       6.449   5.763  15.327  0.00  0.00    +0.000 OA
ENDBRANCH  22  25
ENDBRANCH   6  21
BRANCH   1  31
ATOM     30  C   UNL     1       1.913   5.228  20.607  0.00  0.00    +0.000 C 
ATOM     31  O   UNL     1       2.935   6.083  20.074  0.00  0.00    +0.000 OA
ENDBRANCH   1  31
TORSDOF 5
ENDMDL
MODEL 9
REMARK VINA RESULT:      -7.6      1.290      1.847
REMARK  Name = 
REMARK  7 active torsions:
REMARK  status: ('A' for Active; 'I' for Inactive)
REMARK    1  A    between atoms: C_1  and  O_2
REMARK    2  A    between atoms: O_2  and  C_3
REMARK    3  A    between atoms: C_5  and  N_6
REMARK    4  A    between atoms: C_7  and  C_9
REMARK    5  A    between atoms: C_17  and  C_18
REMARK    6  A    between atoms: C_21  and  N_22
REMARK    7  A    between atoms: C_23  and  C_25
REMARK                            x       y       z     vdW  Elec       q    Type
REMARK                         _______ _______ _______ _____ _____    ______ ____
ROOT
ATOM      1  C   UNL     1       0.036   9.541  21.090  0.00  0.00    +0.000 A 
ATOM      2  C   UNL     1       0.929   8.631  20.508  0.00  0.00    +0.000 A 
ATOM      3  C   UNL     1       1.465   8.840  19.241  0.00  0.00    +0.000 A 
ATOM      4  C   UNL     1       1.140  10.013  18.566  0.00  0.00    +0.000 A 
ATOM      5  C   UNL     1       0.296  10.962  19.164  0.00  0.00    +0.000 A 
ATOM      6  C   UNL     1      -0.257  10.748  20.432  0.00  0.00    +0.000 A 
ENDROOT
BRANCH   3   7
ATOM      7  N   UNL     1       2.329   7.918  18.619  0.00  0.00    +0.000 N 
ATOM      8  C   UNL     1       2.652   6.643  19.067  0.00  0.00    +0.000 C 
ATOM      9  O   UNL     1       2.168   6.099  20.055  0.00  0.00    +0.000 OA
ATOM     10  H   UNL     1       2.725   8.174  17.720  0.00  0.00    +0.000 HD
BRANCH   8  11
ATOM     11  C   UNL     1       3.596   5.954  18.211  0.00  0.00    +0.000 A 
ATOM     12  O   UNL     1       4.848   6.489  18.036  0.00  0.00    +0.000 OA
ATOM     13  C   UNL     1       5.491   5.714  17.128  0.00  0.00    +0.000 A 
ATOM     14  C   UNL     1       6.793   5.906  16.687  0.00  0.00    +0.000 A 
ATOM     15  C   UNL     1       7.236   5.058  15.668  0.00  0.00    +0.000 A 
ATOM     16  C   UNL     1       6.398   4.079  15.129  0.00  0.00    +0.000 A 
ATOM     17  C   UNL     1       5.108   3.870  15.638  0.00  0.00    +0.000 A 
ATOM     18  C   UNL     1       4.654   4.696  16.684  0.00  0.00    +0.000 A 
ATOM     19  C   UNL     1       3.476   4.777  17.483  0.00  0.00    +0.000 A 
ATOM     20  C   UNL     1       2.342   3.818  17.537  0.00  0.00    +0.000 C 
ENDBRANCH   8  11
ENDBRANCH   3   7
BRANCH   6  21
ATOM     21  N   UNL     1      -1.060  11.711  21.092  0.00  0.00    +0.000 N 
ATOM     22  C   UNL     1      -0.617  12.765  21.876  0.00  0.00    +0.000 C 
ATOM     23  O   UNL     1       0.562  13.109  21.982  0.00  0.00    +0.000 OA
ATOM     24  H   UNL     1      -2.065  11.616  20.965  0.00  0.00    +0.000 HD
BRANCH  22  25
ATOM     25  C   UNL     1      -1.661  13.484  22.586  0.00  0.00    +0.000 A 
ATOM     26  C   UNL     1      -1.592  14.205  23.765  0.00  0.00    +0.000 A 
ATOM     27  C   UNL     1      -2.898  14.672  24.041  0.00  0.00    +0.000 A 
ATOM     28  C   UNL     1      -3.691  14.206  23.017  0.00  0.00    +0.000 A 
ATOM     29  O   UNL     1      -2.952  13.489  22.125  0.00  0.00    +0.000 OA
ENDBRANCH  22  25
ENDBRANCH   6  21
BRANCH   1  31
ATOM     30  C   UNL     1       0.265   9.472  23.438  0.00  0.00    +0.000 C 
ATOM     31  O   UNL     1      -0.583   9.287  22.295  0.00  0.00    +0.000 OA
ENDBRANCH   1  31
TORSDOF 5
ENDMDL
