MODEL 1
REMARK VINA RESULT:      -6.3      0.000      0.000
REMARK  Name = 
REMARK  5 active torsions:
REMARK  status: ('A' for Active; 'I' for Inactive)
REMARK    1  A    between atoms: C_1  and  N_2
REMARK    2  A    between atoms: N_5  and  C_6
REMARK    3  A    between atoms: C_6  and  C_7
REMARK    4  A    between atoms: C_13  and  S_14
REMARK    5  A    between atoms: S_14  and  N_15
REMARK                            x       y       z     vdW  Elec       q    Type
REMARK                         _______ _______ _______ _____ _____    ______ ____
ROOT
ATOM      1  C   UNL     1       1.923   6.559  20.249  0.00  0.00    +0.000 C 
ATOM      2  O   UNL     1       1.972   5.497  20.860  0.00  0.00    +0.000 OA
ATOM      3  N   UNL     1       2.750   6.940  19.215  0.00  0.00    +0.000 N 
ATOM      4  C   UNL     1       3.608   6.040  18.642  0.00  0.00    +0.000 A 
ATOM      5  N   UNL     1       3.683   4.741  18.827  0.00  0.00    +0.000 NA
ATOM      6  N   UNL     1       4.711   4.174  18.103  0.00  0.00    +0.000 NA
ATOM      7  C   UNL     1       5.365   5.093  17.425  0.00  0.00    +0.000 A 
ATOM      8  S   UNL     1       4.739   6.678  17.529  0.00  0.00    +0.000 S 
ATOM      9  H   UNL     1       2.689   7.883  18.853  0.00  0.00    +0.000 HD
ENDROOT
BRANCH   7  10
ATOM     10  S   UNL     1       6.824   4.778  16.494  0.00  0.00    +0.000 S 
ATOM     11  O   UNL     1       6.479   3.729  15.559  0.00  0.00    +0.000 OA
ATOM     12  O   UNL     1       7.316   6.071  16.081  0.00  0.00    +0.000 OA
BRANCH  10  13
ATOM     13  N   UNL     1       7.972   4.136  17.560  0.00  0.00    +0.000 NA
ATOM     14  H   UNL     1       8.617   4.856  17.887  0.00  0.00    +0.000 HD
ATOM     15  H   UNL     1       8.452   3.338  17.142  0.00  0.00    +0.000 HD
ENDBRANCH  10  13
ENDBRANCH   7  10
BRANCH   1  16
ATOM     16  C   UNL     1       0.929   7.645  20.676  0.00  0.00    +0.000 C 
BRANCH  16  21
ATOM     17  C   UNL     1      -1.549  11.082  23.122  0.00  0.00    +0.000 C 
ATOM     18  N   UNL     1      -0.283  10.713  22.498  0.00  0.00    +0.000 NA
ATOM     19  C   UNL     1      -0.446  10.491  21.053  0.00  0.00    +0.000 C 
ATOM     20  C   UNL     1       0.890  10.088  20.383  0.00  0.00    +0.000 C 
ATOM     21  N   UNL     1       1.601   8.927  20.984  0.00  0.00    +0.000 NA
ATOM     22  C   UNL     1       1.648   9.131  22.457  0.00  0.00    +0.000 C 
ATOM     23  C   UNL     1       0.301   9.516  23.124  0.00  0.00    +0.000 C 
ENDBRANCH  16  21
ENDBRANCH   1  16
TORSDOF 4
ENDMDL
MODEL 2
REMARK VINA RESULT:      -6.2      3.143      3.910
REMARK  Name = 
REMARK  5 active torsions:
REMARK  status: ('A' for Active; 'I' for Inactive)
REMARK    1  A    between atoms: C_1  and  N_2
REMARK    2  A    between atoms: N_5  and  C_6
REMARK    3  A    between atoms: C_6  and  C_7
REMARK    4  A    between atoms: C_13  and  S_14
REMARK    5  A    between atoms: S_14  and  N_15
REMARK                            x       y       z     vdW  Elec       q    Type
REMARK                         _______ _______ _______ _____ _____    ______ ____
ROOT
ATOM      1  C   UNL     1       2.149   8.646  18.256  0.00  0.00    +0.000 C 
ATOM      2  O   UNL     1       2.694   8.444  17.176  0.00  0.00    +0.000 OA
ATOM      3  N   UNL     1       1.992   7.727  19.271  0.00  0.00    +0.000 N 
ATOM      4  C   UNL     1       2.630   6.518  19.220  0.00  0.00    +0.000 A 
ATOM      5  N   UNL     1       3.548   6.106  18.374  0.00  0.00    +0.000 NA
ATOM      6  N   UNL     1       3.923   4.799  18.613  0.00  0.00    +0.000 NA
ATOM      7  C   UNL     1       3.243   4.297  19.621  0.00  0.00    +0.000 A 
ATOM      8  S   UNL     1       2.184   5.377  20.413  0.00  0.00    +0.000 S 
ATOM      9  H   UNL     1       1.433   7.972  20.078  0.00  0.00    +0.000 HD
ENDROOT
BRANCH   7  10
ATOM     10  S   UNL     1       3.342   2.618  20.136  0.00  0.00    +0.000 S 
ATOM     11  O   UNL     1       3.089   2.624  21.560  0.00  0.00    +0.000 OA
ATOM     12  O   UNL     1       2.540   1.869  19.197  0.00  0.00    +0.000 OA
BRANCH  10  13
ATOM     13  N   UNL     1       4.945   2.119  19.917  0.00  0.00    +0.000 NA
ATOM     14  H   UNL     1       5.095   1.760  18.973  0.00  0.00    +0.000 HD
ATOM     15  H   UNL     1       5.222   1.454  20.640  0.00  0.00    +0.000 HD
ENDBRANCH  10  13
ENDBRANCH   7  10
BRANCH   1  16
ATOM     16  C   UNL     1       1.485   9.998  18.539  0.00  0.00    +0.000 C 
BRANCH  16  21
ATOM     17  C   UNL     1      -0.924  14.046  19.861  0.00  0.00    +0.000 C 
ATOM     18  N   UNL     1      -0.762  12.610  20.065  0.00  0.00    +0.000 NA
ATOM     19  C   UNL     1       0.587  12.292  20.556  0.00  0.00    +0.000 C 
ATOM     20  C   UNL     1       0.773  10.769  20.765  0.00  0.00    +0.000 C 
ATOM     21  N   UNL     1       0.455   9.903  19.598  0.00  0.00    +0.000 NA
ATOM     22  C   UNL     1      -0.864  10.328  19.059  0.00  0.00    +0.000 C 
ATOM     23  C   UNL     1      -1.037  11.853  18.834  0.00  0.00    +0.000 C 
ENDBRANCH  16  21
ENDBRANCH   1  16
TORSDOF 4
ENDMDL
MODEL 3
REMARK VINA RESULT:      -6.2      7.028      8.662
REMARK  Name = 
REMARK  5 active torsions:
REMARK  status: ('A' for Active; 'I' for Inactive)
REMARK    1  A    between atoms: C_1  and  N_2
REMARK    2  A    between atoms: N_5  and  C_6
REMARK    3  A    between atoms: C_6  and  C_7
REMARK    4  A    between atoms: C_13  and  S_14
REMARK    5  A    between atoms: S_14  and  N_15
REMARK                            x       y       z     vdW  Elec       q    Type
REMARK                         _______ _______ _______ _____ _____    ______ ____
ROOT
ATOM      1  C   UNL     1       8.980  10.410  18.635  0.00  0.00    +0.000 C 
ATOM      2  O   UNL     1       8.238  10.975  17.839  0.00  0.00    +0.000 OA
ATOM      3  N   UNL     1       8.943   9.074  18.972  0.00  0.00    +0.000 N 
ATOM      4  C   UNL     1       8.159   8.200  18.269  0.00  0.00    +0.000 A 
ATOM      5  N   UNL     1       7.494   8.404  17.155  0.00  0.00    +0.000 NA
ATOM      6  N   UNL     1       6.776   7.291  16.769  0.00  0.00    +0.000 NA
ATOM      7  C   UNL     1       6.931   6.314  17.637  0.00  0.00    +0.000 A 
ATOM      8  S   UNL     1       8.019   6.623  18.915  0.00  0.00    +0.000 S 
ATOM      9  H   UNL     1       9.535   8.735  19.720  0.00  0.00    +0.000 HD
ENDROOT
BRANCH   7  10
ATOM     10  S   UNL     1       6.065   4.784  17.562  0.00  0.00    +0.000 S 
ATOM     11  O   UNL     1       6.501   4.025  18.713  0.00  0.00    +0.000 OA
ATOM     12  O   UNL     1       4.683   5.124  17.319  0.00  0.00    +0.000 OA
BRANCH  10  13
ATOM     13  N   UNL     1       6.615   3.963  16.187  0.00  0.00    +0.000 NA
ATOM     14  H   UNL     1       7.480   3.456  16.379  0.00  0.00    +0.000 HD
ATOM     15  H   UNL     1       6.699   4.598  15.392  0.00  0.00    +0.000 HD
ENDBRANCH  10  13
ENDBRANCH   7  10
BRANCH   1  16
ATOM     16  C   UNL     1      10.014  11.218  19.427  0.00  0.00    +0.000 C 
BRANCH  16  21
ATOM     17  C   UNL     1      12.184  15.445  18.260  0.00  0.00    +0.000 C 
ATOM     18  N   UNL     1      12.292  13.990  18.274  0.00  0.00    +0.000 NA
ATOM     19  C   UNL     1      11.252  13.372  17.437  0.00  0.00    +0.000 C 
ATOM     20  C   UNL     1      11.351  11.827  17.452  0.00  0.00    +0.000 C 
ATOM     21  N   UNL     1      11.352  11.183  18.795  0.00  0.00    +0.000 NA
ATOM     22  C   UNL     1      12.333  11.906  19.648  0.00  0.00    +0.000 C 
ATOM     23  C   UNL     1      12.216  13.453  19.642  0.00  0.00    +0.000 C 
ENDBRANCH  16  21
ENDBRANCH   1  16
TORSDOF 4
ENDMDL
MODEL 4
REMARK VINA RESULT:      -6.2      3.167      3.976
REMARK  Name = 
REMARK  5 active torsions:
REMARK  status: ('A' for Active; 'I' for Inactive)
REMARK    1  A    between atoms: C_1  and  N_2
REMARK    2  A    between atoms: N_5  and  C_6
REMARK    3  A    between atoms: C_6  and  C_7
REMARK    4  A    between atoms: C_13  and  S_14
REMARK    5  A    between atoms: S_14  and  N_15
REMARK                            x       y       z     vdW  Elec       q    Type
REMARK                         _______ _______ _______ _____ _____    ______ ____
ROOT
ATOM      1  C   UNL     1       2.144   8.662  18.221  0.00  0.00    +0.000 C 
ATOM      2  O   UNL     1       2.693   8.438  17.147  0.00  0.00    +0.000 OA
ATOM      3  N   UNL     1       1.978   7.762  19.252  0.00  0.00    +0.000 N 
ATOM      4  C   UNL     1       2.608   6.548  19.224  0.00  0.00    +0.000 A 
ATOM      5  N   UNL     1       3.527   6.116  18.390  0.00  0.00    +0.000 NA
ATOM      6  N   UNL     1       3.894   4.812  18.653  0.00  0.00    +0.000 NA
ATOM      7  C   UNL     1       3.206   4.331  19.667  0.00  0.00    +0.000 A 
ATOM      8  S   UNL     1       2.150   5.431  20.435  0.00  0.00    +0.000 S 
ATOM      9  H   UNL     1       1.416   8.024  20.052  0.00  0.00    +0.000 HD
ENDROOT
BRANCH   7  10
ATOM     10  S   UNL     1       3.293   2.661  20.212  0.00  0.00    +0.000 S 
ATOM     11  O   UNL     1       2.329   1.934  19.416  0.00  0.00    +0.000 OA
ATOM     12  O   UNL     1       4.698   2.329  20.245  0.00  0.00    +0.000 OA
BRANCH  10  13
ATOM     13  N   UNL     1       2.745   2.625  21.813  0.00  0.00    +0.000 NA
ATOM     14  H   UNL     1       1.868   3.139  21.916  0.00  0.00    +0.000 HD
ATOM     15  H   UNL     1       3.469   2.951  22.454  0.00  0.00    +0.000 HD
ENDBRANCH  10  13
ENDBRANCH   7  10
BRANCH   1  16
ATOM     16  C   UNL     1       1.487  10.023  18.478  0.00  0.00    +0.000 C 
BRANCH  16  21
ATOM     17  C   UNL     1      -0.858  14.118  19.767  0.00  0.00    +0.000 C 
ATOM     18  N   UNL     1      -0.733  12.679  19.967  0.00  0.00    +0.000 NA
ATOM     19  C   UNL     1       0.598  12.327  20.486  0.00  0.00    +0.000 C 
ATOM     20  C   UNL     1       0.745  10.800  20.692  0.00  0.00    +0.000 C 
ATOM     21  N   UNL     1       0.432   9.946  19.513  0.00  0.00    +0.000 NA
ATOM     22  C   UNL     1      -0.865  10.403  18.948  0.00  0.00    +0.000 C 
ATOM     23  C   UNL     1      -0.998  11.934  18.726  0.00  0.00    +0.000 C 
ENDBRANCH  16  21
ENDBRANCH   1  16
TORSDOF 4
ENDMDL
MODEL 5
REMARK VINA RESULT:      -6.1      2.121      2.394
REMARK  Name = 
REMARK  5 active torsions:
REMARK  status: ('A' for Active; 'I' for Inactive)
REMARK    1  A    between atoms: C_1  and  N_2
REMARK    2  A    between atoms: N_5  and  C_6
REMARK    3  A    between atoms: C_6  and  C_7
REMARK    4  A    between atoms: C_13  and  S_14
REMARK    5  A    between atoms: S_14  and  N_15
REMARK                            x       y       z     vdW  Elec       q    Type
REMARK                         _______ _______ _______ _____ _____    ______ ____
ROOT
ATOM      1  C   UNL     1       2.187   7.691  19.198  0.00  0.00    +0.000 C 
ATOM      2  O   UNL     1       2.051   6.727  19.945  0.00  0.00    +0.000 OA
ATOM      3  N   UNL     1       3.087   7.793  18.159  0.00  0.00    +0.000 N 
ATOM      4  C   UNL     1       3.799   6.700  17.746  0.00  0.00    +0.000 A 
ATOM      5  N   UNL     1       3.660   5.443  18.103  0.00  0.00    +0.000 NA
ATOM      6  N   UNL     1       4.598   4.627  17.504  0.00  0.00    +0.000 NA
ATOM      7  C   UNL     1       5.406   5.331  16.740  0.00  0.00    +0.000 A 
ATOM      8  S   UNL     1       5.042   6.993  16.609  0.00  0.00    +0.000 S 
ATOM      9  H   UNL     1       3.186   8.675  17.674  0.00  0.00    +0.000 HD
ENDROOT
BRANCH   7  10
ATOM     10  S   UNL     1       6.814   4.666  15.921  0.00  0.00    +0.000 S 
ATOM     11  O   UNL     1       6.353   3.472  15.247  0.00  0.00    +0.000 OA
ATOM     12  O   UNL     1       7.428   5.775  15.229  0.00  0.00    +0.000 OA
BRANCH  10  13
ATOM     13  N   UNL     1       7.905   4.172  17.118  0.00  0.00    +0.000 NA
ATOM     14  H   UNL     1       8.738   4.763  17.127  0.00  0.00    +0.000 HD
ATOM     15  H   UNL     1       8.126   3.180  17.023  0.00  0.00    +0.000 HD
ENDBRANCH  10  13
ENDBRANCH   7  10
BRANCH   1  16
ATOM     16  C   UNL     1       1.373   8.968  19.436  0.00  0.00    +0.000 C 
BRANCH  16  21
ATOM     17  C   UNL     1      -1.117  13.175  19.642  0.00  0.00    +0.000 C 
ATOM     18  N   UNL     1      -0.406  12.227  18.790  0.00  0.00    +0.000 NA
ATOM     19  C   UNL     1      -1.065  10.912  18.793  0.00  0.00    +0.000 C 
ATOM     20  C   UNL     1      -0.313   9.895  17.900  0.00  0.00    +0.000 C 
ATOM     21  N   UNL     1       1.138   9.721  18.183  0.00  0.00    +0.000 NA
ATOM     22  C   UNL     1       1.750  11.073  18.285  0.00  0.00    +0.000 C 
ATOM     23  C   UNL     1       1.000  12.081  19.196  0.00  0.00    +0.000 C 
ENDBRANCH  16  21
ENDBRANCH   1  16
TORSDOF 4
ENDMDL
MODEL 6
REMARK VINA RESULT:      -6.1      1.889      2.426
REMARK  Name = 
REMARK  5 active torsions:
REMARK  status: ('A' for Active; 'I' for Inactive)
REMARK    1  A    between atoms: C_1  and  N_2
REMARK    2  A    between atoms: N_5  and  C_6
REMARK    3  A    between atoms: C_6  and  C_7
REMARK    4  A    between atoms: C_13  and  S_14
REMARK    5  A    between atoms: S_14  and  N_15
REMARK                            x       y       z     vdW  Elec       q    Type
REMARK                         _______ _______ _______ _____ _____    ______ ____
ROOT
ATOM      1  C   UNL     1       2.088   8.366  18.746  0.00  0.00    +0.000 C 
ATOM      2  O   UNL     1       2.031   7.691  19.768  0.00  0.00    +0.000 OA
ATOM      3  N   UNL     1       2.947   8.166  17.687  0.00  0.00    +0.000 N 
ATOM      4  C   UNL     1       3.708   7.031  17.614  0.00  0.00    +0.000 A 
ATOM      5  N   UNL     1       3.652   5.952  18.362  0.00  0.00    +0.000 NA
ATOM      6  N   UNL     1       4.616   5.028  18.013  0.00  0.00    +0.000 NA
ATOM      7  C   UNL     1       5.358   5.482  17.025  0.00  0.00    +0.000 A 
ATOM      8  S   UNL     1       4.896   6.995  16.384  0.00  0.00    +0.000 S 
ATOM      9  H   UNL     1       2.981   8.848  16.941  0.00  0.00    +0.000 HD
ENDROOT
BRANCH   7  10
ATOM     10  S   UNL     1       6.776   4.651  16.397  0.00  0.00    +0.000 S 
ATOM     11  O   UNL     1       6.276   3.481  15.709  0.00  0.00    +0.000 OA
ATOM     12  O   UNL     1       7.574   5.666  15.749  0.00  0.00    +0.000 OA
BRANCH  10  13
ATOM     13  N   UNL     1       7.668   4.103  17.728  0.00  0.00    +0.000 NA
ATOM     14  H   UNL     1       7.157   4.245  18.600  0.00  0.00    +0.000 HD
ATOM     15  H   UNL     1       8.597   4.527  17.742  0.00  0.00    +0.000 HD
ENDBRANCH  10  13
ENDBRANCH   7  10
BRANCH   1  16
ATOM     16  C   UNL     1       1.210   9.614  18.600  0.00  0.00    +0.000 C 
BRANCH  16  21
ATOM     17  C   UNL     1      -0.614  14.065  19.495  0.00  0.00    +0.000 C 
ATOM     18  N   UNL     1      -0.576  12.665  19.905  0.00  0.00    +0.000 NA
ATOM     19  C   UNL     1       0.781  12.266  20.308  0.00  0.00    +0.000 C 
ATOM     20  C   UNL     1       0.835  10.779  20.735  0.00  0.00    +0.000 C 
ATOM     21  N   UNL     1       0.301   9.795  19.754  0.00  0.00    +0.000 NA
ATOM     22  C   UNL     1      -1.021  10.288  19.285  0.00  0.00    +0.000 C 
ATOM     23  C   UNL     1      -1.063  11.774  18.840  0.00  0.00    +0.000 C 
ENDBRANCH  16  21
ENDBRANCH   1  16
TORSDOF 4
ENDMDL
MODEL 7
REMARK VINA RESULT:      -6.1      2.260      2.861
REMARK  Name = 
REMARK  5 active torsions:
REMARK  status: ('A' for Active; 'I' for Inactive)
REMARK    1  A    between atoms: C_1  and  N_2
REMARK    2  A    between atoms: N_5  and  C_6
REMARK    3  A    between atoms: C_6  and  C_7
REMARK    4  A    between atoms: C_13  and  S_14
REMARK    5  A    between atoms: S_14  and  N_15
REMARK                            x       y       z     vdW  Elec       q    Type
REMARK                         _______ _______ _______ _____ _____    ______ ____
ROOT
ATOM      1  C   UNL     1       1.884   8.528  18.720  0.00  0.00    +0.000 C 
ATOM      2  O   UNL     1       1.874   8.008  19.831  0.00  0.00    +0.000 OA
ATOM      3  N   UNL     1       2.759   8.237  17.696  0.00  0.00    +0.000 N 
ATOM      4  C   UNL     1       3.601   7.161  17.784  0.00  0.00    +0.000 A 
ATOM      5  N   UNL     1       3.622   6.204  18.684  0.00  0.00    +0.000 NA
ATOM      6  N   UNL     1       4.652   5.311  18.466  0.00  0.00    +0.000 NA
ATOM      7  C   UNL     1       5.362   5.667  17.417  0.00  0.00    +0.000 A 
ATOM      8  S   UNL     1       4.791   7.032  16.563  0.00  0.00    +0.000 S 
ATOM      9  H   UNL     1       2.744   8.802  16.856  0.00  0.00    +0.000 HD
ENDROOT
BRANCH   7  10
ATOM     10  S   UNL     1       6.838   4.858  16.906  0.00  0.00    +0.000 S 
ATOM     11  O   UNL     1       7.495   5.769  15.995  0.00  0.00    +0.000 OA
ATOM     12  O   UNL     1       7.457   4.368  18.115  0.00  0.00    +0.000 OA
BRANCH  10  13
ATOM     13  N   UNL     1       6.380   3.498  16.007  0.00  0.00    +0.000 NA
ATOM     14  H   UNL     1       6.120   3.755  15.053  0.00  0.00    +0.000 HD
ATOM     15  H   UNL     1       5.647   2.974  16.486  0.00  0.00    +0.000 HD
ENDBRANCH  10  13
ENDBRANCH   7  10
BRANCH   1  16
ATOM     16  C   UNL     1       0.917   9.673  18.399  0.00  0.00    +0.000 C 
BRANCH  16  21
ATOM     17  C   UNL     1      -0.254  14.406  18.801  0.00  0.00    +0.000 C 
ATOM     18  N   UNL     1      -0.337  13.081  19.406  0.00  0.00    +0.000 NA
ATOM     19  C   UNL     1       1.000  12.562  19.734  0.00  0.00    +0.000 C 
ATOM     20  C   UNL     1       0.925  11.151  20.367  0.00  0.00    +0.000 C 
ATOM     21  N   UNL     1       0.171  10.125  19.595  0.00  0.00    +0.000 NA
ATOM     22  C   UNL     1      -1.127  10.723  19.185  0.00  0.00    +0.000 C 
ATOM     23  C   UNL     1      -1.042  12.129  18.534  0.00  0.00    +0.000 C 
ENDBRANCH  16  21
ENDBRANCH   1  16
TORSDOF 4
ENDMDL
MODEL 8
REMARK VINA RESULT:      -6.0      2.764      3.588
REMARK  Name = 
REMARK  5 active torsions:
REMARK  status: ('A' for Active; 'I' for Inactive)
REMARK    1  A    between atoms: C_1  and  N_2
REMARK    2  A    between atoms: N_5  and  C_6
REMARK    3  A    between atoms: C_6  and  C_7
REMARK    4  A    between atoms: C_13  and  S_14
REMARK    5  A    between atoms: S_14  and  N_15
REMARK                            x       y       z     vdW  Elec       q    Type
REMARK                         _______ _______ _______ _____ _____    ______ ____
ROOT
ATOM      1  C   UNL     1       1.767   9.102  18.478  0.00  0.00    +0.000 C 
ATOM      2  O   UNL     1       2.087   9.132  17.295  0.00  0.00    +0.000 OA
ATOM      3  N   UNL     1       1.875   8.017  19.322  0.00  0.00    +0.000 N 
ATOM      4  C   UNL     1       2.554   6.895  18.929  0.00  0.00    +0.000 A 
ATOM      5  N   UNL     1       3.298   6.714  17.861  0.00  0.00    +0.000 NA
ATOM      6  N   UNL     1       3.787   5.426  17.782  0.00  0.00    +0.000 NA
ATOM      7  C   UNL     1       3.359   4.704  18.796  0.00  0.00    +0.000 A 
ATOM      8  S   UNL     1       2.429   5.537  19.961  0.00  0.00    +0.000 S 
ATOM      9  H   UNL     1       1.482   8.072  20.253  0.00  0.00    +0.000 HD
ENDROOT
BRANCH   7  10
ATOM     10  S   UNL     1       3.656   2.979  18.970  0.00  0.00    +0.000 S 
ATOM     11  O   UNL     1       2.708   2.511  19.956  0.00  0.00    +0.000 OA
ATOM     12  O   UNL     1       3.720   2.453  17.626  0.00  0.00    +0.000 OA
BRANCH  10  13
ATOM     13  N   UNL     1       5.201   2.799  19.639  0.00  0.00    +0.000 NA
ATOM     14  H   UNL     1       5.182   2.924  20.652  0.00  0.00    +0.000 HD
ATOM     15  H   UNL     1       5.871   3.416  19.179  0.00  0.00    +0.000 HD
ENDBRANCH  10  13
ENDBRANCH   7  10
BRANCH   1  16
ATOM     16  C   UNL     1       1.102  10.322  19.125  0.00  0.00    +0.000 C 
BRANCH  16  21
ATOM     17  C   UNL     1      -1.862  13.963  20.501  0.00  0.00    +0.000 C 
ATOM     18  N   UNL     1      -1.681  12.519  20.402  0.00  0.00    +0.000 NA
ATOM     19  C   UNL     1      -0.543  12.068  21.217  0.00  0.00    +0.000 C 
ATOM     20  C   UNL     1      -0.335  10.538  21.111  0.00  0.00    +0.000 C 
ATOM     21  N   UNL     1      -0.205   9.988  19.734  0.00  0.00    +0.000 NA
ATOM     22  C   UNL     1      -1.306  10.553  18.909  0.00  0.00    +0.000 C 
ATOM     23  C   UNL     1      -1.496  12.090  19.007  0.00  0.00    +0.000 C 
ENDBRANCH  16  21
ENDBRANCH   1  16
TORSDOF 4
ENDMDL
MODEL 9
REMARK VINA RESULT:      -6.0      4.085      8.095
REMARK  Name = 
REMARK  5 active torsions:
REMARK  status: ('A' for Active; 'I' for Inactive)
REMARK    1  A    between atoms: C_1  and  N_2
REMARK    2  A    between atoms: N_5  and  C_6
REMARK    3  A    between atoms: C_6  and  C_7
REMARK    4  A    between atoms: C_13  and  S_14
REMARK    5  A    between atoms: S_14  and  N_15
REMARK                            x       y       z     vdW  Elec       q    Type
REMARK                         _______ _______ _______ _____ _____    ______ ____
ROOT
ATOM      1  C   UNL     1       2.185   7.080  19.837  0.00  0.00    +0.000 C 
ATOM      2  O   UNL     1       1.497   6.815  20.817  0.00  0.00    +0.000 OA
ATOM      3  N   UNL     1       2.055   8.190  19.029  0.00  0.00    +0.000 N 
ATOM      4  C   UNL     1       1.231   9.221  19.391  0.00  0.00    +0.000 A 
ATOM      5  N   UNL     1       0.604   9.413  20.530  0.00  0.00    +0.000 NA
ATOM      6  N   UNL     1      -0.176  10.551  20.505  0.00  0.00    +0.000 NA
ATOM      7  C   UNL     1      -0.102  11.140  19.330  0.00  0.00    +0.000 A 
ATOM      8  S   UNL     1       0.976  10.433  18.212  0.00  0.00    +0.000 S 
ATOM      9  H   UNL     1       2.608   8.255  18.184  0.00  0.00    +0.000 HD
ENDROOT
BRANCH   7  10
ATOM     10  S   UNL     1      -1.063  12.540  18.869  0.00  0.00    +0.000 S 
ATOM     11  O   UNL     1      -2.215  12.536  19.743  0.00  0.00    +0.000 OA
ATOM     12  O   UNL     1      -0.136  13.646  18.791  0.00  0.00    +0.000 OA
BRANCH  10  13
ATOM     13  N   UNL     1      -1.629  12.266  17.298  0.00  0.00    +0.000 NA
ATOM     14  H   UNL     1      -2.643  12.373  17.245  0.00  0.00    +0.000 HD
ATOM     15  H   UNL     1      -1.310  11.361  16.948  0.00  0.00    +0.000 HD
ENDBRANCH  10  13
ENDBRANCH   7  10
BRANCH   1  16
ATOM     16  C   UNL     1       3.252   6.090  19.357  0.00  0.00    +0.000 C 
BRANCH  16  21
ATOM     17  C   UNL     1       3.622   1.311  18.376  0.00  0.00    +0.000 C 
ATOM     18  N   UNL     1       3.323   2.638  17.847  0.00  0.00    +0.000 NA
ATOM     19  C   UNL     1       4.494   3.523  17.941  0.00  0.00    +0.000 C 
ATOM     20  C   UNL     1       4.185   4.938  17.393  0.00  0.00    +0.000 C 
ATOM     21  N   UNL     1       2.999   5.622  17.976  0.00  0.00    +0.000 NA
ATOM     22  C   UNL     1       1.865   4.660  17.967  0.00  0.00    +0.000 C 
ATOM     23  C   UNL     1       2.177   3.251  18.536  0.00  0.00    +0.000 C 
ENDBRANCH  16  21
ENDBRANCH   1  16
TORSDOF 4
ENDMDL
