MODEL 1
REMARK VINA RESULT:      -7.1      0.000      0.000
REMARK  Name = 
REMARK  7 active torsions:
REMARK  status: ('A' for Active; 'I' for Inactive)
REMARK    1  A    between atoms: C_1  and  N_2
REMARK    2  A    between atoms: C_6  and  C_7
REMARK    3  A    between atoms: C_7  and  N_8
REMARK    4  A    between atoms: N_11  and  C_12
REMARK    5  A    between atoms: C_12  and  C_13
REMARK    6  A    between atoms: N_15  and  C_16
REMARK    7  A    between atoms: C_16  and  C_17
REMARK                            x       y       z     vdW  Elec       q    Type
REMARK                         _______ _______ _______ _____ _____    ______ ____
ROOT
ATOM      1  N   UNL     1       5.248   4.321  17.315  0.00  0.00    +0.000 NA
ATOM      2  C   UNL     1       4.672   5.630  16.968  0.00  0.00    +0.000 C 
ATOM      3  C   UNL     1       5.286   6.874  17.660  0.00  0.00    +0.000 C 
ATOM      4  N   UNL     1       6.739   6.905  17.906  0.00  0.00    +0.000 NA
ATOM      5  C   UNL     1       7.401   5.601  17.918  0.00  0.00    +0.000 C 
ATOM      6  C   UNL     1       6.713   4.425  17.183  0.00  0.00    +0.000 C 
ENDROOT
BRANCH   1   7
ATOM      7  C   UNL     1       4.847   3.812  18.631  0.00  0.00    +0.000 C 
BRANCH   7  13
ATOM      8  C   UNL     1       2.473   5.418  20.103  0.00  0.00    +0.000 C 
ATOM      9  N   UNL     1       2.416   4.121  19.471  0.00  0.00    +0.000 N 
ATOM     10  N   UNL     1       1.191   3.555  19.362  0.00  0.00    +0.000 NA
ATOM     11  C   UNL     1       1.366   2.558  18.502  0.00  0.00    +0.000 A 
ATOM     12  C   UNL     1       2.707   2.435  18.110  0.00  0.00    +0.000 A 
ATOM     13  C   UNL     1       3.396   3.436  18.783  0.00  0.00    +0.000 A 
ENDBRANCH   7  13
ENDBRANCH   1   7
BRANCH   4  14
ATOM     14  C   UNL     1       7.451   7.954  17.150  0.00  0.00    +0.000 C 
BRANCH  14  15
ATOM     15  C   UNL     1       8.311   8.777  18.121  0.00  0.00    +0.000 C 
ATOM     16  O   UNL     1       8.875   8.291  19.100  0.00  0.00    +0.000 OA
ATOM     17  N   UNL     1       8.384  10.109  17.765  0.00  0.00    +0.000 N 
ATOM     18  H   UNL     1       7.932  10.338  16.884  0.00  0.00    +0.000 HD
BRANCH  17  19
ATOM     19  C   UNL     1       9.252  11.128  18.383  0.00  0.00    +0.000 C 
ATOM     20  C   UNL     1       9.309  10.941  19.913  0.00  0.00    +0.000 C 
ATOM     21  C   UNL     1      10.284  11.900  20.600  0.00  0.00    +0.000 C 
ATOM     22  C   UNL     1      11.678  11.829  19.984  0.00  0.00    +0.000 C 
ATOM     23  C   UNL     1      11.646  12.055  18.476  0.00  0.00    +0.000 C 
ATOM     24  C   UNL     1      10.680  11.090  17.780  0.00  0.00    +0.000 C 
BRANCH  19  25
ATOM     25  C   UNL     1       8.641  12.459  18.077  0.00  0.00    +0.000 C 
ATOM     26  N   UNL     1       8.144  13.485  17.863  0.00  0.00    +0.000 NA
ENDBRANCH  19  25
ENDBRANCH  17  19
ENDBRANCH  14  15
ENDBRANCH   4  14
TORSDOF 6
ENDMDL
MODEL 2
REMARK VINA RESULT:      -6.8      0.734      1.253
REMARK  Name = 
REMARK  7 active torsions:
REMARK  status: ('A' for Active; 'I' for Inactive)
REMARK    1  A    between atoms: C_1  and  N_2
REMARK    2  A    between atoms: C_6  and  C_7
REMARK    3  A    between atoms: C_7  and  N_8
REMARK    4  A    between atoms: N_11  and  C_12
REMARK    5  A    between atoms: C_12  and  C_13
REMARK    6  A    between atoms: N_15  and  C_16
REMARK    7  A    between atoms: C_16  and  C_17
REMARK                            x       y       z     vdW  Elec       q    Type
REMARK                         _______ _______ _______ _____ _____    ______ ____
ROOT
ATOM      1  N   UNL     1       5.841   4.377  17.648  0.00  0.00    +0.000 NA
ATOM      2  C   UNL     1       5.208   5.535  16.997  0.00  0.00    +0.000 C 
ATOM      3  C   UNL     1       5.537   6.934  17.576  0.00  0.00    +0.000 C 
ATOM      4  N   UNL     1       6.901   7.196  18.068  0.00  0.00    +0.000 NA
ATOM      5  C   UNL     1       7.684   6.008  18.409  0.00  0.00    +0.000 C 
ATOM      6  C   UNL     1       7.284   4.659  17.763  0.00  0.00    +0.000 C 
ENDROOT
BRANCH   1   7
ATOM      7  C   UNL     1       5.246   4.006  18.936  0.00  0.00    +0.000 C 
BRANCH   7  13
ATOM      8  C   UNL     1       3.384   1.483  18.192  0.00  0.00    +0.000 C 
ATOM      9  N   UNL     1       2.974   2.811  18.583  0.00  0.00    +0.000 N 
ATOM     10  N   UNL     1       1.650   2.997  18.793  0.00  0.00    +0.000 NA
ATOM     11  C   UNL     1       1.579   4.167  19.420  0.00  0.00    +0.000 A 
ATOM     12  C   UNL     1       2.840   4.766  19.554  0.00  0.00    +0.000 A 
ATOM     13  C   UNL     1       3.744   3.891  18.964  0.00  0.00    +0.000 A 
ENDBRANCH   7  13
ENDBRANCH   1   7
BRANCH   4  14
ATOM     14  C   UNL     1       7.632   8.217  17.292  0.00  0.00    +0.000 C 
BRANCH  14  15
ATOM     15  C   UNL     1       8.475   9.070  18.252  0.00  0.00    +0.000 C 
ATOM     16  O   UNL     1       8.955   8.635  19.296  0.00  0.00    +0.000 OA
ATOM     17  N   UNL     1       8.636  10.367  17.804  0.00  0.00    +0.000 N 
ATOM     18  H   UNL     1       8.249  10.548  16.882  0.00  0.00    +0.000 HD
BRANCH  17  19
ATOM     19  C   UNL     1       9.518  11.388  18.399  0.00  0.00    +0.000 C 
ATOM     20  C   UNL     1       9.635  11.187  19.923  0.00  0.00    +0.000 C 
ATOM     21  C   UNL     1      10.626  12.149  20.582  0.00  0.00    +0.000 C 
ATOM     22  C   UNL     1      11.996  12.098  19.913  0.00  0.00    +0.000 C 
ATOM     23  C   UNL     1      11.905  12.338  18.409  0.00  0.00    +0.000 C 
ATOM     24  C   UNL     1      10.922  11.370  17.742  0.00  0.00    +0.000 C 
BRANCH  19  25
ATOM     25  C   UNL     1       8.883  12.716  18.129  0.00  0.00    +0.000 C 
ATOM     26  N   UNL     1       8.417  13.753  17.902  0.00  0.00    +0.000 NA
ENDBRANCH  19  25
ENDBRANCH  17  19
ENDBRANCH  14  15
ENDBRANCH   4  14
TORSDOF 6
ENDMDL
MODEL 3
REMARK VINA RESULT:      -6.6      1.509      2.002
REMARK  Name = 
REMARK  7 active torsions:
REMARK  status: ('A' for Active; 'I' for Inactive)
REMARK    1  A    between atoms: C_1  and  N_2
REMARK    2  A    between atoms: C_6  and  C_7
REMARK    3  A    between atoms: C_7  and  N_8
REMARK    4  A    between atoms: N_11  and  C_12
REMARK    5  A    between atoms: C_12  and  C_13
REMARK    6  A    between atoms: N_15  and  C_16
REMARK    7  A    between atoms: C_16  and  C_17
REMARK                            x       y       z     vdW  Elec       q    Type
REMARK                         _______ _______ _______ _____ _____    ______ ____
ROOT
ATOM      1  N   UNL     1       5.866   4.086  16.949  0.00  0.00    +0.000 NA
ATOM      2  C   UNL     1       6.951   4.764  16.220  0.00  0.00    +0.000 C 
ATOM      3  C   UNL     1       7.159   6.272  16.511  0.00  0.00    +0.000 C 
ATOM      4  N   UNL     1       6.963   6.764  17.885  0.00  0.00    +0.000 NA
ATOM      5  C   UNL     1       6.144   5.911  18.746  0.00  0.00    +0.000 C 
ATOM      6  C   UNL     1       6.014   4.413  18.379  0.00  0.00    +0.000 C 
ENDROOT
BRANCH   1   7
ATOM      7  C   UNL     1       4.521   4.388  16.449  0.00  0.00    +0.000 C 
BRANCH   7  13
ATOM      8  C   UNL     1       2.464   6.200  18.142  0.00  0.00    +0.000 C 
ATOM      9  N   UNL     1       2.548   4.760  18.087  0.00  0.00    +0.000 N 
ATOM     10  N   UNL     1       1.566   4.073  18.716  0.00  0.00    +0.000 NA
ATOM     11  C   UNL     1       1.697   2.829  18.267  0.00  0.00    +0.000 A 
ATOM     12  C   UNL     1       2.797   2.698  17.407  0.00  0.00    +0.000 A 
ATOM     13  C   UNL     1       3.375   3.958  17.328  0.00  0.00    +0.000 A 
ENDBRANCH   7  13
ENDBRANCH   1   7
BRANCH   4  14
ATOM     14  C   UNL     1       8.192   7.282  18.516  0.00  0.00    +0.000 C 
BRANCH  14  15
ATOM     15  C   UNL     1       8.293   8.793  18.257  0.00  0.00    +0.000 C 
ATOM     16  O   UNL     1       7.545   9.396  17.489  0.00  0.00    +0.000 OA
ATOM     17  N   UNL     1       9.303   9.389  18.986  0.00  0.00    +0.000 N 
ATOM     18  H   UNL     1       9.776   8.771  19.639  0.00  0.00    +0.000 HD
BRANCH  17  19
ATOM     19  C   UNL     1       9.558  10.837  19.094  0.00  0.00    +0.000 C 
ATOM     20  C   UNL     1      11.053  11.145  18.878  0.00  0.00    +0.000 C 
ATOM     21  C   UNL     1      11.363  12.644  18.868  0.00  0.00    +0.000 C 
ATOM     22  C   UNL     1      10.495  13.395  17.864  0.00  0.00    +0.000 C 
ATOM     23  C   UNL     1       9.009  13.137  18.090  0.00  0.00    +0.000 C 
ATOM     24  C   UNL     1       8.690  11.638  18.090  0.00  0.00    +0.000 C 
BRANCH  19  25
ATOM     25  C   UNL     1       9.173  11.240  20.484  0.00  0.00    +0.000 C 
ATOM     26  N   UNL     1       8.891  11.525  21.572  0.00  0.00    +0.000 NA
ENDBRANCH  19  25
ENDBRANCH  17  19
ENDBRANCH  14  15
ENDBRANCH   4  14
TORSDOF 6
ENDMDL
MODEL 4
REMARK VINA RESULT:      -6.5      4.991      8.551
REMARK  Name = 
REMARK  7 active torsions:
REMARK  status: ('A' for Active; 'I' for Inactive)
REMARK    1  A    between atoms: C_1  and  N_2
REMARK    2  A    between atoms: C_6  and  C_7
REMARK    3  A    between atoms: C_7  and  N_8
REMARK    4  A    between atoms: N_11  and  C_12
REMARK    5  A    between atoms: C_12  and  C_13
REMARK    6  A    between atoms: N_15  and  C_16
REMARK    7  A    between atoms: C_16  and  C_17
REMARK                            x       y       z     vdW  Elec       q    Type
REMARK                         _______ _______ _______ _____ _____    ______ ____
ROOT
ATOM      1  N   UNL     1       0.628  10.178  18.519  0.00  0.00    +0.000 NA
ATOM      2  C   UNL     1       1.199   8.987  17.869  0.00  0.00    +0.000 C 
ATOM      3  C   UNL     1       2.193   8.140  18.701  0.00  0.00    +0.000 C 
ATOM      4  N   UNL     1       1.950   7.974  20.145  0.00  0.00    +0.000 NA
ATOM      5  C   UNL     1       1.086   8.984  20.755  0.00  0.00    +0.000 C 
ATOM      6  C   UNL     1       0.114   9.765  19.839  0.00  0.00    +0.000 C 
ENDROOT
BRANCH   1   7
ATOM      7  C   UNL     1       1.548  11.315  18.615  0.00  0.00    +0.000 C 
BRANCH   7  13
ATOM      8  C   UNL     1       2.654  13.559  20.646  0.00  0.00    +0.000 C 
ATOM      9  N   UNL     1       1.406  13.549  19.921  0.00  0.00    +0.000 N 
ATOM     10  N   UNL     1       0.657  14.674  19.992  0.00  0.00    +0.000 NA
ATOM     11  C   UNL     1      -0.245  14.528  19.026  0.00  0.00    +0.000 A 
ATOM     12  C   UNL     1      -0.124  13.289  18.380  0.00  0.00    +0.000 A 
ATOM     13  C   UNL     1       0.932  12.636  19.001  0.00  0.00    +0.000 A 
ENDBRANCH   7  13
ENDBRANCH   1   7
BRANCH   4  14
ATOM     14  C   UNL     1       1.656   6.584  20.546  0.00  0.00    +0.000 C 
BRANCH  14  15
ATOM     15  C   UNL     1       2.395   5.621  19.604  0.00  0.00    +0.000 C 
ATOM     16  O   UNL     1       1.824   4.930  18.764  0.00  0.00    +0.000 OA
ATOM     17  N   UNL     1       3.762   5.630  19.804  0.00  0.00    +0.000 N 
ATOM     18  H   UNL     1       4.087   6.317  20.478  0.00  0.00    +0.000 HD
BRANCH  17  19
ATOM     19  C   UNL     1       4.767   4.953  18.965  0.00  0.00    +0.000 C 
ATOM     20  C   UNL     1       4.403   5.077  17.472  0.00  0.00    +0.000 C 
ATOM     21  C   UNL     1       5.469   4.488  16.543  0.00  0.00    +0.000 C 
ATOM     22  C   UNL     1       6.850   5.071  16.824  0.00  0.00    +0.000 C 
ATOM     23  C   UNL     1       7.245   4.919  18.290  0.00  0.00    +0.000 C 
ATOM     24  C   UNL     1       6.188   5.515  19.225  0.00  0.00    +0.000 C 
BRANCH  19  25
ATOM     25  C   UNL     1       4.749   3.507  19.353  0.00  0.00    +0.000 C 
ATOM     26  N   UNL     1       4.734   2.396  19.686  0.00  0.00    +0.000 NA
ENDBRANCH  19  25
ENDBRANCH  17  19
ENDBRANCH  14  15
ENDBRANCH   4  14
TORSDOF 6
ENDMDL
MODEL 5
REMARK VINA RESULT:      -6.4      4.964      7.663
REMARK  Name = 
REMARK  7 active torsions:
REMARK  status: ('A' for Active; 'I' for Inactive)
REMARK    1  A    between atoms: C_1  and  N_2
REMARK    2  A    between atoms: C_6  and  C_7
REMARK    3  A    between atoms: C_7  and  N_8
REMARK    4  A    between atoms: N_11  and  C_12
REMARK    5  A    between atoms: C_12  and  C_13
REMARK    6  A    between atoms: N_15  and  C_16
REMARK    7  A    between atoms: C_16  and  C_17
REMARK                            x       y       z     vdW  Elec       q    Type
REMARK                         _______ _______ _______ _____ _____    ______ ____
ROOT
ATOM      1  N   UNL     1       3.144   4.769  18.502  0.00  0.00    +0.000 NA
ATOM      2  C   UNL     1       2.271   4.245  19.565  0.00  0.00    +0.000 C 
ATOM      3  C   UNL     1       2.035   5.156  20.795  0.00  0.00    +0.000 C 
ATOM      4  N   UNL     1       1.919   6.611  20.590  0.00  0.00    +0.000 NA
ATOM      5  C   UNL     1       2.499   7.116  19.345  0.00  0.00    +0.000 C 
ATOM      6  C   UNL     1       2.678   6.128  18.168  0.00  0.00    +0.000 C 
ENDROOT
BRANCH   1   7
ATOM      7  C   UNL     1       4.574   4.739  18.824  0.00  0.00    +0.000 C 
BRANCH   7  13
ATOM      8  C   UNL     1       7.649   5.686  18.654  0.00  0.00    +0.000 C 
ATOM      9  N   UNL     1       6.814   5.169  17.595  0.00  0.00    +0.000 N 
ATOM     10  N   UNL     1       7.422   4.925  16.411  0.00  0.00    +0.000 NA
ATOM     11  C   UNL     1       6.543   4.192  15.736  0.00  0.00    +0.000 A 
ATOM     12  C   UNL     1       5.348   4.021  16.451  0.00  0.00    +0.000 A 
ATOM     13  C   UNL     1       5.518   4.701  17.650  0.00  0.00    +0.000 A 
ENDBRANCH   7  13
ENDBRANCH   1   7
BRANCH   4  14
ATOM     14  C   UNL     1       0.589   7.158  20.920  0.00  0.00    +0.000 C 
BRANCH  14  15
ATOM     15  C   UNL     1       0.731   8.647  21.273  0.00  0.00    +0.000 C 
ATOM     16  O   UNL     1       1.570   9.075  22.062  0.00  0.00    +0.000 OA
ATOM     17  N   UNL     1      -0.179   9.439  20.600  0.00  0.00    +0.000 N 
ATOM     18  H   UNL     1      -0.750   8.945  19.920  0.00  0.00    +0.000 HD
BRANCH  17  19
ATOM     19  C   UNL     1      -0.203  10.913  20.586  0.00  0.00    +0.000 C 
ATOM     20  C   UNL     1       1.158  11.476  20.130  0.00  0.00    +0.000 C 
ATOM     21  C   UNL     1       1.161  13.001  19.988  0.00  0.00    +0.000 C 
ATOM     22  C   UNL     1       0.032  13.486  19.083  0.00  0.00    +0.000 C 
ATOM     23  C   UNL     1      -1.329  12.974  19.544  0.00  0.00    +0.000 C 
ATOM     24  C   UNL     1      -1.341  11.448  19.678  0.00  0.00    +0.000 C 
BRANCH  19  25
ATOM     25  C   UNL     1      -0.468  11.353  21.991  0.00  0.00    +0.000 C 
ATOM     26  N   UNL     1      -0.672  11.726  23.070  0.00  0.00    +0.000 NA
ENDBRANCH  19  25
ENDBRANCH  17  19
ENDBRANCH  14  15
ENDBRANCH   4  14
TORSDOF 6
ENDMDL
MODEL 6
REMARK VINA RESULT:      -6.4      5.838      9.399
REMARK  Name = 
REMARK  7 active torsions:
REMARK  status: ('A' for Active; 'I' for Inactive)
REMARK    1  A    between atoms: C_1  and  N_2
REMARK    2  A    between atoms: C_6  and  C_7
REMARK    3  A    between atoms: C_7  and  N_8
REMARK    4  A    between atoms: N_11  and  C_12
REMARK    5  A    between atoms: C_12  and  C_13
REMARK    6  A    between atoms: N_15  and  C_16
REMARK    7  A    between atoms: C_16  and  C_17
REMARK                            x       y       z     vdW  Elec       q    Type
REMARK                         _______ _______ _______ _____ _____    ______ ____
ROOT
ATOM      1  N   UNL     1      -0.388  12.431  19.514  0.00  0.00    +0.000 NA
ATOM      2  C   UNL     1      -0.852  11.347  20.394  0.00  0.00    +0.000 C 
ATOM      3  C   UNL     1      -0.469   9.901  19.991  0.00  0.00    +0.000 C 
ATOM      4  N   UNL     1       0.854   9.658  19.389  0.00  0.00    +0.000 NA
ATOM      5  C   UNL     1       1.495  10.829  18.792  0.00  0.00    +0.000 C 
ATOM      6  C   UNL     1       1.053  12.231  19.276  0.00  0.00    +0.000 C 
ENDROOT
BRANCH   1   7
ATOM      7  C   UNL     1      -1.142  12.559  18.262  0.00  0.00    +0.000 C 
BRANCH   7  13
ATOM      8  C   UNL     1      -4.207  12.345  19.233  0.00  0.00    +0.000 C 
ATOM      9  N   UNL     1      -3.445  11.389  18.465  0.00  0.00    +0.000 N 
ATOM     10  N   UNL     1      -4.126  10.328  17.974  0.00  0.00    +0.000 NA
ATOM     11  C   UNL     1      -3.300   9.792  17.082  0.00  0.00    +0.000 A 
ATOM     12  C   UNL     1      -2.067  10.460  17.044  0.00  0.00    +0.000 A 
ATOM     13  C   UNL     1      -2.155  11.478  17.984  0.00  0.00    +0.000 A 
ENDBRANCH   7  13
ENDBRANCH   1   7
BRANCH   4  14
ATOM     14  C   UNL     1       1.743   8.820  20.217  0.00  0.00    +0.000 C 
BRANCH  14  15
ATOM     15  C   UNL     1       2.109   7.549  19.435  0.00  0.00    +0.000 C 
ATOM     16  O   UNL     1       2.409   7.555  18.242  0.00  0.00    +0.000 OA
ATOM     17  N   UNL     1       2.071   6.414  20.220  0.00  0.00    +0.000 N 
ATOM     18  H   UNL     1       1.888   6.586  21.205  0.00  0.00    +0.000 HD
BRANCH  17  19
ATOM     19  C   UNL     1       2.523   5.068  19.824  0.00  0.00    +0.000 C 
ATOM     20  C   UNL     1       2.314   4.062  20.974  0.00  0.00    +0.000 C 
ATOM     21  C   UNL     1       2.662   2.623  20.585  0.00  0.00    +0.000 C 
ATOM     22  C   UNL     1       1.923   2.182  19.326  0.00  0.00    +0.000 C 
ATOM     23  C   UNL     1       2.153   3.143  18.163  0.00  0.00    +0.000 C 
ATOM     24  C   UNL     1       1.796   4.584  18.543  0.00  0.00    +0.000 C 
BRANCH  19  25
ATOM     25  C   UNL     1       3.987   5.175  19.530  0.00  0.00    +0.000 C 
ATOM     26  N   UNL     1       5.124   5.278  19.327  0.00  0.00    +0.000 NA
ENDBRANCH  19  25
ENDBRANCH  17  19
ENDBRANCH  14  15
ENDBRANCH   4  14
TORSDOF 6
ENDMDL
MODEL 7
REMARK VINA RESULT:      -6.3      5.300      8.143
REMARK  Name = 
REMARK  7 active torsions:
REMARK  status: ('A' for Active; 'I' for Inactive)
REMARK    1  A    between atoms: C_1  and  N_2
REMARK    2  A    between atoms: C_6  and  C_7
REMARK    3  A    between atoms: C_7  and  N_8
REMARK    4  A    between atoms: N_11  and  C_12
REMARK    5  A    between atoms: C_12  and  C_13
REMARK    6  A    between atoms: N_15  and  C_16
REMARK    7  A    between atoms: C_16  and  C_17
REMARK                            x       y       z     vdW  Elec       q    Type
REMARK                         _______ _______ _______ _____ _____    ______ ____
ROOT
ATOM      1  N   UNL     1       3.063   5.787  18.153  0.00  0.00    +0.000 NA
ATOM      2  C   UNL     1       2.363   5.049  19.216  0.00  0.00    +0.000 C 
ATOM      3  C   UNL     1       2.142   5.791  20.559  0.00  0.00    +0.000 C 
ATOM      4  N   UNL     1       1.839   7.233  20.532  0.00  0.00    +0.000 NA
ATOM      5  C   UNL     1       2.233   7.934  19.310  0.00  0.00    +0.000 C 
ATOM      6  C   UNL     1       2.412   7.104  18.017  0.00  0.00    +0.000 C 
ENDROOT
BRANCH   1   7
ATOM      7  C   UNL     1       4.511   5.905  18.349  0.00  0.00    +0.000 C 
BRANCH   7  13
ATOM      8  C   UNL     1       7.401   7.084  17.548  0.00  0.00    +0.000 C 
ATOM      9  N   UNL     1       6.581   6.152  16.811  0.00  0.00    +0.000 N 
ATOM     10  N   UNL     1       7.139   5.597  15.709  0.00  0.00    +0.000 NA
ATOM     11  C   UNL     1       6.331   4.586  15.407  0.00  0.00    +0.000 A 
ATOM     12  C   UNL     1       5.222   4.529  16.264  0.00  0.00    +0.000 A 
ATOM     13  C   UNL     1       5.371   5.585  17.154  0.00  0.00    +0.000 A 
ENDBRANCH   7  13
ENDBRANCH   1   7
BRANCH   4  14
ATOM     14  C   UNL     1       0.492   7.570  21.032  0.00  0.00    +0.000 C 
BRANCH  14  15
ATOM     15  C   UNL     1       0.514   8.988  21.622  0.00  0.00    +0.000 C 
ATOM     16  O   UNL     1       1.315   9.347  22.482  0.00  0.00    +0.000 OA
ATOM     17  N   UNL     1      -0.453   9.806  21.072  0.00  0.00    +0.000 N 
ATOM     18  H   UNL     1      -0.982   9.386  20.313  0.00  0.00    +0.000 HD
BRANCH  17  19
ATOM     19  C   UNL     1      -0.595  11.256  21.295  0.00  0.00    +0.000 C 
ATOM     20  C   UNL     1      -1.649  11.854  20.341  0.00  0.00    +0.000 C 
ATOM     21  C   UNL     1      -1.921  13.338  20.600  0.00  0.00    +0.000 C 
ATOM     22  C   UNL     1      -2.284  13.601  22.058  0.00  0.00    +0.000 C 
ATOM     23  C   UNL     1      -1.229  13.055  23.016  0.00  0.00    +0.000 C 
ATOM     24  C   UNL     1      -0.960  11.567  22.769  0.00  0.00    +0.000 C 
BRANCH  19  25
ATOM     25  C   UNL     1       0.737  11.869  20.995  0.00  0.00    +0.000 C 
ATOM     26  N   UNL     1       1.780  12.334  20.793  0.00  0.00    +0.000 NA
ENDBRANCH  19  25
ENDBRANCH  17  19
ENDBRANCH  14  15
ENDBRANCH   4  14
TORSDOF 6
ENDMDL
MODEL 8
REMARK VINA RESULT:      -6.3      4.507      8.271
REMARK  Name = 
REMARK  7 active torsions:
REMARK  status: ('A' for Active; 'I' for Inactive)
REMARK    1  A    between atoms: C_1  and  N_2
REMARK    2  A    between atoms: C_6  and  C_7
REMARK    3  A    between atoms: C_7  and  N_8
REMARK    4  A    between atoms: N_11  and  C_12
REMARK    5  A    between atoms: C_12  and  C_13
REMARK    6  A    between atoms: N_15  and  C_16
REMARK    7  A    between atoms: C_16  and  C_17
REMARK                            x       y       z     vdW  Elec       q    Type
REMARK                         _______ _______ _______ _____ _____    ______ ____
ROOT
ATOM      1  N   UNL     1       6.302   3.840  14.851  0.00  0.00    +0.000 NA
ATOM      2  C   UNL     1       7.313   4.398  15.764  0.00  0.00    +0.000 C 
ATOM      3  C   UNL     1       7.169   5.894  16.143  0.00  0.00    +0.000 C 
ATOM      4  N   UNL     1       5.818   6.452  16.333  0.00  0.00    +0.000 NA
ATOM      5  C   UNL     1       4.735   5.701  15.698  0.00  0.00    +0.000 C 
ATOM      6  C   UNL     1       4.973   4.207  15.374  0.00  0.00    +0.000 C 
ENDROOT
BRANCH   1   7
ATOM      7  C   UNL     1       6.471   4.233  13.448  0.00  0.00    +0.000 C 
BRANCH   7  13
ATOM      8  C   UNL     1       3.954   3.338  11.646  0.00  0.00    +0.000 C 
ATOM      9  N   UNL     1       5.261   2.730  11.719  0.00  0.00    +0.000 N 
ATOM     10  N   UNL     1       5.518   1.741  10.831  0.00  0.00    +0.000 NA
ATOM     11  C   UNL     1       6.835   1.575  10.896  0.00  0.00    +0.000 A 
ATOM     12  C   UNL     1       7.418   2.402  11.868  0.00  0.00    +0.000 A 
ATOM     13  C   UNL     1       6.374   3.124  12.432  0.00  0.00    +0.000 A 
ENDBRANCH   7  13
ENDBRANCH   1   7
BRANCH   4  14
ATOM     14  C   UNL     1       5.541   6.890  17.714  0.00  0.00    +0.000 C 
BRANCH  14  15
ATOM     15  C   UNL     1       4.271   6.188  18.219  0.00  0.00    +0.000 C 
ATOM     16  O   UNL     1       3.140   6.641  18.054  0.00  0.00    +0.000 OA
ATOM     17  N   UNL     1       4.545   4.999  18.865  0.00  0.00    +0.000 N 
ATOM     18  H   UNL     1       5.522   4.721  18.846  0.00  0.00    +0.000 HD
BRANCH  17  19
ATOM     19  C   UNL     1       3.552   4.008  19.320  0.00  0.00    +0.000 C 
ATOM     20  C   UNL     1       2.677   4.591  20.448  0.00  0.00    +0.000 C 
ATOM     21  C   UNL     1       1.553   3.648  20.886  0.00  0.00    +0.000 C 
ATOM     22  C   UNL     1       0.701   3.197  19.704  0.00  0.00    +0.000 C 
ATOM     23  C   UNL     1       1.545   2.577  18.595  0.00  0.00    +0.000 C 
ATOM     24  C   UNL     1       2.665   3.521  18.145  0.00  0.00    +0.000 C 
BRANCH  19  25
ATOM     25  C   UNL     1       4.321   2.840  19.853  0.00  0.00    +0.000 C 
ATOM     26  N   UNL     1       4.922   1.952  20.294  0.00  0.00    +0.000 NA
ENDBRANCH  19  25
ENDBRANCH  17  19
ENDBRANCH  14  15
ENDBRANCH   4  14
TORSDOF 6
ENDMDL
MODEL 9
REMARK VINA RESULT:      -6.3      3.759      6.484
REMARK  Name = 
REMARK  7 active torsions:
REMARK  status: ('A' for Active; 'I' for Inactive)
REMARK    1  A    between atoms: C_1  and  N_2
REMARK    2  A    between atoms: C_6  and  C_7
REMARK    3  A    between atoms: C_7  and  N_8
REMARK    4  A    between atoms: N_11  and  C_12
REMARK    5  A    between atoms: C_12  and  C_13
REMARK    6  A    between atoms: N_15  and  C_16
REMARK    7  A    between atoms: C_16  and  C_17
REMARK                            x       y       z     vdW  Elec       q    Type
REMARK                         _______ _______ _______ _____ _____    ______ ____
ROOT
ATOM      1  N   UNL     1       1.849   6.545  20.752  0.00  0.00    +0.000 NA
ATOM      2  C   UNL     1       1.862   5.078  20.870  0.00  0.00    +0.000 C 
ATOM      3  C   UNL     1       1.432   4.268  19.622  0.00  0.00    +0.000 C 
ATOM      4  N   UNL     1       1.813   4.764  18.287  0.00  0.00    +0.000 NA
ATOM      5  C   UNL     1       2.140   6.188  18.218  0.00  0.00    +0.000 C 
ATOM      6  C   UNL     1       2.576   6.903  19.520  0.00  0.00    +0.000 C 
ENDROOT
BRANCH   1   7
ATOM      7  C   UNL     1       0.512   7.145  20.799  0.00  0.00    +0.000 C 
BRANCH   7  13
ATOM      8  C   UNL     1       0.976  10.017  19.414  0.00  0.00    +0.000 C 
ATOM      9  N   UNL     1       0.685   9.730  20.798  0.00  0.00    +0.000 N 
ATOM     10  N   UNL     1       0.446  10.795  21.599  0.00  0.00    +0.000 NA
ATOM     11  C   UNL     1      -0.082  10.267  22.698  0.00  0.00    +0.000 A 
ATOM     12  C   UNL     1      -0.121   8.867  22.638  0.00  0.00    +0.000 A 
ATOM     13  C   UNL     1       0.423   8.521  21.408  0.00  0.00    +0.000 A 
ENDBRANCH   7  13
ENDBRANCH   1   7
BRANCH   4  14
ATOM     14  C   UNL     1       2.746   3.879  17.564  0.00  0.00    +0.000 C 
BRANCH  14  15
ATOM     15  C   UNL     1       4.179   4.160  18.042  0.00  0.00    +0.000 C 
ATOM     16  O   UNL     1       4.757   3.471  18.880  0.00  0.00    +0.000 OA
ATOM     17  N   UNL     1       4.739   5.259  17.420  0.00  0.00    +0.000 N 
ATOM     18  H   UNL     1       4.164   5.671  16.690  0.00  0.00    +0.000 HD
BRANCH  17  19
ATOM     19  C   UNL     1       6.142   5.697  17.528  0.00  0.00    +0.000 C 
ATOM     20  C   UNL     1       6.279   7.185  17.148  0.00  0.00    +0.000 C 
ATOM     21  C   UNL     1       7.697   7.728  17.347  0.00  0.00    +0.000 C 
ATOM     22  C   UNL     1       8.208   7.471  18.761  0.00  0.00    +0.000 C 
ATOM     23  C   UNL     1       8.121   5.996  19.139  0.00  0.00    +0.000 C 
ATOM     24  C   UNL     1       6.702   5.449  18.952  0.00  0.00    +0.000 C 
BRANCH  19  25
ATOM     25  C   UNL     1       6.927   4.871  16.557  0.00  0.00    +0.000 C 
ATOM     26  N   UNL     1       7.508   4.212  15.801  0.00  0.00    +0.000 NA
ENDBRANCH  19  25
ENDBRANCH  17  19
ENDBRANCH  14  15
ENDBRANCH   4  14
TORSDOF 6
ENDMDL
