MODEL 1
REMARK VINA RESULT:      -7.1      0.000      0.000
REMARK  Name = 
REMARK  6 active torsions:
REMARK  status: ('A' for Active; 'I' for Inactive)
REMARK    1  A    between atoms: C_1  and  C_2
REMARK    2  A    between atoms: C_2  and  C_3
REMARK    3  A    between atoms: N_8  and  C_9
REMARK    4  A    between atoms: C_9  and  C_10
REMARK    5  A    between atoms: C_17  and  C_18
REMARK    6  A    between atoms: C_28  and  C_29
REMARK                            x       y       z     vdW  Elec       q    Type
REMARK                         _______ _______ _______ _____ _____    ______ ____
ROOT
ATOM      1  C   UNL     1      -4.874  11.308  18.553  0.00  0.00    +0.000 A 
ATOM      2  N   UNL     1      -3.742  10.841  18.110  0.00  0.00    +0.000 NA
ATOM      3  C   UNL     1      -2.566  11.336  18.680  0.00  0.00    +0.000 A 
ATOM      4  C   UNL     1      -1.277  10.708  18.208  0.00  0.00    +0.000 A 
ATOM      5  O   UNL     1      -1.290   9.852  17.322  0.00  0.00    +0.000 OA
ATOM      6  N   UNL     1      -0.108  11.176  18.794  0.00  0.00    +0.000 N 
ATOM      7  N   UNL     1      -0.078  12.072  19.829  0.00  0.00    +0.000 NA
ATOM      8  C   UNL     1      -1.194  12.585  20.248  0.00  0.00    +0.000 A 
ATOM      9  C   UNL     1      -2.527  12.319  19.609  0.00  0.00    +0.000 A 
ATOM     10  C   UNL     1      -3.761  12.949  19.946  0.00  0.00    +0.000 A 
ATOM     11  C   UNL     1      -4.207  14.083  20.583  0.00  0.00    +0.000 A 
ATOM     12  C   UNL     1      -5.601  13.885  20.790  0.00  0.00    +0.000 A 
ATOM     13  N   UNL     1      -6.029  12.816  20.096  0.00  0.00    +0.000 NA
ATOM     14  N   UNL     1      -4.908  12.331  19.505  0.00  0.00    +0.000 N 
ENDROOT
BRANCH   8  15
ATOM     15  C   UNL     1      -1.092  13.462  21.461  0.00  0.00    +0.000 A 
ATOM     16  C   UNL     1      -0.514  14.736  21.331  0.00  0.00    +0.000 A 
ATOM     17  C   UNL     1      -0.395  15.577  22.442  0.00  0.00    +0.000 A 
ATOM     18  C   UNL     1      -0.873  15.155  23.676  0.00  0.00    +0.000 A 
ATOM     19  F   UNL     1      -0.797  15.975  24.732  0.00  0.00    +0.000 F 
ATOM     20  C   UNL     1      -1.414  13.886  23.833  0.00  0.00    +0.000 A 
ATOM     21  C   UNL     1      -1.472  13.020  22.737  0.00  0.00    +0.000 A 
ENDBRANCH   8  15
BRANCH  12  22
ATOM     22  C   UNL     1      -6.447  14.664  21.704  0.00  0.00    +0.000 A 
ATOM     23  C   UNL     1      -7.210  15.736  21.210  0.00  0.00    +0.000 A 
ATOM     24  C   UNL     1      -7.916  16.575  22.075  0.00  0.00    +0.000 A 
ATOM     25  C   UNL     1      -7.878  16.350  23.446  0.00  0.00    +0.000 A 
ATOM     26  C   UNL     1      -7.140  15.280  23.952  0.00  0.00    +0.000 A 
ATOM     27  C   UNL     1      -6.429  14.439  23.087  0.00  0.00    +0.000 A 
ENDBRANCH  12  22
BRANCH   1  29
ATOM     28  C   UNL     1      -6.780   9.818  19.087  0.00  0.00    +0.000 C 
ATOM     29  C   UNL     1      -6.196  10.781  18.069  0.00  0.00    +0.000 C 
ENDBRANCH   1  29
BRANCH   6  30
ATOM     30  C   UNL     1       1.173  10.616  18.375  0.00  0.00    +0.000 C 
BRANCH  30  31
ATOM     31  C   UNL     1       1.486   9.282  19.017  0.00  0.00    +0.000 A 
ATOM     32  C   UNL     1       1.100   9.017  20.338  0.00  0.00    +0.000 A 
ATOM     33  C   UNL     1       1.357   7.773  20.918  0.00  0.00    +0.000 A 
ATOM     34  C   UNL     1       2.009   6.781  20.186  0.00  0.00    +0.000 A 
ATOM     35  C   UNL     1       2.415   7.041  18.878  0.00  0.00    +0.000 A 
ATOM     36  C   UNL     1       2.163   8.284  18.298  0.00  0.00    +0.000 A 
ENDBRANCH  30  31
ENDBRANCH   6  30
TORSDOF 5
ENDMDL
MODEL 2
REMARK VINA RESULT:      -7.0      0.112      1.143
REMARK  Name = 
REMARK  6 active torsions:
REMARK  status: ('A' for Active; 'I' for Inactive)
REMARK    1  A    between atoms: C_1  and  C_2
REMARK    2  A    between atoms: C_2  and  C_3
REMARK    3  A    between atoms: N_8  and  C_9
REMARK    4  A    between atoms: C_9  and  C_10
REMARK    5  A    between atoms: C_17  and  C_18
REMARK    6  A    between atoms: C_28  and  C_29
REMARK                            x       y       z     vdW  Elec       q    Type
REMARK                         _______ _______ _______ _____ _____    ______ ____
ROOT
ATOM      1  C   UNL     1      -4.855  11.390  18.575  0.00  0.00    +0.000 A 
ATOM      2  N   UNL     1      -3.730  10.905  18.134  0.00  0.00    +0.000 NA
ATOM      3  C   UNL     1      -2.546  11.394  18.692  0.00  0.00    +0.000 A 
ATOM      4  C   UNL     1      -1.266  10.745  18.224  0.00  0.00    +0.000 A 
ATOM      5  O   UNL     1      -1.292   9.876  17.350  0.00  0.00    +0.000 OA
ATOM      6  N   UNL     1      -0.090  11.209  18.797  0.00  0.00    +0.000 N 
ATOM      7  N   UNL     1      -0.045  12.120  19.818  0.00  0.00    +0.000 NA
ATOM      8  C   UNL     1      -1.153  12.652  20.234  0.00  0.00    +0.000 A 
ATOM      9  C   UNL     1      -2.492  12.391  19.606  0.00  0.00    +0.000 A 
ATOM     10  C   UNL     1      -3.717  13.040  19.939  0.00  0.00    +0.000 A 
ATOM     11  C   UNL     1      -4.148  14.189  20.560  0.00  0.00    +0.000 A 
ATOM     12  C   UNL     1      -5.543  14.009  20.777  0.00  0.00    +0.000 A 
ATOM     13  N   UNL     1      -5.985  12.935  20.100  0.00  0.00    +0.000 NA
ATOM     14  N   UNL     1      -4.873  12.428  19.512  0.00  0.00    +0.000 N 
ENDROOT
BRANCH   8  15
ATOM     15  C   UNL     1      -1.036  13.546  21.433  0.00  0.00    +0.000 A 
ATOM     16  C   UNL     1      -1.445  13.059  22.686  0.00  0.00    +0.000 A 
ATOM     17  C   UNL     1      -1.358  13.868  23.824  0.00  0.00    +0.000 A 
ATOM     18  C   UNL     1      -0.843  15.153  23.714  0.00  0.00    +0.000 A 
ATOM     19  F   UNL     1      -0.721  15.914  24.809  0.00  0.00    +0.000 F 
ATOM     20  C   UNL     1      -0.467  15.665  22.480  0.00  0.00    +0.000 A 
ATOM     21  C   UNL     1      -0.617  14.881  21.332  0.00  0.00    +0.000 A 
ENDBRANCH   8  15
BRANCH  12  22
ATOM     22  C   UNL     1      -6.376  14.811  21.681  0.00  0.00    +0.000 A 
ATOM     23  C   UNL     1      -7.089  15.915  21.185  0.00  0.00    +0.000 A 
ATOM     24  C   UNL     1      -7.780  16.773  22.044  0.00  0.00    +0.000 A 
ATOM     25  C   UNL     1      -7.775  16.534  23.413  0.00  0.00    +0.000 A 
ATOM     26  C   UNL     1      -7.087  15.433  23.923  0.00  0.00    +0.000 A 
ATOM     27  C   UNL     1      -6.392  14.574  23.063  0.00  0.00    +0.000 A 
ENDBRANCH  12  22
BRANCH   1  29
ATOM     28  C   UNL     1      -6.755   9.897  19.121  0.00  0.00    +0.000 C 
ATOM     29  C   UNL     1      -6.185  10.871  18.105  0.00  0.00    +0.000 C 
ENDBRANCH   1  29
BRANCH   6  30
ATOM     30  C   UNL     1       1.184  10.628  18.381  0.00  0.00    +0.000 C 
BRANCH  30  31
ATOM     31  C   UNL     1       1.470   9.287  19.018  0.00  0.00    +0.000 A 
ATOM     32  C   UNL     1       2.105   8.270  18.290  0.00  0.00    +0.000 A 
ATOM     33  C   UNL     1       2.402   7.045  18.889  0.00  0.00    +0.000 A 
ATOM     34  C   UNL     1       2.059   6.817  20.222  0.00  0.00    +0.000 A 
ATOM     35  C   UNL     1       1.410   7.813  20.949  0.00  0.00    +0.000 A 
ATOM     36  C   UNL     1       1.109   9.036  20.352  0.00  0.00    +0.000 A 
ENDBRANCH  30  31
ENDBRANCH   6  30
TORSDOF 5
ENDMDL
MODEL 3
REMARK VINA RESULT:      -6.9      3.661      7.493
REMARK  Name = 
REMARK  6 active torsions:
REMARK  status: ('A' for Active; 'I' for Inactive)
REMARK    1  A    between atoms: C_1  and  C_2
REMARK    2  A    between atoms: C_2  and  C_3
REMARK    3  A    between atoms: N_8  and  C_9
REMARK    4  A    between atoms: C_9  and  C_10
REMARK    5  A    between atoms: C_17  and  C_18
REMARK    6  A    between atoms: C_28  and  C_29
REMARK                            x       y       z     vdW  Elec       q    Type
REMARK                         _______ _______ _______ _____ _____    ______ ____
ROOT
ATOM      1  C   UNL     1      -5.619  13.618  22.114  0.00  0.00    +0.000 A 
ATOM      2  N   UNL     1      -5.361  14.501  23.035  0.00  0.00    +0.000 NA
ATOM      3  C   UNL     1      -4.111  15.124  23.007  0.00  0.00    +0.000 A 
ATOM      4  C   UNL     1      -3.879  16.208  24.032  0.00  0.00    +0.000 A 
ATOM      5  O   UNL     1      -4.742  16.463  24.874  0.00  0.00    +0.000 OA
ATOM      6  N   UNL     1      -2.649  16.850  23.989  0.00  0.00    +0.000 N 
ATOM      7  N   UNL     1      -1.707  16.632  23.020  0.00  0.00    +0.000 NA
ATOM      8  C   UNL     1      -1.927  15.718  22.124  0.00  0.00    +0.000 A 
ATOM      9  C   UNL     1      -3.127  14.816  22.131  0.00  0.00    +0.000 A 
ATOM     10  C   UNL     1      -3.356  13.717  21.251  0.00  0.00    +0.000 A 
ATOM     11  C   UNL     1      -2.644  12.890  20.415  0.00  0.00    +0.000 A 
ATOM     12  C   UNL     1      -3.614  12.205  19.632  0.00  0.00    +0.000 A 
ATOM     13  N   UNL     1      -4.846  12.407  20.133  0.00  0.00    +0.000 NA
ATOM     14  N   UNL     1      -4.646  13.243  21.183  0.00  0.00    +0.000 N 
ENDROOT
BRANCH   8  15
ATOM     15  C   UNL     1      -0.908  15.623  21.028  0.00  0.00    +0.000 A 
ATOM     16  C   UNL     1       0.314  14.981  21.290  0.00  0.00    +0.000 A 
ATOM     17  C   UNL     1       1.291  14.882  20.293  0.00  0.00    +0.000 A 
ATOM     18  C   UNL     1       1.037  15.403  19.031  0.00  0.00    +0.000 A 
ATOM     19  F   UNL     1       1.955  15.272  18.064  0.00  0.00    +0.000 F 
ATOM     20  C   UNL     1      -0.149  16.072  18.762  0.00  0.00    +0.000 A 
ATOM     21  C   UNL     1      -1.097  16.231  19.777  0.00  0.00    +0.000 A 
ENDBRANCH   8  15
BRANCH  12  22
ATOM     22  C   UNL     1      -3.342  11.461  18.395  0.00  0.00    +0.000 A 
ATOM     23  C   UNL     1      -2.201  10.647  18.302  0.00  0.00    +0.000 A 
ATOM     24  C   UNL     1      -1.847  10.036  17.097  0.00  0.00    +0.000 A 
ATOM     25  C   UNL     1      -2.635  10.224  15.967  0.00  0.00    +0.000 A 
ATOM     26  C   UNL     1      -3.782  11.015  16.045  0.00  0.00    +0.000 A 
ATOM     27  C   UNL     1      -4.136  11.630  17.252  0.00  0.00    +0.000 A 
ENDBRANCH  12  22
BRANCH   1  29
ATOM     28  C   UNL     1      -7.510  12.642  23.383  0.00  0.00    +0.000 C 
ATOM     29  C   UNL     1      -6.963  12.955  22.002  0.00  0.00    +0.000 C 
ENDBRANCH   1  29
BRANCH   6  30
ATOM     30  C   UNL     1      -2.358  17.901  24.959  0.00  0.00    +0.000 C 
BRANCH  30  31
ATOM     31  C   UNL     1      -1.112  17.639  25.776  0.00  0.00    +0.000 A 
ATOM     32  C   UNL     1      -1.004  16.485  26.565  0.00  0.00    +0.000 A 
ATOM     33  C   UNL     1       0.160  16.225  27.290  0.00  0.00    +0.000 A 
ATOM     34  C   UNL     1       1.229  17.120  27.241  0.00  0.00    +0.000 A 
ATOM     35  C   UNL     1       1.125  18.280  26.475  0.00  0.00    +0.000 A 
ATOM     36  C   UNL     1      -0.039  18.544  25.754  0.00  0.00    +0.000 A 
ENDBRANCH  30  31
ENDBRANCH   6  30
TORSDOF 5
ENDMDL
MODEL 4
REMARK VINA RESULT:      -6.7      3.938      8.935
REMARK  Name = 
REMARK  6 active torsions:
REMARK  status: ('A' for Active; 'I' for Inactive)
REMARK    1  A    between atoms: C_1  and  C_2
REMARK    2  A    between atoms: C_2  and  C_3
REMARK    3  A    between atoms: N_8  and  C_9
REMARK    4  A    between atoms: C_9  and  C_10
REMARK    5  A    between atoms: C_17  and  C_18
REMARK    6  A    between atoms: C_28  and  C_29
REMARK                            x       y       z     vdW  Elec       q    Type
REMARK                         _______ _______ _______ _____ _____    ______ ____
ROOT
ATOM      1  C   UNL     1       0.466  16.349  23.595  0.00  0.00    +0.000 A 
ATOM      2  N   UNL     1      -0.642  15.963  24.161  0.00  0.00    +0.000 NA
ATOM      3  C   UNL     1      -1.262  14.815  23.661  0.00  0.00    +0.000 A 
ATOM      4  C   UNL     1      -2.493  14.344  24.398  0.00  0.00    +0.000 A 
ATOM      5  O   UNL     1      -2.937  14.993  25.346  0.00  0.00    +0.000 OA
ATOM      6  N   UNL     1      -3.095  13.187  23.922  0.00  0.00    +0.000 N 
ATOM      7  N   UNL     1      -2.578  12.414  22.918  0.00  0.00    +0.000 NA
ATOM      8  C   UNL     1      -1.503  12.812  22.309  0.00  0.00    +0.000 A 
ATOM      9  C   UNL     1      -0.826  14.124  22.583  0.00  0.00    +0.000 A 
ATOM     10  C   UNL     1       0.278  14.666  21.861  0.00  0.00    +0.000 A 
ATOM     11  C   UNL     1       0.898  14.514  20.643  0.00  0.00    +0.000 A 
ATOM     12  C   UNL     1       2.135  15.208  20.752  0.00  0.00    +0.000 A 
ATOM     13  N   UNL     1       2.156  15.953  21.871  0.00  0.00    +0.000 NA
ATOM     14  N   UNL     1       0.969  15.688  22.471  0.00  0.00    +0.000 N 
ENDROOT
BRANCH   8  15
ATOM     15  C   UNL     1      -0.930  11.854  21.307  0.00  0.00    +0.000 A 
ATOM     16  C   UNL     1      -1.483  11.810  20.016  0.00  0.00    +0.000 A 
ATOM     17  C   UNL     1      -0.980  10.923  19.059  0.00  0.00    +0.000 A 
ATOM     18  C   UNL     1       0.089  10.097  19.384  0.00  0.00    +0.000 A 
ATOM     19  F   UNL     1       0.598   9.276  18.457  0.00  0.00    +0.000 F 
ATOM     20  C   UNL     1       0.626  10.099  20.664  0.00  0.00    +0.000 A 
ATOM     21  C   UNL     1       0.078  10.937  21.640  0.00  0.00    +0.000 A 
ENDBRANCH   8  15
BRANCH  12  22
ATOM     22  C   UNL     1       3.275  15.068  19.836  0.00  0.00    +0.000 A 
ATOM     23  C   UNL     1       4.587  15.173  20.328  0.00  0.00    +0.000 A 
ATOM     24  C   UNL     1       5.683  15.179  19.462  0.00  0.00    +0.000 A 
ATOM     25  C   UNL     1       5.483  15.072  18.090  0.00  0.00    +0.000 A 
ATOM     26  C   UNL     1       4.189  14.950  17.585  0.00  0.00    +0.000 A 
ATOM     27  C   UNL     1       3.089  14.946  18.452  0.00  0.00    +0.000 A 
ENDBRANCH  12  22
BRANCH   1  29
ATOM     28  C   UNL     1       1.453  17.397  25.611  0.00  0.00    +0.000 C 
ATOM     29  C   UNL     1       1.257  17.518  24.111  0.00  0.00    +0.000 C 
ENDBRANCH   1  29
BRANCH   6  30
ATOM     30  C   UNL     1      -4.295  12.683  24.585  0.00  0.00    +0.000 C 
BRANCH  30  31
ATOM     31  C   UNL     1      -5.569  12.969  23.821  0.00  0.00    +0.000 A 
ATOM     32  C   UNL     1      -5.627  14.021  22.895  0.00  0.00    +0.000 A 
ATOM     33  C   UNL     1      -6.791  14.262  22.165  0.00  0.00    +0.000 A 
ATOM     34  C   UNL     1      -7.916  13.459  22.356  0.00  0.00    +0.000 A 
ATOM     35  C   UNL     1      -7.876  12.423  23.288  0.00  0.00    +0.000 A 
ATOM     36  C   UNL     1      -6.715  12.184  24.022  0.00  0.00    +0.000 A 
ENDBRANCH  30  31
ENDBRANCH   6  30
TORSDOF 5
ENDMDL
MODEL 5
REMARK VINA RESULT:      -6.7      3.125      4.988
REMARK  Name = 
REMARK  6 active torsions:
REMARK  status: ('A' for Active; 'I' for Inactive)
REMARK    1  A    between atoms: C_1  and  C_2
REMARK    2  A    between atoms: C_2  and  C_3
REMARK    3  A    between atoms: N_8  and  C_9
REMARK    4  A    between atoms: C_9  and  C_10
REMARK    5  A    between atoms: C_17  and  C_18
REMARK    6  A    between atoms: C_28  and  C_29
REMARK                            x       y       z     vdW  Elec       q    Type
REMARK                         _______ _______ _______ _____ _____    ______ ____
ROOT
ATOM      1  C   UNL     1      -2.414  13.197  23.057  0.00  0.00    +0.000 A 
ATOM      2  N   UNL     1      -1.523  12.263  23.233  0.00  0.00    +0.000 NA
ATOM      3  C   UNL     1      -1.293  11.375  22.179  0.00  0.00    +0.000 A 
ATOM      4  C   UNL     1      -0.190  10.364  22.383  0.00  0.00    +0.000 A 
ATOM      5  O   UNL     1       0.413  10.310  23.456  0.00  0.00    +0.000 OA
ATOM      6  N   UNL     1       0.061   9.499  21.327  0.00  0.00    +0.000 N 
ATOM      7  N   UNL     1      -0.548   9.589  20.104  0.00  0.00    +0.000 NA
ATOM      8  C   UNL     1      -1.475  10.481  19.928  0.00  0.00    +0.000 A 
ATOM      9  C   UNL     1      -1.987  11.378  21.018  0.00  0.00    +0.000 A 
ATOM     10  C   UNL     1      -3.084  12.283  20.914  0.00  0.00    +0.000 A 
ATOM     11  C   UNL     1      -4.188  12.491  20.120  0.00  0.00    +0.000 A 
ATOM     12  C   UNL     1      -4.667  13.787  20.459  0.00  0.00    +0.000 A 
ATOM     13  N   UNL     1      -4.055  14.235  21.569  0.00  0.00    +0.000 NA
ATOM     14  N   UNL     1      -3.175  13.253  21.886  0.00  0.00    +0.000 N 
ENDROOT
BRANCH   8  15
ATOM     15  C   UNL     1      -2.007  10.600  18.530  0.00  0.00    +0.000 A 
ATOM     16  C   UNL     1      -1.631  11.709  17.753  0.00  0.00    +0.000 A 
ATOM     17  C   UNL     1      -2.116  11.856  16.449  0.00  0.00    +0.000 A 
ATOM     18  C   UNL     1      -2.955  10.887  15.915  0.00  0.00    +0.000 A 
ATOM     19  F   UNL     1      -3.386  11.006  14.653  0.00  0.00    +0.000 F 
ATOM     20  C   UNL     1      -3.366   9.803  16.679  0.00  0.00    +0.000 A 
ATOM     21  C   UNL     1      -2.937   9.691  18.005  0.00  0.00    +0.000 A 
ENDBRANCH   8  15
BRANCH  12  22
ATOM     22  C   UNL     1      -5.621  14.578  19.670  0.00  0.00    +0.000 A 
ATOM     23  C   UNL     1      -6.412  13.951  18.692  0.00  0.00    +0.000 A 
ATOM     24  C   UNL     1      -7.226  14.698  17.838  0.00  0.00    +0.000 A 
ATOM     25  C   UNL     1      -7.268  16.082  17.953  0.00  0.00    +0.000 A 
ATOM     26  C   UNL     1      -6.502  16.720  18.929  0.00  0.00    +0.000 A 
ATOM     27  C   UNL     1      -5.684  15.973  19.785  0.00  0.00    +0.000 A 
ENDBRANCH  12  22
BRANCH   1  29
ATOM     28  C   UNL     1      -1.459  15.152  24.242  0.00  0.00    +0.000 C 
ATOM     29  C   UNL     1      -2.674  14.254  24.093  0.00  0.00    +0.000 C 
ENDBRANCH   1  29
BRANCH   6  30
ATOM     30  C   UNL     1       1.109   8.492  21.464  0.00  0.00    +0.000 C 
BRANCH  30  31
ATOM     31  C   UNL     1       1.709   8.065  20.143  0.00  0.00    +0.000 A 
ATOM     32  C   UNL     1       1.818   8.973  19.080  0.00  0.00    +0.000 A 
ATOM     33  C   UNL     1       2.405   8.589  17.873  0.00  0.00    +0.000 A 
ATOM     34  C   UNL     1       2.884   7.289  17.711  0.00  0.00    +0.000 A 
ATOM     35  C   UNL     1       2.763   6.372  18.753  0.00  0.00    +0.000 A 
ATOM     36  C   UNL     1       2.173   6.752  19.958  0.00  0.00    +0.000 A 
ENDBRANCH  30  31
ENDBRANCH   6  30
TORSDOF 5
ENDMDL
MODEL 6
REMARK VINA RESULT:      -6.6      4.279      5.975
REMARK  Name = 
REMARK  6 active torsions:
REMARK  status: ('A' for Active; 'I' for Inactive)
REMARK    1  A    between atoms: C_1  and  C_2
REMARK    2  A    between atoms: C_2  and  C_3
REMARK    3  A    between atoms: N_8  and  C_9
REMARK    4  A    between atoms: C_9  and  C_10
REMARK    5  A    between atoms: C_17  and  C_18
REMARK    6  A    between atoms: C_28  and  C_29
REMARK                            x       y       z     vdW  Elec       q    Type
REMARK                         _______ _______ _______ _____ _____    ______ ____
ROOT
ATOM      1  C   UNL     1      -1.606  17.176  20.113  0.00  0.00    +0.000 A 
ATOM      2  N   UNL     1      -0.499  17.307  19.439  0.00  0.00    +0.000 NA
ATOM      3  C   UNL     1       0.322  16.183  19.310  0.00  0.00    +0.000 A 
ATOM      4  C   UNL     1       1.549  16.346  18.447  0.00  0.00    +0.000 A 
ATOM      5  O   UNL     1       1.818  17.440  17.947  0.00  0.00    +0.000 OA
ATOM      6  N   UNL     1       2.352  15.224  18.292  0.00  0.00    +0.000 N 
ATOM      7  N   UNL     1       2.034  13.984  18.779  0.00  0.00    +0.000 NA
ATOM      8  C   UNL     1       0.961  13.847  19.496  0.00  0.00    +0.000 A 
ATOM      9  C   UNL     1       0.077  14.991  19.902  0.00  0.00    +0.000 A 
ATOM     10  C   UNL     1      -1.038  14.918  20.788  0.00  0.00    +0.000 A 
ATOM     11  C   UNL     1      -1.533  14.089  21.767  0.00  0.00    +0.000 A 
ATOM     12  C   UNL     1      -2.865  14.529  22.006  0.00  0.00    +0.000 A 
ATOM     13  N   UNL     1      -3.082  15.711  21.402  0.00  0.00    +0.000 NA
ATOM     14  N   UNL     1      -1.918  15.976  20.759  0.00  0.00    +0.000 N 
ENDROOT
BRANCH   8  15
ATOM     15  C   UNL     1       0.615  12.441  19.889  0.00  0.00    +0.000 A 
ATOM     16  C   UNL     1      -0.325  11.734  19.121  0.00  0.00    +0.000 A 
ATOM     17  C   UNL     1      -0.678  10.424  19.464  0.00  0.00    +0.000 A 
ATOM     18  C   UNL     1      -0.076   9.815  20.556  0.00  0.00    +0.000 A 
ATOM     19  F   UNL     1      -0.382   8.547  20.861  0.00  0.00    +0.000 F 
ATOM     20  C   UNL     1       0.829  10.509  21.348  0.00  0.00    +0.000 A 
ATOM     21  C   UNL     1       1.131  11.840  21.047  0.00  0.00    +0.000 A 
ENDBRANCH   8  15
BRANCH  12  22
ATOM     22  C   UNL     1      -3.899  13.771  22.724  0.00  0.00    +0.000 A 
ATOM     23  C   UNL     1      -5.245  13.886  22.342  0.00  0.00    +0.000 A 
ATOM     24  C   UNL     1      -6.260  13.284  23.089  0.00  0.00    +0.000 A 
ATOM     25  C   UNL     1      -5.942  12.551  24.227  0.00  0.00    +0.000 A 
ATOM     26  C   UNL     1      -4.609  12.412  24.612  0.00  0.00    +0.000 A 
ATOM     27  C   UNL     1      -3.591  13.017  23.865  0.00  0.00    +0.000 A 
ENDBRANCH  12  22
BRANCH   1  29
ATOM     28  C   UNL     1      -3.390  18.440  18.949  0.00  0.00    +0.000 C 
ATOM     29  C   UNL     1      -2.600  18.296  20.237  0.00  0.00    +0.000 C 
ENDBRANCH   1  29
BRANCH   6  30
ATOM     30  C   UNL     1       3.559  15.317  17.477  0.00  0.00    +0.000 C 
BRANCH  30  31
ATOM     31  C   UNL     1       4.836  15.275  18.286  0.00  0.00    +0.000 A 
ATOM     32  C   UNL     1       5.976  14.624  17.791  0.00  0.00    +0.000 A 
ATOM     33  C   UNL     1       7.165  14.616  18.522  0.00  0.00    +0.000 A 
ATOM     34  C   UNL     1       7.228  15.252  19.762  0.00  0.00    +0.000 A 
ATOM     35  C   UNL     1       6.096  15.885  20.273  0.00  0.00    +0.000 A 
ATOM     36  C   UNL     1       4.906  15.890  19.546  0.00  0.00    +0.000 A 
ENDBRANCH  30  31
ENDBRANCH   6  30
TORSDOF 5
ENDMDL
MODEL 7
REMARK VINA RESULT:      -6.6      3.147      5.042
REMARK  Name = 
REMARK  6 active torsions:
REMARK  status: ('A' for Active; 'I' for Inactive)
REMARK    1  A    between atoms: C_1  and  C_2
REMARK    2  A    between atoms: C_2  and  C_3
REMARK    3  A    between atoms: N_8  and  C_9
REMARK    4  A    between atoms: C_9  and  C_10
REMARK    5  A    between atoms: C_17  and  C_18
REMARK    6  A    between atoms: C_28  and  C_29
REMARK                            x       y       z     vdW  Elec       q    Type
REMARK                         _______ _______ _______ _____ _____    ______ ____
ROOT
ATOM      1  C   UNL     1      -1.941  13.189  23.194  0.00  0.00    +0.000 A 
ATOM      2  N   UNL     1      -1.127  12.181  23.316  0.00  0.00    +0.000 NA
ATOM      3  C   UNL     1      -1.017  11.298  22.239  0.00  0.00    +0.000 A 
ATOM      4  C   UNL     1       0.003  10.193  22.378  0.00  0.00    +0.000 A 
ATOM      5  O   UNL     1       0.644  10.067  23.423  0.00  0.00    +0.000 OA
ATOM      6  N   UNL     1       0.135   9.332  21.298  0.00  0.00    +0.000 N 
ATOM      7  N   UNL     1      -0.514   9.497  20.104  0.00  0.00    +0.000 NA
ATOM      8  C   UNL     1      -1.368  10.467  19.983  0.00  0.00    +0.000 A 
ATOM      9  C   UNL     1      -1.756  11.382  21.109  0.00  0.00    +0.000 A 
ATOM     10  C   UNL     1      -2.776  12.379  21.067  0.00  0.00    +0.000 A 
ATOM     11  C   UNL     1      -3.890  12.694  20.325  0.00  0.00    +0.000 A 
ATOM     12  C   UNL     1      -4.242  14.019  20.705  0.00  0.00    +0.000 A 
ATOM     13  N   UNL     1      -3.549  14.392  21.795  0.00  0.00    +0.000 NA
ATOM     14  N   UNL     1      -2.743  13.333  22.058  0.00  0.00    +0.000 N 
ENDROOT
BRANCH   8  15
ATOM     15  C   UNL     1      -1.946  10.658  18.612  0.00  0.00    +0.000 A 
ATOM     16  C   UNL     1      -2.877   9.722  18.131  0.00  0.00    +0.000 A 
ATOM     17  C   UNL     1      -3.429   9.864  16.853  0.00  0.00    +0.000 A 
ATOM     18  C   UNL     1      -3.069  10.952  16.068  0.00  0.00    +0.000 A 
ATOM     19  F   UNL     1      -3.628  11.112  14.861  0.00  0.00    +0.000 F 
ATOM     20  C   UNL     1      -2.124  11.867  16.510  0.00  0.00    +0.000 A 
ATOM     21  C   UNL     1      -1.521  11.688  17.759  0.00  0.00    +0.000 A 
ENDBRANCH   8  15
BRANCH  12  22
ATOM     22  C   UNL     1      -5.157  14.903  19.971  0.00  0.00    +0.000 A 
ATOM     23  C   UNL     1      -5.038  16.297  20.097  0.00  0.00    +0.000 A 
ATOM     24  C   UNL     1      -5.976  17.156  19.519  0.00  0.00    +0.000 A 
ATOM     25  C   UNL     1      -7.043  16.633  18.799  0.00  0.00    +0.000 A 
ATOM     26  C   UNL     1      -7.169  15.252  18.649  0.00  0.00    +0.000 A 
ATOM     27  C   UNL     1      -6.231  14.390  19.230  0.00  0.00    +0.000 A 
ENDBRANCH  12  22
BRANCH   1  29
ATOM     28  C   UNL     1      -1.010  15.315  24.061  0.00  0.00    +0.000 C 
ATOM     29  C   UNL     1      -2.068  14.244  24.257  0.00  0.00    +0.000 C 
ENDBRANCH   1  29
BRANCH   6  30
ATOM     30  C   UNL     1       1.098   8.236  21.373  0.00  0.00    +0.000 C 
BRANCH  30  31
ATOM     31  C   UNL     1       1.780   7.944  20.055  0.00  0.00    +0.000 A 
ATOM     32  C   UNL     1       2.313   6.674  19.793  0.00  0.00    +0.000 A 
ATOM     33  C   UNL     1       2.910   6.393  18.563  0.00  0.00    +0.000 A 
ATOM     34  C   UNL     1       2.989   7.382  17.582  0.00  0.00    +0.000 A 
ATOM     35  C   UNL     1       2.480   8.654  17.839  0.00  0.00    +0.000 A 
ATOM     36  C   UNL     1       1.887   8.937  19.069  0.00  0.00    +0.000 A 
ENDBRANCH  30  31
ENDBRANCH   6  30
TORSDOF 5
ENDMDL
MODEL 8
REMARK VINA RESULT:      -6.6      3.903      8.911
REMARK  Name = 
REMARK  6 active torsions:
REMARK  status: ('A' for Active; 'I' for Inactive)
REMARK    1  A    between atoms: C_1  and  C_2
REMARK    2  A    between atoms: C_2  and  C_3
REMARK    3  A    between atoms: N_8  and  C_9
REMARK    4  A    between atoms: C_9  and  C_10
REMARK    5  A    between atoms: C_17  and  C_18
REMARK    6  A    between atoms: C_28  and  C_29
REMARK                            x       y       z     vdW  Elec       q    Type
REMARK                         _______ _______ _______ _____ _____    ______ ____
ROOT
ATOM      1  C   UNL     1       0.481  16.382  23.584  0.00  0.00    +0.000 A 
ATOM      2  N   UNL     1      -0.614  15.959  24.148  0.00  0.00    +0.000 NA
ATOM      3  C   UNL     1      -1.232  14.830  23.604  0.00  0.00    +0.000 A 
ATOM      4  C   UNL     1      -2.446  14.312  24.336  0.00  0.00    +0.000 A 
ATOM      5  O   UNL     1      -2.880  14.911  25.322  0.00  0.00    +0.000 OA
ATOM      6  N   UNL     1      -3.045  13.173  23.816  0.00  0.00    +0.000 N 
ATOM      7  N   UNL     1      -2.537  12.454  22.767  0.00  0.00    +0.000 NA
ATOM      8  C   UNL     1      -1.476  12.891  22.161  0.00  0.00    +0.000 A 
ATOM      9  C   UNL     1      -0.807  14.195  22.487  0.00  0.00    +0.000 A 
ATOM     10  C   UNL     1       0.280  14.782  21.775  0.00  0.00    +0.000 A 
ATOM     11  C   UNL     1       0.881  14.695  20.541  0.00  0.00    +0.000 A 
ATOM     12  C   UNL     1       2.114  15.395  20.663  0.00  0.00    +0.000 A 
ATOM     13  N   UNL     1       2.146  16.086  21.816  0.00  0.00    +0.000 NA
ATOM     14  N   UNL     1       0.972  15.781  22.422  0.00  0.00    +0.000 N 
ENDROOT
BRANCH   8  15
ATOM     15  C   UNL     1      -0.911  11.987  21.105  0.00  0.00    +0.000 A 
ATOM     16  C   UNL     1       0.154  11.134  21.441  0.00  0.00    +0.000 A 
ATOM     17  C   UNL     1       0.711  10.285  20.479  0.00  0.00    +0.000 A 
ATOM     18  C   UNL     1       0.191  10.272  19.192  0.00  0.00    +0.000 A 
ATOM     19  F   UNL     1       0.697   9.430  18.281  0.00  0.00    +0.000 F 
ATOM     20  C   UNL     1      -0.836  11.133  18.831  0.00  0.00    +0.000 A 
ATOM     21  C   UNL     1      -1.348  12.030  19.773  0.00  0.00    +0.000 A 
ENDBRANCH   8  15
BRANCH  12  22
ATOM     22  C   UNL     1       3.240  15.310  19.724  0.00  0.00    +0.000 A 
ATOM     23  C   UNL     1       2.997  15.155  18.349  0.00  0.00    +0.000 A 
ATOM     24  C   UNL     1       4.045  14.938  17.452  0.00  0.00    +0.000 A 
ATOM     25  C   UNL     1       5.354  14.880  17.916  0.00  0.00    +0.000 A 
ATOM     26  C   UNL     1       5.617  15.048  19.276  0.00  0.00    +0.000 A 
ATOM     27  C   UNL     1       4.566  15.264  20.176  0.00  0.00    +0.000 A 
ENDBRANCH  12  22
BRANCH   1  29
ATOM     28  C   UNL     1       1.225  17.511  25.660  0.00  0.00    +0.000 C 
ATOM     29  C   UNL     1       1.270  17.533  24.143  0.00  0.00    +0.000 C 
ENDBRANCH   1  29
BRANCH   6  30
ATOM     30  C   UNL     1      -4.229  12.626  24.472  0.00  0.00    +0.000 C 
BRANCH  30  31
ATOM     31  C   UNL     1      -5.523  12.983  23.774  0.00  0.00    +0.000 A 
ATOM     32  C   UNL     1      -5.539  13.925  22.735  0.00  0.00    +0.000 A 
ATOM     33  C   UNL     1      -6.726  14.227  22.067  0.00  0.00    +0.000 A 
ATOM     34  C   UNL     1      -7.915  13.597  22.435  0.00  0.00    +0.000 A 
ATOM     35  C   UNL     1      -7.915  12.674  23.479  0.00  0.00    +0.000 A 
ATOM     36  C   UNL     1      -6.731  12.374  24.151  0.00  0.00    +0.000 A 
ENDBRANCH  30  31
ENDBRANCH   6  30
TORSDOF 5
ENDMDL
MODEL 9
REMARK VINA RESULT:      -6.6      2.973      5.628
REMARK  Name = 
REMARK  6 active torsions:
REMARK  status: ('A' for Active; 'I' for Inactive)
REMARK    1  A    between atoms: C_1  and  C_2
REMARK    2  A    between atoms: C_2  and  C_3
REMARK    3  A    between atoms: N_8  and  C_9
REMARK    4  A    between atoms: C_9  and  C_10
REMARK    5  A    between atoms: C_17  and  C_18
REMARK    6  A    between atoms: C_28  and  C_29
REMARK                            x       y       z     vdW  Elec       q    Type
REMARK                         _______ _______ _______ _____ _____    ______ ____
ROOT
ATOM      1  C   UNL     1      -5.905  14.657  22.985  0.00  0.00    +0.000 A 
ATOM      2  N   UNL     1      -6.351  13.975  21.969  0.00  0.00    +0.000 NA
ATOM      3  C   UNL     1      -5.414  13.450  21.075  0.00  0.00    +0.000 A 
ATOM      4  C   UNL     1      -5.959  12.588  19.962  0.00  0.00    +0.000 A 
ATOM      5  O   UNL     1      -7.174  12.426  19.839  0.00  0.00    +0.000 OA
ATOM      6  N   UNL     1      -5.029  12.041  19.089  0.00  0.00    +0.000 N 
ATOM      7  N   UNL     1      -3.674  12.150  19.250  0.00  0.00    +0.000 NA
ATOM      8  C   UNL     1      -3.213  12.869  20.227  0.00  0.00    +0.000 A 
ATOM      9  C   UNL     1      -4.081  13.668  21.156  0.00  0.00    +0.000 A 
ATOM     10  C   UNL     1      -3.626  14.570  22.162  0.00  0.00    +0.000 A 
ATOM     11  C   UNL     1      -2.495  15.284  22.482  0.00  0.00    +0.000 A 
ATOM     12  C   UNL     1      -2.694  15.744  23.814  0.00  0.00    +0.000 A 
ATOM     13  N   UNL     1      -3.970  15.546  24.190  0.00  0.00    +0.000 NA
ATOM     14  N   UNL     1      -4.541  14.929  23.126  0.00  0.00    +0.000 N 
ENDROOT
BRANCH   8  15
ATOM     15  C   UNL     1      -1.724  12.840  20.411  0.00  0.00    +0.000 A 
ATOM     16  C   UNL     1      -0.924  13.665  19.603  0.00  0.00    +0.000 A 
ATOM     17  C   UNL     1       0.468  13.657  19.742  0.00  0.00    +0.000 A 
ATOM     18  C   UNL     1       1.057  12.843  20.701  0.00  0.00    +0.000 A 
ATOM     19  F   UNL     1       2.386  12.865  20.863  0.00  0.00    +0.000 F 
ATOM     20  C   UNL     1       0.287  11.994  21.484  0.00  0.00    +0.000 A 
ATOM     21  C   UNL     1      -1.098  11.952  21.299  0.00  0.00    +0.000 A 
ENDBRANCH   8  15
BRANCH  12  22
ATOM     22  C   UNL     1      -1.649  16.272  24.700  0.00  0.00    +0.000 A 
ATOM     23  C   UNL     1      -1.575  15.839  26.035  0.00  0.00    +0.000 A 
ATOM     24  C   UNL     1      -0.679  16.422  26.933  0.00  0.00    +0.000 A 
ATOM     25  C   UNL     1       0.163  17.443  26.508  0.00  0.00    +0.000 A 
ATOM     26  C   UNL     1       0.117  17.874  25.183  0.00  0.00    +0.000 A 
ATOM     27  C   UNL     1      -0.783  17.292  24.281  0.00  0.00    +0.000 A 
ENDBRANCH  12  22
BRANCH   1  29
ATOM     28  C   UNL     1      -7.915  14.181  24.351  0.00  0.00    +0.000 C 
ATOM     29  C   UNL     1      -6.821  15.189  24.050  0.00  0.00    +0.000 C 
ENDBRANCH   1  29
BRANCH   6  30
ATOM     30  C   UNL     1      -5.492  11.205  17.985  0.00  0.00    +0.000 C 
BRANCH  30  31
ATOM     31  C   UNL     1      -4.375  10.717  17.090  0.00  0.00    +0.000 A 
ATOM     32  C   UNL     1      -3.391   9.849  17.583  0.00  0.00    +0.000 A 
ATOM     33  C   UNL     1      -2.380   9.370  16.747  0.00  0.00    +0.000 A 
ATOM     34  C   UNL     1      -2.336   9.761  15.409  0.00  0.00    +0.000 A 
ATOM     35  C   UNL     1      -3.298  10.639  14.913  0.00  0.00    +0.000 A 
ATOM     36  C   UNL     1      -4.305  11.122  15.747  0.00  0.00    +0.000 A 
ENDBRANCH  30  31
ENDBRANCH   6  30
TORSDOF 5
ENDMDL
