MODEL 1
REMARK VINA RESULT:      -6.3      0.000      0.000
REMARK  Name = 
REMARK  2 active torsions:
REMARK  status: ('A' for Active; 'I' for Inactive)
REMARK    1  A    between atoms: C_2  and  C_3
REMARK    2  A    between atoms: N_16  and  C_17
REMARK                            x       y       z     vdW  Elec       q    Type
REMARK                         _______ _______ _______ _____ _____    ______ ____
ROOT
ATOM      1  O   UNL     1       9.725  12.093  21.597  0.00  0.00    +0.000 OA
ATOM      2  C   UNL     1       9.163  12.892  22.343  0.00  0.00    +0.000 C 
ATOM      3  N   UNL     1       9.496  14.267  22.283  0.00  0.00    +0.000 N 
ATOM      4  C   UNL     1       9.333  15.146  23.441  0.00  0.00    +0.000 C 
ATOM      5  C   UNL     1       8.598  16.447  23.138  0.00  0.00    +0.000 C 
ATOM      6  O   UNL     1       9.380  17.243  22.268  0.00  0.00    +0.000 OA
ATOM      7  C   UNL     1       9.043  17.120  20.892  0.00  0.00    +0.000 C 
ATOM      8  C   UNL     1       9.096  15.722  20.208  0.00  0.00    +0.000 C 
ATOM      9  C   UNL     1      10.141  14.858  21.039  0.00  0.00    +0.000 C 
ATOM     10  C   UNL     1       7.867  14.786  20.072  0.00  0.00    +0.000 C 
ATOM     11  N   UNL     1       7.905  13.959  18.815  0.00  0.00    +0.000 N 
ATOM     12  C   UNL     1       7.456  14.847  17.832  0.00  0.00    +0.000 C 
ATOM     13  O   UNL     1       6.445  14.664  17.162  0.00  0.00    +0.000 OA
ATOM     14  C   UNL     1       8.259  16.167  17.901  0.00  0.00    +0.000 C 
ATOM     15  O   UNL     1       9.405  16.148  18.825  0.00  0.00    +0.000 OA
ENDROOT
BRANCH  11  16
ATOM     16  C   UNL     1       9.157  13.254  18.440  0.00  0.00    +0.000 A 
ATOM     17  C   UNL     1      10.165  13.810  17.618  0.00  0.00    +0.000 A 
ATOM     18  C   UNL     1      11.376  13.172  17.333  0.00  0.00    +0.000 A 
ATOM     19  C   UNL     1      11.565  11.881  17.779  0.00  0.00    +0.000 A 
ATOM     20  C   UNL     1      10.563  11.246  18.502  0.00  0.00    +0.000 A 
ATOM     21  C   UNL     1       9.366  11.929  18.822  0.00  0.00    +0.000 A 
ENDBRANCH  11  16
BRANCH   2  22
ATOM     22  C   UNL     1       8.102  12.418  23.242  0.00  0.00    +0.000 A 
ATOM     23  C   UNL     1       8.207  11.818  24.491  0.00  0.00    +0.000 A 
ATOM     24  C   UNL     1       6.898  11.506  24.928  0.00  0.00    +0.000 A 
ATOM     25  C   UNL     1       6.063  11.886  23.905  0.00  0.00    +0.000 A 
ATOM     26  O   UNL     1       6.778  12.405  22.872  0.00  0.00    +0.000 OA
ENDBRANCH   2  22
TORSDOF 2
ENDMDL
MODEL 2
REMARK VINA RESULT:      -6.1      7.475      9.917
REMARK  Name = 
REMARK  2 active torsions:
REMARK  status: ('A' for Active; 'I' for Inactive)
REMARK    1  A    between atoms: C_2  and  C_3
REMARK    2  A    between atoms: N_16  and  C_17
REMARK                            x       y       z     vdW  Elec       q    Type
REMARK                         _______ _______ _______ _____ _____    ______ ____
ROOT
ATOM      1  O   UNL     1      -0.088  13.761  22.184  0.00  0.00    +0.000 OA
ATOM      2  C   UNL     1       0.307  14.491  21.276  0.00  0.00    +0.000 C 
ATOM      3  N   UNL     1       1.433  14.111  20.507  0.00  0.00    +0.000 N 
ATOM      4  C   UNL     1       2.279  15.104  19.845  0.00  0.00    +0.000 C 
ATOM      5  C   UNL     1       2.561  14.805  18.377  0.00  0.00    +0.000 C 
ATOM      6  O   UNL     1       3.343  13.631  18.273  0.00  0.00    +0.000 OA
ATOM      7  C   UNL     1       2.600  12.445  18.028  0.00  0.00    +0.000 C 
ATOM      8  C   UNL     1       1.482  12.016  19.025  0.00  0.00    +0.000 C 
ATOM      9  C   UNL     1       1.868  12.655  20.428  0.00  0.00    +0.000 C 
ATOM     10  C   UNL     1      -0.013  12.388  18.848  0.00  0.00    +0.000 C 
ATOM     11  N   UNL     1      -0.940  11.326  19.379  0.00  0.00    +0.000 N 
ATOM     12  C   UNL     1      -0.958  10.374  18.354  0.00  0.00    +0.000 C 
ATOM     13  O   UNL     1      -1.971  10.052  17.742  0.00  0.00    +0.000 OA
ATOM     14  C   UNL     1       0.488   9.994  17.955  0.00  0.00    +0.000 C 
ATOM     15  O   UNL     1       1.537  10.552  18.825  0.00  0.00    +0.000 OA
ENDROOT
BRANCH  11  16
ATOM     16  C   UNL     1      -0.690  10.741  20.719  0.00  0.00    +0.000 A 
ATOM     17  C   UNL     1       0.053   9.557  20.943  0.00  0.00    +0.000 A 
ATOM     18  C   UNL     1       0.351   9.054  22.212  0.00  0.00    +0.000 A 
ATOM     19  C   UNL     1      -0.200   9.673  23.316  0.00  0.00    +0.000 A 
ATOM     20  C   UNL     1      -1.025  10.777  23.148  0.00  0.00    +0.000 A 
ATOM     21  C   UNL     1      -1.272  11.300  21.857  0.00  0.00    +0.000 A 
ENDBRANCH  11  16
BRANCH   2  22
ATOM     22  C   UNL     1      -0.439  15.716  20.958  0.00  0.00    +0.000 A 
ATOM     23  C   UNL     1      -0.616  16.863  21.722  0.00  0.00    +0.000 A 
ATOM     24  C   UNL     1      -1.453  17.739  20.991  0.00  0.00    +0.000 A 
ATOM     25  C   UNL     1      -1.784  17.064  19.840  0.00  0.00    +0.000 A 
ATOM     26  O   UNL     1      -1.207  15.833  19.824  0.00  0.00    +0.000 OA
ENDBRANCH   2  22
TORSDOF 2
ENDMDL
MODEL 3
REMARK VINA RESULT:      -6.0      7.109      9.490
REMARK  Name = 
REMARK  2 active torsions:
REMARK  status: ('A' for Active; 'I' for Inactive)
REMARK    1  A    between atoms: C_2  and  C_3
REMARK    2  A    between atoms: N_16  and  C_17
REMARK                            x       y       z     vdW  Elec       q    Type
REMARK                         _______ _______ _______ _____ _____    ______ ____
ROOT
ATOM      1  O   UNL     1       2.176  12.899  17.975  0.00  0.00    +0.000 OA
ATOM      2  C   UNL     1       2.280  14.010  18.491  0.00  0.00    +0.000 C 
ATOM      3  N   UNL     1       1.126  14.806  18.687  0.00  0.00    +0.000 N 
ATOM      4  C   UNL     1       1.204  16.266  18.743  0.00  0.00    +0.000 C 
ATOM      5  C   UNL     1       0.480  16.884  19.934  0.00  0.00    +0.000 C 
ATOM      6  O   UNL     1      -0.912  16.665  19.810  0.00  0.00    +0.000 OA
ATOM      7  C   UNL     1      -1.399  15.536  20.523  0.00  0.00    +0.000 C 
ATOM      8  C   UNL     1      -0.809  14.125  20.229  0.00  0.00    +0.000 C 
ATOM      9  C   UNL     1      -0.257  14.175  18.739  0.00  0.00    +0.000 C 
ATOM     10  C   UNL     1       0.358  13.498  21.035  0.00  0.00    +0.000 C 
ATOM     11  N   UNL     1       0.251  12.000  21.139  0.00  0.00    +0.000 N 
ATOM     12  C   UNL     1      -0.682  11.816  22.166  0.00  0.00    +0.000 C 
ATOM     13  O   UNL     1      -0.431  11.233  23.215  0.00  0.00    +0.000 OA
ATOM     14  C   UNL     1      -1.952  12.654  21.888  0.00  0.00    +0.000 C 
ATOM     15  O   UNL     1      -1.990  13.301  20.565  0.00  0.00    +0.000 OA
ENDROOT
BRANCH  11  16
ATOM     16  C   UNL     1      -0.049  11.201  19.925  0.00  0.00    +0.000 A 
ATOM     17  C   UNL     1      -1.350  11.014  19.399  0.00  0.00    +0.000 A 
ATOM     18  C   UNL     1      -1.617  10.327  18.212  0.00  0.00    +0.000 A 
ATOM     19  C   UNL     1      -0.576   9.693  17.565  0.00  0.00    +0.000 A 
ATOM     20  C   UNL     1       0.706   9.755  18.095  0.00  0.00    +0.000 A 
ATOM     21  C   UNL     1       0.962  10.498  19.271  0.00  0.00    +0.000 A 
ENDBRANCH  11  16
BRANCH   2  22
ATOM     22  C   UNL     1       3.595  14.467  18.961  0.00  0.00    +0.000 A 
ATOM     23  C   UNL     1       4.722  14.811  18.226  0.00  0.00    +0.000 A 
ATOM     24  C   UNL     1       5.747  15.142  19.144  0.00  0.00    +0.000 A 
ATOM     25  C   UNL     1       5.209  14.938  20.393  0.00  0.00    +0.000 A 
ATOM     26  O   UNL     1       3.926  14.499  20.295  0.00  0.00    +0.000 OA
ENDBRANCH   2  22
TORSDOF 2
ENDMDL
MODEL 4
REMARK VINA RESULT:      -5.9     11.124     13.620
REMARK  Name = 
REMARK  2 active torsions:
REMARK  status: ('A' for Active; 'I' for Inactive)
REMARK    1  A    between atoms: C_2  and  C_3
REMARK    2  A    between atoms: N_16  and  C_17
REMARK                            x       y       z     vdW  Elec       q    Type
REMARK                         _______ _______ _______ _____ _____    ______ ____
ROOT
ATOM      1  O   UNL     1      -2.874  12.557  20.311  0.00  0.00    +0.000 OA
ATOM      2  C   UNL     1      -2.222  12.711  21.342  0.00  0.00    +0.000 C 
ATOM      3  N   UNL     1      -2.334  13.918  22.073  0.00  0.00    +0.000 N 
ATOM      4  C   UNL     1      -1.245  14.403  22.922  0.00  0.00    +0.000 C 
ATOM      5  C   UNL     1      -1.681  14.805  24.326  0.00  0.00    +0.000 C 
ATOM      6  O   UNL     1      -2.529  15.935  24.256  0.00  0.00    +0.000 OA
ATOM      7  C   UNL     1      -3.918  15.633  24.270  0.00  0.00    +0.000 C 
ATOM      8  C   UNL     1      -4.515  14.696  23.179  0.00  0.00    +0.000 C 
ATOM      9  C   UNL     1      -3.554  14.812  21.918  0.00  0.00    +0.000 C 
ATOM     10  C   UNL     1      -4.695  13.167  23.366  0.00  0.00    +0.000 C 
ATOM     11  N   UNL     1      -5.896  12.632  22.632  0.00  0.00    +0.000 N 
ATOM     12  C   UNL     1      -6.961  12.956  23.479  0.00  0.00    +0.000 C 
ATOM     13  O   UNL     1      -7.699  12.123  23.992  0.00  0.00    +0.000 OA
ATOM     14  C   UNL     1      -6.904  14.456  23.855  0.00  0.00    +0.000 C 
ATOM     15  O   UNL     1      -5.890  15.238  23.128  0.00  0.00    +0.000 OA
ENDROOT
BRANCH  11  16
ATOM     16  C   UNL     1      -6.127  13.028  21.220  0.00  0.00    +0.000 A 
ATOM     17  C   UNL     1      -6.883  14.157  20.826  0.00  0.00    +0.000 A 
ATOM     18  C   UNL     1      -7.032  14.569  19.499  0.00  0.00    +0.000 A 
ATOM     19  C   UNL     1      -6.512  13.775  18.497  0.00  0.00    +0.000 A 
ATOM     20  C   UNL     1      -5.851  12.598  18.822  0.00  0.00    +0.000 A 
ATOM     21  C   UNL     1      -5.668  12.227  20.175  0.00  0.00    +0.000 A 
ENDBRANCH  11  16
BRANCH   2  22
ATOM     22  C   UNL     1      -1.386  11.609  21.838  0.00  0.00    +0.000 A 
ATOM     23  C   UNL     1      -1.391  10.990  23.082  0.00  0.00    +0.000 A 
ATOM     24  C   UNL     1      -0.366  10.015  23.079  0.00  0.00    +0.000 A 
ATOM     25  C   UNL     1       0.245  10.120  21.852  0.00  0.00    +0.000 A 
ATOM     26  O   UNL     1      -0.338  11.098  21.110  0.00  0.00    +0.000 OA
ENDBRANCH   2  22
TORSDOF 2
ENDMDL
MODEL 5
REMARK VINA RESULT:      -5.8      7.593     10.222
REMARK  Name = 
REMARK  2 active torsions:
REMARK  status: ('A' for Active; 'I' for Inactive)
REMARK    1  A    between atoms: C_2  and  C_3
REMARK    2  A    between atoms: N_16  and  C_17
REMARK                            x       y       z     vdW  Elec       q    Type
REMARK                         _______ _______ _______ _____ _____    ______ ____
ROOT
ATOM      1  O   UNL     1      -0.394  14.748  21.496  0.00  0.00    +0.000 OA
ATOM      2  C   UNL     1       0.224  15.252  20.560  0.00  0.00    +0.000 C 
ATOM      3  N   UNL     1       1.386  14.616  20.060  0.00  0.00    +0.000 N 
ATOM      4  C   UNL     1       2.448  15.372  19.396  0.00  0.00    +0.000 C 
ATOM      5  C   UNL     1       2.895  14.782  18.064  0.00  0.00    +0.000 C 
ATOM      6  O   UNL     1       3.515  13.530  18.283  0.00  0.00    +0.000 OA
ATOM      7  C   UNL     1       2.658  12.408  18.114  0.00  0.00    +0.000 C 
ATOM      8  C   UNL     1       1.359  12.295  18.967  0.00  0.00    +0.000 C 
ATOM      9  C   UNL     1       1.623  13.131  20.292  0.00  0.00    +0.000 C 
ATOM     10  C   UNL     1      -0.028  12.791  18.486  0.00  0.00    +0.000 C 
ATOM     11  N   UNL     1      -1.160  11.953  19.020  0.00  0.00    +0.000 N 
ATOM     12  C   UNL     1      -1.161  10.838  18.175  0.00  0.00    +0.000 C 
ATOM     13  O   UNL     1      -2.109  10.525  17.464  0.00  0.00    +0.000 OA
ATOM     14  C   UNL     1       0.261  10.234  18.089  0.00  0.00    +0.000 C 
ATOM     15  O   UNL     1       1.240  10.822  19.019  0.00  0.00    +0.000 OA
ENDROOT
BRANCH  11  16
ATOM     16  C   UNL     1      -1.189  11.597  20.461  0.00  0.00    +0.000 A 
ATOM     17  C   UNL     1      -0.512  10.487  21.018  0.00  0.00    +0.000 A 
ATOM     18  C   UNL     1      -0.479  10.203  22.386  0.00  0.00    +0.000 A 
ATOM     19  C   UNL     1      -1.240  10.973  23.241  0.00  0.00    +0.000 A 
ATOM     20  C   UNL     1      -2.010  12.011  22.734  0.00  0.00    +0.000 A 
ATOM     21  C   UNL     1      -1.988  12.313  21.352  0.00  0.00    +0.000 A 
ENDBRANCH  11  16
BRANCH   2  22
ATOM     22  C   UNL     1      -0.292  16.474  19.928  0.00  0.00    +0.000 A 
ATOM     23  C   UNL     1      -0.824  16.651  18.657  0.00  0.00    +0.000 A 
ATOM     24  C   UNL     1      -1.134  18.024  18.511  0.00  0.00    +0.000 A 
ATOM     25  C   UNL     1      -0.733  18.624  19.681  0.00  0.00    +0.000 A 
ATOM     26  O   UNL     1      -0.194  17.707  20.527  0.00  0.00    +0.000 OA
ENDBRANCH   2  22
TORSDOF 2
ENDMDL
MODEL 6
REMARK VINA RESULT:      -5.7     11.433     13.691
REMARK  Name = 
REMARK  2 active torsions:
REMARK  status: ('A' for Active; 'I' for Inactive)
REMARK    1  A    between atoms: C_2  and  C_3
REMARK    2  A    between atoms: N_16  and  C_17
REMARK                            x       y       z     vdW  Elec       q    Type
REMARK                         _______ _______ _______ _____ _____    ______ ____
ROOT
ATOM      1  O   UNL     1      -2.703  12.384  19.489  0.00  0.00    +0.000 OA
ATOM      2  C   UNL     1      -2.249  12.677  20.593  0.00  0.00    +0.000 C 
ATOM      3  N   UNL     1      -2.654  13.877  21.226  0.00  0.00    +0.000 N 
ATOM      4  C   UNL     1      -1.796  14.560  22.194  0.00  0.00    +0.000 C 
ATOM      5  C   UNL     1      -2.499  14.939  23.492  0.00  0.00    +0.000 C 
ATOM      6  O   UNL     1      -3.487  15.916  23.230  0.00  0.00    +0.000 OA
ATOM      7  C   UNL     1      -4.800  15.398  23.059  0.00  0.00    +0.000 C 
ATOM      8  C   UNL     1      -5.072  14.338  21.951  0.00  0.00    +0.000 C 
ATOM      9  C   UNL     1      -3.957  14.560  20.840  0.00  0.00    +0.000 C 
ATOM     10  C   UNL     1      -5.045  12.809  22.202  0.00  0.00    +0.000 C 
ATOM     11  N   UNL     1      -6.023  12.062  21.334  0.00  0.00    +0.000 N 
ATOM     12  C   UNL     1      -7.243  12.244  21.995  0.00  0.00    +0.000 C 
ATOM     13  O   UNL     1      -7.917  11.323  22.444  0.00  0.00    +0.000 OA
ATOM     14  C   UNL     1      -7.472  13.746  22.284  0.00  0.00    +0.000 C 
ATOM     15  O   UNL     1      -6.489  14.653  21.667  0.00  0.00    +0.000 OA
ENDROOT
BRANCH  11  16
ATOM     16  C   UNL     1      -6.092  12.364  19.882  0.00  0.00    +0.000 A 
ATOM     17  C   UNL     1      -6.943  13.341  19.314  0.00  0.00    +0.000 A 
ATOM     18  C   UNL     1      -6.946  13.675  17.957  0.00  0.00    +0.000 A 
ATOM     19  C   UNL     1      -6.161  12.940  17.092  0.00  0.00    +0.000 A 
ATOM     20  C   UNL     1      -5.385  11.897  17.581  0.00  0.00    +0.000 A 
ATOM     21  C   UNL     1      -5.359  11.610  18.966  0.00  0.00    +0.000 A 
ENDBRANCH  11  16
BRANCH   2  22
ATOM     22  C   UNL     1      -1.343  11.741  21.272  0.00  0.00    +0.000 A 
ATOM     23  C   UNL     1      -0.218  11.090  20.781  0.00  0.00    +0.000 A 
ATOM     24  C   UNL     1       0.283  10.262  21.813  0.00  0.00    +0.000 A 
ATOM     25  C   UNL     1      -0.588  10.412  22.867  0.00  0.00    +0.000 A 
ATOM     26  O   UNL     1      -1.588  11.273  22.541  0.00  0.00    +0.000 OA
ENDBRANCH   2  22
TORSDOF 2
ENDMDL
MODEL 7
REMARK VINA RESULT:      -5.6      8.865     10.322
REMARK  Name = 
REMARK  2 active torsions:
REMARK  status: ('A' for Active; 'I' for Inactive)
REMARK    1  A    between atoms: C_2  and  C_3
REMARK    2  A    between atoms: N_16  and  C_17
REMARK                            x       y       z     vdW  Elec       q    Type
REMARK                         _______ _______ _______ _____ _____    ______ ____
ROOT
ATOM      1  O   UNL     1      -0.507  12.936  23.450  0.00  0.00    +0.000 OA
ATOM      2  C   UNL     1      -0.791  14.083  23.109  0.00  0.00    +0.000 C 
ATOM      3  N   UNL     1      -0.126  14.676  22.009  0.00  0.00    +0.000 N 
ATOM      4  C   UNL     1       0.025  16.127  21.896  0.00  0.00    +0.000 C 
ATOM      5  C   UNL     1      -0.377  16.693  20.539  0.00  0.00    +0.000 C 
ATOM      6  O   UNL     1       0.513  16.224  19.545  0.00  0.00    +0.000 OA
ATOM      7  C   UNL     1       0.055  15.082  18.833  0.00  0.00    +0.000 C 
ATOM      8  C   UNL     1      -0.299  13.779  19.611  0.00  0.00    +0.000 C 
ATOM      9  C   UNL     1       0.552  13.817  20.952  0.00  0.00    +0.000 C 
ATOM     10  C   UNL     1      -1.731  13.429  20.090  0.00  0.00    +0.000 C 
ATOM     11  N   UNL     1      -1.998  11.947  20.084  0.00  0.00    +0.000 N 
ATOM     12  C   UNL     1      -2.280  11.677  18.740  0.00  0.00    +0.000 C 
ATOM     13  O   UNL     1      -3.351  11.226  18.348  0.00  0.00    +0.000 OA
ATOM     14  C   UNL     1      -1.167  12.255  17.836  0.00  0.00    +0.000 C 
ATOM     15  O   UNL     1       0.003  12.786  18.557  0.00  0.00    +0.000 OA
ENDROOT
BRANCH  11  16
ATOM     16  C   UNL     1      -0.996  11.021  20.670  0.00  0.00    +0.000 A 
ATOM     17  C   UNL     1      -0.047  10.296  19.912  0.00  0.00    +0.000 A 
ATOM     18  C   UNL     1       0.944   9.487  20.476  0.00  0.00    +0.000 A 
ATOM     19  C   UNL     1       0.936   9.284  21.841  0.00  0.00    +0.000 A 
ATOM     20  C   UNL     1      -0.040   9.887  22.623  0.00  0.00    +0.000 A 
ATOM     21  C   UNL     1      -1.002  10.743  22.037  0.00  0.00    +0.000 A 
ENDBRANCH  11  16
BRANCH   2  22
ATOM     22  C   UNL     1      -1.867  14.798  23.808  0.00  0.00    +0.000 A 
ATOM     23  C   UNL     1      -1.896  15.299  25.103  0.00  0.00    +0.000 A 
ATOM     24  C   UNL     1      -3.177  15.863  25.316  0.00  0.00    +0.000 A 
ATOM     25  C   UNL     1      -3.881  15.637  24.157  0.00  0.00    +0.000 A 
ATOM     26  O   UNL     1      -3.115  14.968  23.255  0.00  0.00    +0.000 OA
ENDBRANCH   2  22
TORSDOF 2
ENDMDL
MODEL 8
REMARK VINA RESULT:      -5.5      7.237      9.366
REMARK  Name = 
REMARK  2 active torsions:
REMARK  status: ('A' for Active; 'I' for Inactive)
REMARK    1  A    between atoms: C_2  and  C_3
REMARK    2  A    between atoms: N_16  and  C_17
REMARK                            x       y       z     vdW  Elec       q    Type
REMARK                         _______ _______ _______ _____ _____    ______ ____
ROOT
ATOM      1  O   UNL     1       2.485  12.858  19.168  0.00  0.00    +0.000 OA
ATOM      2  C   UNL     1       2.456  13.945  19.742  0.00  0.00    +0.000 C 
ATOM      3  N   UNL     1       1.315  14.774  19.623  0.00  0.00    +0.000 N 
ATOM      4  C   UNL     1       1.405  16.228  19.766  0.00  0.00    +0.000 C 
ATOM      5  C   UNL     1       0.374  16.827  20.716  0.00  0.00    +0.000 C 
ATOM      6  O   UNL     1      -0.923  16.661  20.176  0.00  0.00    +0.000 OA
ATOM      7  C   UNL     1      -1.625  15.525  20.661  0.00  0.00    +0.000 C 
ATOM      8  C   UNL     1      -1.006  14.105  20.491  0.00  0.00    +0.000 C 
ATOM      9  C   UNL     1      -0.035  14.191  19.235  0.00  0.00    +0.000 C 
ATOM     10  C   UNL     1      -0.145  13.409  21.577  0.00  0.00    +0.000 C 
ATOM     11  N   UNL     1      -0.313  11.913  21.577  0.00  0.00    +0.000 N 
ATOM     12  C   UNL     1      -1.513  11.725  22.273  0.00  0.00    +0.000 C 
ATOM     13  O   UNL     1      -1.598  11.096  23.322  0.00  0.00    +0.000 OA
ATOM     14  C   UNL     1      -2.623  12.616  21.670  0.00  0.00    +0.000 C 
ATOM     15  O   UNL     1      -2.252  13.311  20.425  0.00  0.00    +0.000 OA
ENDROOT
BRANCH  11  16
ATOM     16  C   UNL     1      -0.257  11.170  20.293  0.00  0.00    +0.000 A 
ATOM     17  C   UNL     1      -1.366  10.982  19.436  0.00  0.00    +0.000 A 
ATOM     18  C   UNL     1      -1.289  10.350  18.192  0.00  0.00    +0.000 A 
ATOM     19  C   UNL     1      -0.094   9.771  17.816  0.00  0.00    +0.000 A 
ATOM     20  C   UNL     1       1.001   9.833  18.668  0.00  0.00    +0.000 A 
ATOM     21  C   UNL     1       0.914  10.522  19.900  0.00  0.00    +0.000 A 
ENDBRANCH  11  16
BRANCH   2  22
ATOM     22  C   UNL     1       3.582  14.339  20.600  0.00  0.00    +0.000 A 
ATOM     23  C   UNL     1       4.791  14.928  20.252  0.00  0.00    +0.000 A 
ATOM     24  C   UNL     1       5.556  15.066  21.434  0.00  0.00    +0.000 A 
ATOM     25  C   UNL     1       4.797  14.511  22.436  0.00  0.00    +0.000 A 
ATOM     26  O   UNL     1       3.622  14.040  21.941  0.00  0.00    +0.000 OA
ENDBRANCH   2  22
TORSDOF 2
ENDMDL
MODEL 9
REMARK VINA RESULT:      -5.5      9.818     12.424
REMARK  Name = 
REMARK  2 active torsions:
REMARK  status: ('A' for Active; 'I' for Inactive)
REMARK    1  A    between atoms: C_2  and  C_3
REMARK    2  A    between atoms: N_16  and  C_17
REMARK                            x       y       z     vdW  Elec       q    Type
REMARK                         _______ _______ _______ _____ _____    ______ ____
ROOT
ATOM      1  O   UNL     1      -2.502  12.290  19.041  0.00  0.00    +0.000 OA
ATOM      2  C   UNL     1      -1.405  12.363  19.592  0.00  0.00    +0.000 C 
ATOM      3  N   UNL     1      -1.031  13.552  20.264  0.00  0.00    +0.000 N 
ATOM      4  C   UNL     1       0.373  13.929  20.431  0.00  0.00    +0.000 C 
ATOM      5  C   UNL     1       0.749  14.317  21.856  0.00  0.00    +0.000 C 
ATOM      6  O   UNL     1       0.077  15.509  22.217  0.00  0.00    +0.000 OA
ATOM      7  C   UNL     1      -1.129  15.309  22.944  0.00  0.00    +0.000 C 
ATOM      8  C   UNL     1      -2.271  14.453  22.322  0.00  0.00    +0.000 C 
ATOM      9  C   UNL     1      -2.084  14.538  20.746  0.00  0.00    +0.000 C 
ATOM     10  C   UNL     1      -2.451  12.937  22.592  0.00  0.00    +0.000 C 
ATOM     11  N   UNL     1      -3.896  12.514  22.581  0.00  0.00    +0.000 N 
ATOM     12  C   UNL     1      -4.349  12.890  23.851  0.00  0.00    +0.000 C 
ATOM     13  O   UNL     1      -4.785  12.097  24.679  0.00  0.00    +0.000 OA
ATOM     14  C   UNL     1      -3.989  14.368  24.128  0.00  0.00    +0.000 C 
ATOM     15  O   UNL     1      -3.431  15.096  22.976  0.00  0.00    +0.000 OA
ENDROOT
BRANCH  11  16
ATOM     16  C   UNL     1      -4.784  12.970  21.483  0.00  0.00    +0.000 A 
ATOM     17  C   UNL     1      -5.569  14.147  21.533  0.00  0.00    +0.000 A 
ATOM     18  C   UNL     1      -6.342  14.611  20.465  0.00  0.00    +0.000 A 
ATOM     19  C   UNL     1      -6.445  13.830  19.333  0.00  0.00    +0.000 A 
ATOM     20  C   UNL     1      -5.780  12.613  19.271  0.00  0.00    +0.000 A 
ATOM     21  C   UNL     1      -4.963  12.186  20.344  0.00  0.00    +0.000 A 
ENDBRANCH  11  16
BRANCH   2  22
ATOM     22  C   UNL     1      -0.523  11.188  19.602  0.00  0.00    +0.000 A 
ATOM     23  C   UNL     1      -0.279  10.278  20.623  0.00  0.00    +0.000 A 
ATOM     24  C   UNL     1       0.683   9.353  20.153  0.00  0.00    +0.000 A 
ATOM     25  C   UNL     1       1.014   9.773  18.886  0.00  0.00    +0.000 A 
ATOM     26  O   UNL     1       0.321  10.894  18.557  0.00  0.00    +0.000 OA
ENDBRANCH   2  22
TORSDOF 2
ENDMDL
