MODEL 1
REMARK VINA RESULT:      -8.0      0.000      0.000
REMARK  Name = 
REMARK  11 active torsions:
REMARK  status: ('A' for Active; 'I' for Inactive)
REMARK    1  A    between atoms: C_1  and  C_2
REMARK    2  A    between atoms: C_2  and  C_3
REMARK    3  A    between atoms: C_2  and  C_4
REMARK    4  A    between atoms: C_4  and  C_5
REMARK    5  A    between atoms: C_5  and  N_6
REMARK    6  A    between atoms: C_5  and  C_7
REMARK    7  A    between atoms: N_9  and  S_10
REMARK    8  A    between atoms: S_10  and  C_13
REMARK    9  A    between atoms: C_17  and  N_18
REMARK   10  A    between atoms: C_19  and  C_21
REMARK   11  A    between atoms: C_24  and  O_25
REMARK                            x       y       z     vdW  Elec       q    Type
REMARK                         _______ _______ _______ _____ _____    ______ ____
ROOT
ATOM      1  C   UNL     1       5.275   4.949  17.868  0.00  0.00    +0.000 A 
ATOM      2  C   UNL     1       4.671   3.829  17.289  0.00  0.00    +0.000 A 
ATOM      3  C   UNL     1       3.308   3.623  17.470  0.00  0.00    +0.000 A 
ATOM      4  C   UNL     1       2.557   4.534  18.213  0.00  0.00    +0.000 A 
ATOM      5  C   UNL     1       3.153   5.653  18.802  0.00  0.00    +0.000 A 
ATOM      6  C   UNL     1       4.524   5.865  18.618  0.00  0.00    +0.000 A 
ENDROOT
BRANCH   5   7
ATOM      7  N   UNL     1       2.420   6.609  19.541  0.00  0.00    +0.000 N 
ATOM      8  C   UNL     1       2.038   7.861  19.086  0.00  0.00    +0.000 C 
ATOM      9  O   UNL     1       2.210   8.301  17.953  0.00  0.00    +0.000 OA
ATOM     10  H   UNL     1       2.166   6.334  20.481  0.00  0.00    +0.000 HD
BRANCH   8  11
ATOM     11  C   UNL     1       1.357   8.751  20.066  0.00  0.00    +0.000 A 
ATOM     12  C   UNL     1       1.371   8.358  21.415  0.00  0.00    +0.000 A 
ATOM     13  C   UNL     1       0.770   9.153  22.391  0.00  0.00    +0.000 A 
ATOM     14  C   UNL     1       0.160  10.344  22.014  0.00  0.00    +0.000 A 
ATOM     15  C   UNL     1       0.145  10.750  20.683  0.00  0.00    +0.000 A 
ATOM     16  C   UNL     1       0.747   9.957  19.704  0.00  0.00    +0.000 A 
BRANCH  14  17
ATOM     17  O   UNL     1      -0.432  11.158  22.933  0.00  0.00    +0.000 OA
ATOM     18  H   UNL     1      -0.019  12.035  22.882  0.00  0.00    +0.000 HD
ENDBRANCH  14  17
ENDBRANCH   8  11
ENDBRANCH   5   7
BRANCH   1  19
ATOM     19  S   UNL     1       6.993   5.256  17.548  0.00  0.00    +0.000 S 
ATOM     20  O   UNL     1       7.787   4.325  18.323  0.00  0.00    +0.000 OA
ATOM     21  O   UNL     1       7.217   6.682  17.659  0.00  0.00    +0.000 OA
BRANCH  19  24
ATOM     22  C   UNL     1       6.382   5.529  14.928  0.00  0.00    +0.000 C 
ATOM     23  O   UNL     1       5.596   6.436  15.173  0.00  0.00    +0.000 OA
ATOM     24  N   UNL     1       7.148   4.906  15.930  0.00  0.00    +0.000 N 
ATOM     25  H   UNL     1       7.789   4.143  15.734  0.00  0.00    +0.000 HD
BRANCH  22  26
ATOM     26  C   UNL     1       6.549   4.968  13.508  0.00  0.00    +0.000 C 
BRANCH  26  27
ATOM     27  N   UNL     1       7.881   5.373  13.000  0.00  0.00    +0.000 NA
ATOM     28  H   UNL     1       8.439   4.520  12.864  0.00  0.00    +0.000 HD
ATOM     29  H   UNL     1       8.387   5.890  13.721  0.00  0.00    +0.000 HD
ENDBRANCH  26  27
BRANCH  26  30
ATOM     30  C   UNL     1       6.475   3.432  13.540  0.00  0.00    +0.000 C 
BRANCH  30  32
ATOM     31  C   UNL     1       4.711   3.660  11.690  0.00  0.00    +0.000 C 
ATOM     32  C   UNL     1       5.774   2.769  12.334  0.00  0.00    +0.000 C 
ATOM     33  C   UNL     1       6.818   2.387  11.279  0.00  0.00    +0.000 C 
ENDBRANCH  30  32
ENDBRANCH  26  30
ENDBRANCH  22  26
ENDBRANCH  19  24
ENDBRANCH   1  19
TORSDOF 9
ENDMDL
MODEL 2
REMARK VINA RESULT:      -7.8      0.971      1.503
REMARK  Name = 
REMARK  11 active torsions:
REMARK  status: ('A' for Active; 'I' for Inactive)
REMARK    1  A    between atoms: C_1  and  C_2
REMARK    2  A    between atoms: C_2  and  C_3
REMARK    3  A    between atoms: C_2  and  C_4
REMARK    4  A    between atoms: C_4  and  C_5
REMARK    5  A    between atoms: C_5  and  N_6
REMARK    6  A    between atoms: C_5  and  C_7
REMARK    7  A    between atoms: N_9  and  S_10
REMARK    8  A    between atoms: S_10  and  C_13
REMARK    9  A    between atoms: C_17  and  N_18
REMARK   10  A    between atoms: C_19  and  C_21
REMARK   11  A    between atoms: C_24  and  O_25
REMARK                            x       y       z     vdW  Elec       q    Type
REMARK                         _______ _______ _______ _____ _____    ______ ____
ROOT
ATOM      1  C   UNL     1       4.700   4.950  17.382  0.00  0.00    +0.000 A 
ATOM      2  C   UNL     1       4.070   3.745  17.057  0.00  0.00    +0.000 A 
ATOM      3  C   UNL     1       2.805   3.480  17.567  0.00  0.00    +0.000 A 
ATOM      4  C   UNL     1       2.172   4.415  18.385  0.00  0.00    +0.000 A 
ATOM      5  C   UNL     1       2.795   5.620  18.723  0.00  0.00    +0.000 A 
ATOM      6  C   UNL     1       4.067   5.892  18.206  0.00  0.00    +0.000 A 
ENDROOT
BRANCH   5   7
ATOM      7  N   UNL     1       2.176   6.601  19.529  0.00  0.00    +0.000 N 
ATOM      8  C   UNL     1       1.839   7.884  19.125  0.00  0.00    +0.000 C 
ATOM      9  O   UNL     1       1.957   8.338  17.991  0.00  0.00    +0.000 OA
ATOM     10  H   UNL     1       1.973   6.322  20.479  0.00  0.00    +0.000 HD
BRANCH   8  11
ATOM     11  C   UNL     1       1.284   8.791  20.167  0.00  0.00    +0.000 A 
ATOM     12  C   UNL     1       0.801  10.041  19.744  0.00  0.00    +0.000 A 
ATOM     13  C   UNL     1       0.248  10.935  20.662  0.00  0.00    +0.000 A 
ATOM     14  C   UNL     1       0.176  10.572  22.002  0.00  0.00    +0.000 A 
ATOM     15  C   UNL     1       0.644   9.334  22.434  0.00  0.00    +0.000 A 
ATOM     16  C   UNL     1       1.196   8.438  21.517  0.00  0.00    +0.000 A 
BRANCH  14  17
ATOM     17  O   UNL     1      -0.363  11.407  22.933  0.00  0.00    +0.000 OA
ATOM     18  H   UNL     1       0.347  11.726  23.513  0.00  0.00    +0.000 HD
ENDBRANCH  14  17
ENDBRANCH   8  11
ENDBRANCH   5   7
BRANCH   1  19
ATOM     19  S   UNL     1       6.270   5.322  16.645  0.00  0.00    +0.000 S 
ATOM     20  O   UNL     1       7.292   4.531  17.297  0.00  0.00    +0.000 OA
ATOM     21  O   UNL     1       6.393   6.763  16.568  0.00  0.00    +0.000 OA
BRANCH  19  24
ATOM     22  C   UNL     1       7.027   5.068  14.061  0.00  0.00    +0.000 C 
ATOM     23  O   UNL     1       8.093   5.628  14.285  0.00  0.00    +0.000 OA
ATOM     24  N   UNL     1       6.086   4.808  15.075  0.00  0.00    +0.000 N 
ATOM     25  H   UNL     1       5.194   4.359  14.891  0.00  0.00    +0.000 HD
BRANCH  22  26
ATOM     26  C   UNL     1       6.616   4.655  12.640  0.00  0.00    +0.000 C 
BRANCH  26  27
ATOM     27  N   UNL     1       7.832   4.224  11.909  0.00  0.00    +0.000 NA
ATOM     28  H   UNL     1       8.327   5.068  11.595  0.00  0.00    +0.000 HD
ATOM     29  H   UNL     1       7.567   3.752  11.042  0.00  0.00    +0.000 HD
ENDBRANCH  26  27
BRANCH  26  30
ATOM     30  C   UNL     1       5.630   3.475  12.703  0.00  0.00    +0.000 C 
BRANCH  30  32
ATOM     31  C   UNL     1       5.708   1.330  11.297  0.00  0.00    +0.000 C 
ATOM     32  C   UNL     1       5.302   2.803  11.351  0.00  0.00    +0.000 C 
ATOM     33  C   UNL     1       3.801   2.923  11.069  0.00  0.00    +0.000 C 
ENDBRANCH  30  32
ENDBRANCH  26  30
ENDBRANCH  22  26
ENDBRANCH  19  24
ENDBRANCH   1  19
TORSDOF 9
ENDMDL
MODEL 3
REMARK VINA RESULT:      -7.8      0.963      1.458
REMARK  Name = 
REMARK  11 active torsions:
REMARK  status: ('A' for Active; 'I' for Inactive)
REMARK    1  A    between atoms: C_1  and  C_2
REMARK    2  A    between atoms: C_2  and  C_3
REMARK    3  A    between atoms: C_2  and  C_4
REMARK    4  A    between atoms: C_4  and  C_5
REMARK    5  A    between atoms: C_5  and  N_6
REMARK    6  A    between atoms: C_5  and  C_7
REMARK    7  A    between atoms: N_9  and  S_10
REMARK    8  A    between atoms: S_10  and  C_13
REMARK    9  A    between atoms: C_17  and  N_18
REMARK   10  A    between atoms: C_19  and  C_21
REMARK   11  A    between atoms: C_24  and  O_25
REMARK                            x       y       z     vdW  Elec       q    Type
REMARK                         _______ _______ _______ _____ _____    ______ ____
ROOT
ATOM      1  C   UNL     1       5.425   4.995  17.644  0.00  0.00    +0.000 A 
ATOM      2  C   UNL     1       4.767   3.829  17.243  0.00  0.00    +0.000 A 
ATOM      3  C   UNL     1       3.391   3.733  17.410  0.00  0.00    +0.000 A 
ATOM      4  C   UNL     1       2.678   4.798  17.962  0.00  0.00    +0.000 A 
ATOM      5  C   UNL     1       3.328   5.966  18.373  0.00  0.00    +0.000 A 
ATOM      6  C   UNL     1       4.713   6.066  18.202  0.00  0.00    +0.000 A 
ENDROOT
BRANCH   5   7
ATOM      7  N   UNL     1       2.637   7.074  18.915  0.00  0.00    +0.000 N 
ATOM      8  C   UNL     1       1.951   7.087  20.118  0.00  0.00    +0.000 C 
ATOM      9  O   UNL     1       1.901   6.168  20.931  0.00  0.00    +0.000 OA
ATOM     10  H   UNL     1       2.658   7.917  18.357  0.00  0.00    +0.000 HD
BRANCH   8  11
ATOM     11  C   UNL     1       1.207   8.333  20.453  0.00  0.00    +0.000 A 
ATOM     12  C   UNL     1       1.127   9.324  19.460  0.00  0.00    +0.000 A 
ATOM     13  C   UNL     1       0.429  10.509  19.696  0.00  0.00    +0.000 A 
ATOM     14  C   UNL     1      -0.192  10.696  20.925  0.00  0.00    +0.000 A 
ATOM     15  C   UNL     1      -0.129   9.720  21.915  0.00  0.00    +0.000 A 
ATOM     16  C   UNL     1       0.568   8.533  21.681  0.00  0.00    +0.000 A 
BRANCH  14  17
ATOM     17  O   UNL     1      -0.893  11.832  21.198  0.00  0.00    +0.000 OA
ATOM     18  H   UNL     1      -1.765  11.583  21.545  0.00  0.00    +0.000 HD
ENDBRANCH  14  17
ENDBRANCH   8  11
ENDBRANCH   5   7
BRANCH   1  19
ATOM     19  S   UNL     1       7.165   5.146  17.335  0.00  0.00    +0.000 S 
ATOM     20  O   UNL     1       7.859   4.086  18.036  0.00  0.00    +0.000 OA
ATOM     21  O   UNL     1       7.534   6.530  17.544  0.00  0.00    +0.000 OA
BRANCH  19  24
ATOM     22  C   UNL     1       6.467   5.551  14.754  0.00  0.00    +0.000 C 
ATOM     23  O   UNL     1       5.658   6.413  15.074  0.00  0.00    +0.000 OA
ATOM     24  N   UNL     1       7.284   4.898  15.695  0.00  0.00    +0.000 N 
ATOM     25  H   UNL     1       7.945   4.172  15.435  0.00  0.00    +0.000 HD
BRANCH  22  26
ATOM     26  C   UNL     1       6.611   5.082  13.298  0.00  0.00    +0.000 C 
BRANCH  26  27
ATOM     27  N   UNL     1       8.031   5.232  12.897  0.00  0.00    +0.000 NA
ATOM     28  H   UNL     1       8.235   6.237  12.830  0.00  0.00    +0.000 HD
ATOM     29  H   UNL     1       8.161   4.886  11.944  0.00  0.00    +0.000 HD
ENDBRANCH  26  27
BRANCH  26  30
ATOM     30  C   UNL     1       6.217   3.598  13.186  0.00  0.00    +0.000 C 
BRANCH  30  32
ATOM     31  C   UNL     1       6.203   1.663  11.500  0.00  0.00    +0.000 C 
ATOM     32  C   UNL     1       5.815   3.117  11.774  0.00  0.00    +0.000 C 
ATOM     33  C   UNL     1       4.303   3.279  11.588  0.00  0.00    +0.000 C 
ENDBRANCH  30  32
ENDBRANCH  26  30
ENDBRANCH  22  26
ENDBRANCH  19  24
ENDBRANCH   1  19
TORSDOF 9
ENDMDL
MODEL 4
REMARK VINA RESULT:      -7.6      2.052      2.762
REMARK  Name = 
REMARK  11 active torsions:
REMARK  status: ('A' for Active; 'I' for Inactive)
REMARK    1  A    between atoms: C_1  and  C_2
REMARK    2  A    between atoms: C_2  and  C_3
REMARK    3  A    between atoms: C_2  and  C_4
REMARK    4  A    between atoms: C_4  and  C_5
REMARK    5  A    between atoms: C_5  and  N_6
REMARK    6  A    between atoms: C_5  and  C_7
REMARK    7  A    between atoms: N_9  and  S_10
REMARK    8  A    between atoms: S_10  and  C_13
REMARK    9  A    between atoms: C_17  and  N_18
REMARK   10  A    between atoms: C_19  and  C_21
REMARK   11  A    between atoms: C_24  and  O_25
REMARK                            x       y       z     vdW  Elec       q    Type
REMARK                         _______ _______ _______ _____ _____    ______ ____
ROOT
ATOM      1  C   UNL     1       3.828   5.006  19.624  0.00  0.00    +0.000 A 
ATOM      2  C   UNL     1       2.982   4.067  20.221  0.00  0.00    +0.000 A 
ATOM      3  C   UNL     1       1.696   4.447  20.587  0.00  0.00    +0.000 A 
ATOM      4  C   UNL     1       1.259   5.750  20.350  0.00  0.00    +0.000 A 
ATOM      5  C   UNL     1       2.099   6.699  19.760  0.00  0.00    +0.000 A 
ATOM      6  C   UNL     1       3.392   6.317  19.386  0.00  0.00    +0.000 A 
ENDROOT
BRANCH   5   7
ATOM      7  N   UNL     1       1.684   8.020  19.483  0.00  0.00    +0.000 N 
ATOM      8  C   UNL     1       1.151   8.910  20.403  0.00  0.00    +0.000 C 
ATOM      9  O   UNL     1       1.030   8.714  21.609  0.00  0.00    +0.000 OA
ATOM     10  H   UNL     1       1.791   8.320  18.523  0.00  0.00    +0.000 HD
BRANCH   8  11
ATOM     11  C   UNL     1       0.684  10.221  19.876  0.00  0.00    +0.000 A 
ATOM     12  C   UNL     1      -0.358  10.206  18.934  0.00  0.00    +0.000 A 
ATOM     13  C   UNL     1      -0.861  11.398  18.413  0.00  0.00    +0.000 A 
ATOM     14  C   UNL     1      -0.320  12.606  18.840  0.00  0.00    +0.000 A 
ATOM     15  C   UNL     1       0.708  12.637  19.778  0.00  0.00    +0.000 A 
ATOM     16  C   UNL     1       1.211  11.445  20.303  0.00  0.00    +0.000 A 
BRANCH  14  17
ATOM     17  O   UNL     1      -0.783  13.796  18.366  0.00  0.00    +0.000 OA
ATOM     18  H   UNL     1      -0.519  14.499  18.981  0.00  0.00    +0.000 HD
ENDBRANCH  14  17
ENDBRANCH   8  11
ENDBRANCH   5   7
BRANCH   1  19
ATOM     19  S   UNL     1       5.430   4.484  19.069  0.00  0.00    +0.000 S 
ATOM     20  O   UNL     1       5.592   3.076  19.362  0.00  0.00    +0.000 OA
ATOM     21  O   UNL     1       6.400   5.450  19.543  0.00  0.00    +0.000 OA
BRANCH  19  24
ATOM     22  C   UNL     1       6.475   4.611  16.577  0.00  0.00    +0.000 C 
ATOM     23  O   UNL     1       7.580   4.281  16.989  0.00  0.00    +0.000 OA
ATOM     24  N   UNL     1       5.354   4.704  17.422  0.00  0.00    +0.000 N 
ATOM     25  H   UNL     1       4.440   4.993  17.088  0.00  0.00    +0.000 HD
BRANCH  22  26
ATOM     26  C   UNL     1       6.245   5.000  15.110  0.00  0.00    +0.000 C 
BRANCH  26  27
ATOM     27  N   UNL     1       7.520   5.515  14.557  0.00  0.00    +0.000 NA
ATOM     28  H   UNL     1       7.303   6.330  13.969  0.00  0.00    +0.000 HD
ATOM     29  H   UNL     1       7.917   4.836  13.905  0.00  0.00    +0.000 HD
ENDBRANCH  26  27
BRANCH  26  30
ATOM     30  C   UNL     1       5.818   3.762  14.301  0.00  0.00    +0.000 C 
BRANCH  30  32
ATOM     31  C   UNL     1       6.987   3.084  12.120  0.00  0.00    +0.000 C 
ATOM     32  C   UNL     1       5.875   3.912  12.764  0.00  0.00    +0.000 C 
ATOM     33  C   UNL     1       4.528   3.508  12.158  0.00  0.00    +0.000 C 
ENDBRANCH  30  32
ENDBRANCH  26  30
ENDBRANCH  22  26
ENDBRANCH  19  24
ENDBRANCH   1  19
TORSDOF 9
ENDMDL
MODEL 5
REMARK VINA RESULT:      -7.6      4.841      7.057
REMARK  Name = 
REMARK  11 active torsions:
REMARK  status: ('A' for Active; 'I' for Inactive)
REMARK    1  A    between atoms: C_1  and  C_2
REMARK    2  A    between atoms: C_2  and  C_3
REMARK    3  A    between atoms: C_2  and  C_4
REMARK    4  A    between atoms: C_4  and  C_5
REMARK    5  A    between atoms: C_5  and  N_6
REMARK    6  A    between atoms: C_5  and  C_7
REMARK    7  A    between atoms: N_9  and  S_10
REMARK    8  A    between atoms: S_10  and  C_13
REMARK    9  A    between atoms: C_17  and  N_18
REMARK   10  A    between atoms: C_19  and  C_21
REMARK   11  A    between atoms: C_24  and  O_25
REMARK                            x       y       z     vdW  Elec       q    Type
REMARK                         _______ _______ _______ _____ _____    ______ ____
ROOT
ATOM      1  C   UNL     1       6.907   5.753  16.970  0.00  0.00    +0.000 A 
ATOM      2  C   UNL     1       7.056   4.647  17.812  0.00  0.00    +0.000 A 
ATOM      3  C   UNL     1       7.764   4.786  18.999  0.00  0.00    +0.000 A 
ATOM      4  C   UNL     1       8.308   6.023  19.346  0.00  0.00    +0.000 A 
ATOM      5  C   UNL     1       8.171   7.134  18.508  0.00  0.00    +0.000 A 
ATOM      6  C   UNL     1       7.455   6.997  17.315  0.00  0.00    +0.000 A 
ENDROOT
BRANCH   5   7
ATOM      7  N   UNL     1       8.688   8.407  18.837  0.00  0.00    +0.000 N 
ATOM      8  C   UNL     1       8.377   9.596  18.195  0.00  0.00    +0.000 C 
ATOM      9  O   UNL     1       7.552   9.737  17.297  0.00  0.00    +0.000 OA
ATOM     10  H   UNL     1       9.342   8.428  19.609  0.00  0.00    +0.000 HD
BRANCH   8  11
ATOM     11  C   UNL     1       9.114  10.811  18.639  0.00  0.00    +0.000 A 
ATOM     12  C   UNL     1       9.885  10.708  19.809  0.00  0.00    +0.000 A 
ATOM     13  C   UNL     1      10.619  11.800  20.274  0.00  0.00    +0.000 A 
ATOM     14  C   UNL     1      10.582  12.993  19.561  0.00  0.00    +0.000 A 
ATOM     15  C   UNL     1       9.829  13.107  18.396  0.00  0.00    +0.000 A 
ATOM     16  C   UNL     1       9.096  12.015  17.928  0.00  0.00    +0.000 A 
BRANCH  14  17
ATOM     17  O   UNL     1      11.288  14.084  19.970  0.00  0.00    +0.000 OA
ATOM     18  H   UNL     1      11.262  14.125  20.939  0.00  0.00    +0.000 HD
ENDBRANCH  14  17
ENDBRANCH   8  11
ENDBRANCH   5   7
BRANCH   1  19
ATOM     19  S   UNL     1       5.917   5.589  15.507  0.00  0.00    +0.000 S 
ATOM     20  O   UNL     1       6.747   5.085  14.434  0.00  0.00    +0.000 OA
ATOM     21  O   UNL     1       5.165   6.815  15.342  0.00  0.00    +0.000 OA
BRANCH  19  24
ATOM     22  C   UNL     1       3.838   4.624  16.944  0.00  0.00    +0.000 C 
ATOM     23  O   UNL     1       3.711   5.689  17.535  0.00  0.00    +0.000 OA
ATOM     24  N   UNL     1       4.797   4.435  15.932  0.00  0.00    +0.000 N 
ATOM     25  H   UNL     1       4.917   3.549  15.451  0.00  0.00    +0.000 HD
BRANCH  22  26
ATOM     26  C   UNL     1       2.992   3.395  17.306  0.00  0.00    +0.000 C 
BRANCH  26  27
ATOM     27  N   UNL     1       3.853   2.432  18.033  0.00  0.00    +0.000 NA
ATOM     28  H   UNL     1       3.714   2.582  19.040  0.00  0.00    +0.000 HD
ATOM     29  H   UNL     1       4.837   2.661  17.880  0.00  0.00    +0.000 HD
ENDBRANCH  26  27
BRANCH  26  30
ATOM     30  C   UNL     1       1.829   3.812  18.224  0.00  0.00    +0.000 C 
BRANCH  30  32
ATOM     31  C   UNL     1       2.022   5.072  20.451  0.00  0.00    +0.000 C 
ATOM     32  C   UNL     1       2.107   3.721  19.741  0.00  0.00    +0.000 C 
ATOM     33  C   UNL     1       1.115   2.748  20.387  0.00  0.00    +0.000 C 
ENDBRANCH  30  32
ENDBRANCH  26  30
ENDBRANCH  22  26
ENDBRANCH  19  24
ENDBRANCH   1  19
TORSDOF 9
ENDMDL
MODEL 6
REMARK VINA RESULT:      -7.5      2.063      2.526
REMARK  Name = 
REMARK  11 active torsions:
REMARK  status: ('A' for Active; 'I' for Inactive)
REMARK    1  A    between atoms: C_1  and  C_2
REMARK    2  A    between atoms: C_2  and  C_3
REMARK    3  A    between atoms: C_2  and  C_4
REMARK    4  A    between atoms: C_4  and  C_5
REMARK    5  A    between atoms: C_5  and  N_6
REMARK    6  A    between atoms: C_5  and  C_7
REMARK    7  A    between atoms: N_9  and  S_10
REMARK    8  A    between atoms: S_10  and  C_13
REMARK    9  A    between atoms: C_17  and  N_18
REMARK   10  A    between atoms: C_19  and  C_21
REMARK   11  A    between atoms: C_24  and  O_25
REMARK                            x       y       z     vdW  Elec       q    Type
REMARK                         _______ _______ _______ _____ _____    ______ ____
ROOT
ATOM      1  C   UNL     1       4.209   5.329  19.177  0.00  0.00    +0.000 A 
ATOM      2  C   UNL     1       3.408   4.279  19.635  0.00  0.00    +0.000 A 
ATOM      3  C   UNL     1       2.102   4.543  20.029  0.00  0.00    +0.000 A 
ATOM      4  C   UNL     1       1.599   5.842  19.954  0.00  0.00    +0.000 A 
ATOM      5  C   UNL     1       2.394   6.900  19.505  0.00  0.00    +0.000 A 
ATOM      6  C   UNL     1       3.708   6.636  19.104  0.00  0.00    +0.000 A 
ENDROOT
BRANCH   5   7
ATOM      7  N   UNL     1       1.912   8.224  19.394  0.00  0.00    +0.000 N 
ATOM      8  C   UNL     1       1.933   8.997  18.244  0.00  0.00    +0.000 C 
ATOM      9  O   UNL     1       2.302   8.628  17.132  0.00  0.00    +0.000 OA
ATOM     10  H   UNL     1       1.525   8.621  20.240  0.00  0.00    +0.000 HD
BRANCH   8  11
ATOM     11  C   UNL     1       1.466  10.405  18.373  0.00  0.00    +0.000 A 
ATOM     12  C   UNL     1       0.125  10.609  18.743  0.00  0.00    +0.000 A 
ATOM     13  C   UNL     1      -0.377  11.900  18.903  0.00  0.00    +0.000 A 
ATOM     14  C   UNL     1       0.466  12.986  18.696  0.00  0.00    +0.000 A 
ATOM     15  C   UNL     1       1.798  12.799  18.336  0.00  0.00    +0.000 A 
ATOM     16  C   UNL     1       2.303  11.508  18.177  0.00  0.00    +0.000 A 
BRANCH  14  17
ATOM     17  O   UNL     1       0.024  14.265  18.849  0.00  0.00    +0.000 OA
ATOM     18  H   UNL     1      -0.935  14.246  19.002  0.00  0.00    +0.000 HD
ENDBRANCH  14  17
ENDBRANCH   8  11
ENDBRANCH   5   7
BRANCH   1  19
ATOM     19  S   UNL     1       5.841   4.965  18.583  0.00  0.00    +0.000 S 
ATOM     20  O   UNL     1       6.201   3.624  18.994  0.00  0.00    +0.000 OA
ATOM     21  O   UNL     1       6.693   6.088  18.913  0.00  0.00    +0.000 OA
BRANCH  19  24
ATOM     22  C   UNL     1       6.723   4.780  16.033  0.00  0.00    +0.000 C 
ATOM     23  O   UNL     1       7.840   4.449  16.410  0.00  0.00    +0.000 OA
ATOM     24  N   UNL     1       5.665   5.012  16.930  0.00  0.00    +0.000 N 
ATOM     25  H   UNL     1       4.741   5.303  16.624  0.00  0.00    +0.000 HD
BRANCH  22  26
ATOM     26  C   UNL     1       6.411   5.020  14.549  0.00  0.00    +0.000 C 
BRANCH  26  27
ATOM     27  N   UNL     1       7.653   5.477  13.879  0.00  0.00    +0.000 NA
ATOM     28  H   UNL     1       8.195   4.644  13.617  0.00  0.00    +0.000 HD
ATOM     29  H   UNL     1       8.251   5.964  14.549  0.00  0.00    +0.000 HD
ENDBRANCH  26  27
BRANCH  26  30
ATOM     30  C   UNL     1       5.947   3.708  13.893  0.00  0.00    +0.000 C 
BRANCH  30  32
ATOM     31  C   UNL     1       6.910   2.698  11.740  0.00  0.00    +0.000 C 
ATOM     32  C   UNL     1       5.930   3.701  12.348  0.00  0.00    +0.000 C 
ATOM     33  C   UNL     1       4.514   3.387  11.852  0.00  0.00    +0.000 C 
ENDBRANCH  30  32
ENDBRANCH  26  30
ENDBRANCH  22  26
ENDBRANCH  19  24
ENDBRANCH   1  19
TORSDOF 9
ENDMDL
MODEL 7
REMARK VINA RESULT:      -7.5      5.233      7.639
REMARK  Name = 
REMARK  11 active torsions:
REMARK  status: ('A' for Active; 'I' for Inactive)
REMARK    1  A    between atoms: C_1  and  C_2
REMARK    2  A    between atoms: C_2  and  C_3
REMARK    3  A    between atoms: C_2  and  C_4
REMARK    4  A    between atoms: C_4  and  C_5
REMARK    5  A    between atoms: C_5  and  N_6
REMARK    6  A    between atoms: C_5  and  C_7
REMARK    7  A    between atoms: N_9  and  S_10
REMARK    8  A    between atoms: S_10  and  C_13
REMARK    9  A    between atoms: C_17  and  N_18
REMARK   10  A    between atoms: C_19  and  C_21
REMARK   11  A    between atoms: C_24  and  O_25
REMARK                            x       y       z     vdW  Elec       q    Type
REMARK                         _______ _______ _______ _____ _____    ______ ____
ROOT
ATOM      1  C   UNL     1       6.154   6.524  17.655  0.00  0.00    +0.000 A 
ATOM      2  C   UNL     1       6.637   5.616  18.602  0.00  0.00    +0.000 A 
ATOM      3  C   UNL     1       7.813   5.907  19.283  0.00  0.00    +0.000 A 
ATOM      4  C   UNL     1       8.491   7.099  19.029  0.00  0.00    +0.000 A 
ATOM      5  C   UNL     1       8.020   8.010  18.079  0.00  0.00    +0.000 A 
ATOM      6  C   UNL     1       6.834   7.722  17.395  0.00  0.00    +0.000 A 
ENDROOT
BRANCH   5   7
ATOM      7  N   UNL     1       8.667   9.237  17.811  0.00  0.00    +0.000 N 
ATOM      8  C   UNL     1       9.097  10.148  18.763  0.00  0.00    +0.000 C 
ATOM      9  O   UNL     1       9.051   9.996  19.980  0.00  0.00    +0.000 OA
ATOM     10  H   UNL     1       8.816   9.449  16.833  0.00  0.00    +0.000 HD
BRANCH   8  11
ATOM     11  C   UNL     1       9.666  11.428  18.259  0.00  0.00    +0.000 A 
ATOM     12  C   UNL     1       8.822  12.551  18.247  0.00  0.00    +0.000 A 
ATOM     13  C   UNL     1       9.293  13.788  17.807  0.00  0.00    +0.000 A 
ATOM     14  C   UNL     1      10.613  13.899  17.383  0.00  0.00    +0.000 A 
ATOM     15  C   UNL     1      11.463  12.797  17.396  0.00  0.00    +0.000 A 
ATOM     16  C   UNL     1      10.994  11.558  17.838  0.00  0.00    +0.000 A 
BRANCH  14  17
ATOM     17  O   UNL     1      11.121  15.087  16.953  0.00  0.00    +0.000 OA
ATOM     18  H   UNL     1      12.050  14.956  16.704  0.00  0.00    +0.000 HD
ENDBRANCH  14  17
ENDBRANCH   8  11
ENDBRANCH   5   7
BRANCH   1  19
ATOM     19  S   UNL     1       4.601   6.190  16.864  0.00  0.00    +0.000 S 
ATOM     20  O   UNL     1       4.852   5.737  15.512  0.00  0.00    +0.000 OA
ATOM     21  O   UNL     1       3.727   7.318  17.111  0.00  0.00    +0.000 OA
BRANCH  19  24
ATOM     22  C   UNL     1       4.190   3.583  17.453  0.00  0.00    +0.000 C 
ATOM     23  O   UNL     1       4.922   3.228  16.538  0.00  0.00    +0.000 OA
ATOM     24  N   UNL     1       3.976   4.939  17.762  0.00  0.00    +0.000 N 
ATOM     25  H   UNL     1       3.357   5.238  18.509  0.00  0.00    +0.000 HD
BRANCH  22  26
ATOM     26  C   UNL     1       3.406   2.569  18.299  0.00  0.00    +0.000 C 
BRANCH  26  27
ATOM     27  N   UNL     1       4.167   1.296  18.325  0.00  0.00    +0.000 NA
ATOM     28  H   UNL     1       3.513   0.543  18.573  0.00  0.00    +0.000 HD
ATOM     29  H   UNL     1       4.839   1.308  19.096  0.00  0.00    +0.000 HD
ENDBRANCH  26  27
BRANCH  26  30
ATOM     30  C   UNL     1       3.261   3.090  19.739  0.00  0.00    +0.000 C 
BRANCH  30  32
ATOM     31  C   UNL     1       1.462   4.743  20.523  0.00  0.00    +0.000 C 
ATOM     32  C   UNL     1       1.812   3.282  20.240  0.00  0.00    +0.000 C 
ATOM     33  C   UNL     1       0.833   2.720  19.204  0.00  0.00    +0.000 C 
ENDBRANCH  30  32
ENDBRANCH  26  30
ENDBRANCH  22  26
ENDBRANCH  19  24
ENDBRANCH   1  19
TORSDOF 9
ENDMDL
MODEL 8
REMARK VINA RESULT:      -7.5      5.008      7.088
REMARK  Name = 
REMARK  11 active torsions:
REMARK  status: ('A' for Active; 'I' for Inactive)
REMARK    1  A    between atoms: C_1  and  C_2
REMARK    2  A    between atoms: C_2  and  C_3
REMARK    3  A    between atoms: C_2  and  C_4
REMARK    4  A    between atoms: C_4  and  C_5
REMARK    5  A    between atoms: C_5  and  N_6
REMARK    6  A    between atoms: C_5  and  C_7
REMARK    7  A    between atoms: N_9  and  S_10
REMARK    8  A    between atoms: S_10  and  C_13
REMARK    9  A    between atoms: C_17  and  N_18
REMARK   10  A    between atoms: C_19  and  C_21
REMARK   11  A    between atoms: C_24  and  O_25
REMARK                            x       y       z     vdW  Elec       q    Type
REMARK                         _______ _______ _______ _____ _____    ______ ____
ROOT
ATOM      1  C   UNL     1       7.007   5.846  16.919  0.00  0.00    +0.000 A 
ATOM      2  C   UNL     1       7.397   5.128  18.052  0.00  0.00    +0.000 A 
ATOM      3  C   UNL     1       8.045   5.791  19.087  0.00  0.00    +0.000 A 
ATOM      4  C   UNL     1       8.290   7.161  18.994  0.00  0.00    +0.000 A 
ATOM      5  C   UNL     1       7.911   7.888  17.861  0.00  0.00    +0.000 A 
ATOM      6  C   UNL     1       7.254   7.223  16.820  0.00  0.00    +0.000 A 
ENDROOT
BRANCH   5   7
ATOM      7  N   UNL     1       8.121   9.280  17.741  0.00  0.00    +0.000 N 
ATOM      8  C   UNL     1       8.867  10.062  18.608  0.00  0.00    +0.000 C 
ATOM      9  O   UNL     1       9.518   9.656  19.567  0.00  0.00    +0.000 OA
ATOM     10  H   UNL     1       7.678   9.722  16.947  0.00  0.00    +0.000 HD
BRANCH   8  11
ATOM     11  C   UNL     1       8.876  11.528  18.351  0.00  0.00    +0.000 A 
ATOM     12  C   UNL     1       7.899  12.037  17.479  0.00  0.00    +0.000 A 
ATOM     13  C   UNL     1       7.834  13.404  17.208  0.00  0.00    +0.000 A 
ATOM     14  C   UNL     1       8.747  14.260  17.813  0.00  0.00    +0.000 A 
ATOM     15  C   UNL     1       9.716  13.771  18.685  0.00  0.00    +0.000 A 
ATOM     16  C   UNL     1       9.781  12.403  18.960  0.00  0.00    +0.000 A 
BRANCH  14  17
ATOM     17  O   UNL     1       8.718  15.602  17.586  0.00  0.00    +0.000 OA
ATOM     18  H   UNL     1       7.828  15.847  17.283  0.00  0.00    +0.000 HD
ENDBRANCH  14  17
ENDBRANCH   8  11
ENDBRANCH   5   7
BRANCH   1  19
ATOM     19  S   UNL     1       6.092   5.011  15.648  0.00  0.00    +0.000 S 
ATOM     20  O   UNL     1       7.010   4.226  14.850  0.00  0.00    +0.000 OA
ATOM     21  O   UNL     1       5.218   5.980  15.022  0.00  0.00    +0.000 OA
BRANCH  19  24
ATOM     22  C   UNL     1       4.061   4.456  17.345  0.00  0.00    +0.000 C 
ATOM     23  O   UNL     1       3.779   5.644  17.446  0.00  0.00    +0.000 OA
ATOM     24  N   UNL     1       5.091   3.997  16.503  0.00  0.00    +0.000 N 
ATOM     25  H   UNL     1       5.339   3.015  16.429  0.00  0.00    +0.000 HD
BRANCH  22  26
ATOM     26  C   UNL     1       3.342   3.383  18.176  0.00  0.00    +0.000 C 
BRANCH  26  27
ATOM     27  N   UNL     1       3.999   2.078  17.922  0.00  0.00    +0.000 NA
ATOM     28  H   UNL     1       3.812   1.468  18.727  0.00  0.00    +0.000 HD
ATOM     29  H   UNL     1       5.014   2.193  17.926  0.00  0.00    +0.000 HD
ENDBRANCH  26  27
BRANCH  26  30
ATOM     30  C   UNL     1       3.460   3.715  19.674  0.00  0.00    +0.000 C 
BRANCH  30  32
ATOM     31  C   UNL     1       1.774   5.399  20.625  0.00  0.00    +0.000 C 
ATOM     32  C   UNL     1       2.124   3.925  20.420  0.00  0.00    +0.000 C 
ATOM     33  C   UNL     1       0.991   3.240  19.649  0.00  0.00    +0.000 C 
ENDBRANCH  30  32
ENDBRANCH  26  30
ENDBRANCH  22  26
ENDBRANCH  19  24
ENDBRANCH   1  19
TORSDOF 9
ENDMDL
MODEL 9
REMARK VINA RESULT:      -7.5      5.233      7.683
REMARK  Name = 
REMARK  11 active torsions:
REMARK  status: ('A' for Active; 'I' for Inactive)
REMARK    1  A    between atoms: C_1  and  C_2
REMARK    2  A    between atoms: C_2  and  C_3
REMARK    3  A    between atoms: C_2  and  C_4
REMARK    4  A    between atoms: C_4  and  C_5
REMARK    5  A    between atoms: C_5  and  N_6
REMARK    6  A    between atoms: C_5  and  C_7
REMARK    7  A    between atoms: N_9  and  S_10
REMARK    8  A    between atoms: S_10  and  C_13
REMARK    9  A    between atoms: C_17  and  N_18
REMARK   10  A    between atoms: C_19  and  C_21
REMARK   11  A    between atoms: C_24  and  O_25
REMARK                            x       y       z     vdW  Elec       q    Type
REMARK                         _______ _______ _______ _____ _____    ______ ____
ROOT
ATOM      1  C   UNL     1       6.558   6.274  17.304  0.00  0.00    +0.000 A 
ATOM      2  C   UNL     1       6.932   5.518  18.419  0.00  0.00    +0.000 A 
ATOM      3  C   UNL     1       7.885   6.024  19.295  0.00  0.00    +0.000 A 
ATOM      4  C   UNL     1       8.450   7.278  19.063  0.00  0.00    +0.000 A 
ATOM      5  C   UNL     1       8.089   8.040  17.948  0.00  0.00    +0.000 A 
ATOM      6  C   UNL     1       7.126   7.534  17.067  0.00  0.00    +0.000 A 
ENDROOT
BRANCH   5   7
ATOM      7  N   UNL     1       8.622   9.323  17.694  0.00  0.00    +0.000 N 
ATOM      8  C   UNL     1       9.088  10.208  18.653  0.00  0.00    +0.000 C 
ATOM      9  O   UNL     1       9.179   9.986  19.857  0.00  0.00    +0.000 OA
ATOM     10  H   UNL     1       8.654   9.598  16.721  0.00  0.00    +0.000 HD
BRANCH   8  11
ATOM     11  C   UNL     1       9.516  11.551  18.175  0.00  0.00    +0.000 A 
ATOM     12  C   UNL     1       8.619  12.618  18.356  0.00  0.00    +0.000 A 
ATOM     13  C   UNL     1       8.961  13.909  17.951  0.00  0.00    +0.000 A 
ATOM     14  C   UNL     1      10.204  14.129  17.369  0.00  0.00    +0.000 A 
ATOM     15  C   UNL     1      11.106  13.084  17.190  0.00  0.00    +0.000 A 
ATOM     16  C   UNL     1      10.766  11.792  17.596  0.00  0.00    +0.000 A 
BRANCH  14  17
ATOM     17  O   UNL     1      10.586  15.373  16.966  0.00  0.00    +0.000 OA
ATOM     18  H   UNL     1      10.906  15.319  16.051  0.00  0.00    +0.000 HD
ENDBRANCH  14  17
ENDBRANCH   8  11
ENDBRANCH   5   7
BRANCH   1  19
ATOM     19  S   UNL     1       5.269   5.664  16.249  0.00  0.00    +0.000 S 
ATOM     20  O   UNL     1       5.622   4.335  15.798  0.00  0.00    +0.000 OA
ATOM     21  O   UNL     1       4.950   6.704  15.293  0.00  0.00    +0.000 OA
BRANCH  19  24
ATOM     22  C   UNL     1       3.165   4.421  17.407  0.00  0.00    +0.000 C 
ATOM     23  O   UNL     1       3.439   3.367  16.848  0.00  0.00    +0.000 OA
ATOM     24  N   UNL     1       3.955   5.576  17.264  0.00  0.00    +0.000 N 
ATOM     25  H   UNL     1       3.722   6.457  17.713  0.00  0.00    +0.000 HD
BRANCH  22  26
ATOM     26  C   UNL     1       1.901   4.573  18.267  0.00  0.00    +0.000 C 
BRANCH  26  27
ATOM     27  N   UNL     1       0.955   3.491  17.902  0.00  0.00    +0.000 NA
ATOM     28  H   UNL     1       1.126   2.696  18.530  0.00  0.00    +0.000 HD
ATOM     29  H   UNL     1       1.182   3.128  16.974  0.00  0.00    +0.000 HD
ENDBRANCH  26  27
BRANCH  26  30
ATOM     30  C   UNL     1       2.262   4.435  19.756  0.00  0.00    +0.000 C 
BRANCH  30  32
ATOM     31  C   UNL     1       3.760   2.454  20.404  0.00  0.00    +0.000 C 
ATOM     32  C   UNL     1       2.332   2.989  20.298  0.00  0.00    +0.000 C 
ATOM     33  C   UNL     1       1.665   2.925  21.676  0.00  0.00    +0.000 C 
ENDBRANCH  30  32
ENDBRANCH  26  30
ENDBRANCH  22  26
ENDBRANCH  19  24
ENDBRANCH   1  19
TORSDOF 9
ENDMDL
