MODEL 1
REMARK VINA RESULT:      -7.6      0.000      0.000
REMARK  Name = 
REMARK  7 active torsions:
REMARK  status: ('A' for Active; 'I' for Inactive)
REMARK    1  A    between atoms: C_1  and  C_2
REMARK    2  A    between atoms: C_2  and  O_3
REMARK    3  A    between atoms: O_3  and  C_4
REMARK    4  A    between atoms: C_4  and  C_6
REMARK    5  A    between atoms: C_9  and  N_10
REMARK    6  A    between atoms: C_15  and  O_16
REMARK    7  A    between atoms: C_18  and  C_19
REMARK                            x       y       z     vdW  Elec       q    Type
REMARK                         _______ _______ _______ _____ _____    ______ ____
ROOT
ATOM      1  N   UNL     1       3.625   5.958  17.932  0.00  0.00    +0.000 N 
ATOM      2  C   UNL     1       3.161   4.644  17.705  0.00  0.00    +0.000 A 
ATOM      3  S   UNL     1       1.623   3.991  17.779  0.00  0.00    +0.000 S 
ATOM      4  S   UNL     1       4.504   3.618  17.135  0.00  0.00    +0.000 S 
ATOM      5  C   UNL     1       5.600   4.976  17.175  0.00  0.00    +0.000 A 
ATOM      6  C   UNL     1       6.927   5.045  16.856  0.00  0.00    +0.000 A 
ATOM      7  N   UNL     1       7.654   6.162  16.979  0.00  0.00    +0.000 NA
ATOM      8  C   UNL     1       7.013   7.243  17.456  0.00  0.00    +0.000 A 
ATOM      9  C   UNL     1       7.807   8.499  17.639  0.00  0.00    +0.000 C 
ATOM     10  N   UNL     1       5.706   7.275  17.791  0.00  0.00    +0.000 NA
ATOM     11  C   UNL     1       5.013   6.135  17.624  0.00  0.00    +0.000 A 
ENDROOT
BRANCH   1  15
ATOM     12  C   UNL     1       1.258   9.205  19.378  0.00  0.00    +0.000 A 
ATOM     13  C   UNL     1       1.601   8.141  20.213  0.00  0.00    +0.000 A 
ATOM     14  C   UNL     1       2.401   7.100  19.742  0.00  0.00    +0.000 A 
ATOM     15  C   UNL     1       2.856   7.064  18.416  0.00  0.00    +0.000 A 
ATOM     16  C   UNL     1       2.506   8.146  17.590  0.00  0.00    +0.000 A 
ATOM     17  C   UNL     1       1.718   9.206  18.059  0.00  0.00    +0.000 A 
BRANCH  12  18
ATOM     18  C   UNL     1       0.354  10.242  19.920  0.00  0.00    +0.000 C 
ATOM     19  O   UNL     1      -0.506  10.797  19.253  0.00  0.00    +0.000 OA
BRANCH  18  20
ATOM     20  O   UNL     1       0.716  10.568  21.185  0.00  0.00    +0.000 OA
BRANCH  20  22
ATOM     21  C   UNL     1      -0.218   9.654  23.165  0.00  0.00    +0.000 C 
ATOM     22  C   UNL     1      -0.378  10.716  22.094  0.00  0.00    +0.000 C 
ENDBRANCH  20  22
ENDBRANCH  18  20
ENDBRANCH  12  18
ENDBRANCH   1  15
BRANCH   6  23
ATOM     23  O   UNL     1       7.610   3.957  16.394  0.00  0.00    +0.000 OA
ATOM     24  H   UNL     1       7.351   3.824  15.466  0.00  0.00    +0.000 HD
ENDBRANCH   6  23
TORSDOF 5
ENDMDL
MODEL 2
REMARK VINA RESULT:      -7.6      0.935      1.625
REMARK  Name = 
REMARK  7 active torsions:
REMARK  status: ('A' for Active; 'I' for Inactive)
REMARK    1  A    between atoms: C_1  and  C_2
REMARK    2  A    between atoms: C_2  and  O_3
REMARK    3  A    between atoms: O_3  and  C_4
REMARK    4  A    between atoms: C_4  and  C_6
REMARK    5  A    between atoms: C_9  and  N_10
REMARK    6  A    between atoms: C_15  and  O_16
REMARK    7  A    between atoms: C_18  and  C_19
REMARK                            x       y       z     vdW  Elec       q    Type
REMARK                         _______ _______ _______ _____ _____    ______ ____
ROOT
ATOM      1  N   UNL     1       3.632   5.987  17.926  0.00  0.00    +0.000 N 
ATOM      2  C   UNL     1       3.166   4.672  17.717  0.00  0.00    +0.000 A 
ATOM      3  S   UNL     1       1.624   4.025  17.783  0.00  0.00    +0.000 S 
ATOM      4  S   UNL     1       4.512   3.629  17.183  0.00  0.00    +0.000 S 
ATOM      5  C   UNL     1       5.613   4.985  17.211  0.00  0.00    +0.000 A 
ATOM      6  C   UNL     1       6.944   5.043  16.908  0.00  0.00    +0.000 A 
ATOM      7  N   UNL     1       7.674   6.158  17.019  0.00  0.00    +0.000 NA
ATOM      8  C   UNL     1       7.030   7.251  17.468  0.00  0.00    +0.000 A 
ATOM      9  C   UNL     1       7.827   8.507  17.638  0.00  0.00    +0.000 C 
ATOM     10  N   UNL     1       5.720   7.294  17.786  0.00  0.00    +0.000 NA
ATOM     11  C   UNL     1       5.024   6.153  17.632  0.00  0.00    +0.000 A 
ENDROOT
BRANCH   1  15
ATOM     12  C   UNL     1       1.260   9.269  19.281  0.00  0.00    +0.000 A 
ATOM     13  C   UNL     1       1.593   8.223  20.141  0.00  0.00    +0.000 A 
ATOM     14  C   UNL     1       2.395   7.170  19.699  0.00  0.00    +0.000 A 
ATOM     15  C   UNL     1       2.862   7.105  18.379  0.00  0.00    +0.000 A 
ATOM     16  C   UNL     1       2.522   8.171  17.527  0.00  0.00    +0.000 A 
ATOM     17  C   UNL     1       1.732   9.242  17.966  0.00  0.00    +0.000 A 
BRANCH  12  18
ATOM     18  C   UNL     1       0.354  10.320  19.793  0.00  0.00    +0.000 C 
ATOM     19  O   UNL     1       0.726  11.233  20.514  0.00  0.00    +0.000 OA
BRANCH  18  20
ATOM     20  O   UNL     1      -0.930  10.034  19.465  0.00  0.00    +0.000 OA
BRANCH  20  22
ATOM     21  C   UNL     1      -2.084   9.993  17.392  0.00  0.00    +0.000 C 
ATOM     22  C   UNL     1      -1.488  10.888  18.463  0.00  0.00    +0.000 C 
ENDBRANCH  20  22
ENDBRANCH  18  20
ENDBRANCH  12  18
ENDBRANCH   1  15
BRANCH   6  23
ATOM     23  O   UNL     1       7.628   3.943  16.475  0.00  0.00    +0.000 OA
ATOM     24  H   UNL     1       7.343   3.190  17.020  0.00  0.00    +0.000 HD
ENDBRANCH   6  23
TORSDOF 5
ENDMDL
MODEL 3
REMARK VINA RESULT:      -7.5      0.204      1.022
REMARK  Name = 
REMARK  7 active torsions:
REMARK  status: ('A' for Active; 'I' for Inactive)
REMARK    1  A    between atoms: C_1  and  C_2
REMARK    2  A    between atoms: C_2  and  O_3
REMARK    3  A    between atoms: O_3  and  C_4
REMARK    4  A    between atoms: C_4  and  C_6
REMARK    5  A    between atoms: C_9  and  N_10
REMARK    6  A    between atoms: C_15  and  O_16
REMARK    7  A    between atoms: C_18  and  C_19
REMARK                            x       y       z     vdW  Elec       q    Type
REMARK                         _______ _______ _______ _____ _____    ______ ____
ROOT
ATOM      1  N   UNL     1       3.596   5.913  17.940  0.00  0.00    +0.000 N 
ATOM      2  C   UNL     1       3.145   4.599  17.693  0.00  0.00    +0.000 A 
ATOM      3  S   UNL     1       1.618   3.921  17.789  0.00  0.00    +0.000 S 
ATOM      4  S   UNL     1       4.488   3.605  17.068  0.00  0.00    +0.000 S 
ATOM      5  C   UNL     1       5.565   4.978  17.112  0.00  0.00    +0.000 A 
ATOM      6  C   UNL     1       6.883   5.073  16.764  0.00  0.00    +0.000 A 
ATOM      7  N   UNL     1       7.597   6.197  16.895  0.00  0.00    +0.000 NA
ATOM      8  C   UNL     1       6.952   7.258  17.412  0.00  0.00    +0.000 A 
ATOM      9  C   UNL     1       7.733   8.521  17.605  0.00  0.00    +0.000 C 
ATOM     10  N   UNL     1       5.654   7.264  17.779  0.00  0.00    +0.000 NA
ATOM     11  C   UNL     1       4.973   6.117  17.603  0.00  0.00    +0.000 A 
ENDROOT
BRANCH   1  15
ATOM     12  C   UNL     1       1.365   9.199  19.509  0.00  0.00    +0.000 A 
ATOM     13  C   UNL     1       1.791   9.193  18.181  0.00  0.00    +0.000 A 
ATOM     14  C   UNL     1       2.493   8.101  17.667  0.00  0.00    +0.000 A 
ATOM     15  C   UNL     1       2.823   6.997  18.467  0.00  0.00    +0.000 A 
ATOM     16  C   UNL     1       2.381   7.018  19.801  0.00  0.00    +0.000 A 
ATOM     17  C   UNL     1       1.661   8.101  20.322  0.00  0.00    +0.000 A 
BRANCH  12  18
ATOM     18  C   UNL     1       0.685  10.414  20.008  0.00  0.00    +0.000 C 
ATOM     19  O   UNL     1       0.068  11.181  19.285  0.00  0.00    +0.000 OA
BRANCH  18  20
ATOM     20  O   UNL     1       0.969  10.607  21.319  0.00  0.00    +0.000 OA
BRANCH  20  22
ATOM     21  C   UNL     1      -0.289   9.671  23.100  0.00  0.00    +0.000 C 
ATOM     22  C   UNL     1      -0.176  10.843  22.143  0.00  0.00    +0.000 C 
ENDBRANCH  20  22
ENDBRANCH  18  20
ENDBRANCH  12  18
ENDBRANCH   1  15
BRANCH   6  23
ATOM     23  O   UNL     1       7.570   4.005  16.261  0.00  0.00    +0.000 OA
ATOM     24  H   UNL     1       6.992   3.568  15.612  0.00  0.00    +0.000 HD
ENDBRANCH   6  23
TORSDOF 5
ENDMDL
MODEL 4
REMARK VINA RESULT:      -7.5      0.973      1.851
REMARK  Name = 
REMARK  7 active torsions:
REMARK  status: ('A' for Active; 'I' for Inactive)
REMARK    1  A    between atoms: C_1  and  C_2
REMARK    2  A    between atoms: C_2  and  O_3
REMARK    3  A    between atoms: O_3  and  C_4
REMARK    4  A    between atoms: C_4  and  C_6
REMARK    5  A    between atoms: C_9  and  N_10
REMARK    6  A    between atoms: C_15  and  O_16
REMARK    7  A    between atoms: C_18  and  C_19
REMARK                            x       y       z     vdW  Elec       q    Type
REMARK                         _______ _______ _______ _____ _____    ______ ____
ROOT
ATOM      1  N   UNL     1       3.627   5.924  17.929  0.00  0.00    +0.000 N 
ATOM      2  C   UNL     1       3.189   4.599  17.719  0.00  0.00    +0.000 A 
ATOM      3  S   UNL     1       1.661   3.920  17.785  0.00  0.00    +0.000 S 
ATOM      4  S   UNL     1       4.557   3.586  17.185  0.00  0.00    +0.000 S 
ATOM      5  C   UNL     1       5.628   4.964  17.215  0.00  0.00    +0.000 A 
ATOM      6  C   UNL     1       6.958   5.051  16.913  0.00  0.00    +0.000 A 
ATOM      7  N   UNL     1       7.664   6.181  17.025  0.00  0.00    +0.000 NA
ATOM      8  C   UNL     1       6.998   7.260  17.474  0.00  0.00    +0.000 A 
ATOM      9  C   UNL     1       7.767   8.532  17.645  0.00  0.00    +0.000 C 
ATOM     10  N   UNL     1       5.687   7.275  17.791  0.00  0.00    +0.000 NA
ATOM     11  C   UNL     1       5.015   6.120  17.636  0.00  0.00    +0.000 A 
ENDROOT
BRANCH   1  15
ATOM     12  C   UNL     1       1.330   9.262  19.277  0.00  0.00    +0.000 A 
ATOM     13  C   UNL     1       1.772   9.184  17.957  0.00  0.00    +0.000 A 
ATOM     14  C   UNL     1       2.495   8.075  17.516  0.00  0.00    +0.000 A 
ATOM     15  C   UNL     1       2.833   7.025  18.383  0.00  0.00    +0.000 A 
ATOM     16  C   UNL     1       2.375   7.118  19.709  0.00  0.00    +0.000 A 
ATOM     17  C   UNL     1       1.632   8.219  20.157  0.00  0.00    +0.000 A 
BRANCH  12  18
ATOM     18  C   UNL     1       0.627  10.494  19.696  0.00  0.00    +0.000 C 
ATOM     19  O   UNL     1       0.405  10.775  20.864  0.00  0.00    +0.000 OA
BRANCH  18  20
ATOM     20  O   UNL     1       0.159  11.160  18.612  0.00  0.00    +0.000 OA
BRANCH  20  22
ATOM     21  C   UNL     1      -1.876  10.217  17.837  0.00  0.00    +0.000 C 
ATOM     22  C   UNL     1      -1.256  11.366  18.611  0.00  0.00    +0.000 C 
ENDBRANCH  20  22
ENDBRANCH  18  20
ENDBRANCH  12  18
ENDBRANCH   1  15
BRANCH   6  23
ATOM     23  O   UNL     1       7.666   3.966  16.479  0.00  0.00    +0.000 OA
ATOM     24  H   UNL     1       8.566   4.042  16.840  0.00  0.00    +0.000 HD
ENDBRANCH   6  23
TORSDOF 5
ENDMDL
MODEL 5
REMARK VINA RESULT:      -7.3      0.911      1.371
REMARK  Name = 
REMARK  7 active torsions:
REMARK  status: ('A' for Active; 'I' for Inactive)
REMARK    1  A    between atoms: C_1  and  C_2
REMARK    2  A    between atoms: C_2  and  O_3
REMARK    3  A    between atoms: O_3  and  C_4
REMARK    4  A    between atoms: C_4  and  C_6
REMARK    5  A    between atoms: C_9  and  N_10
REMARK    6  A    between atoms: C_15  and  O_16
REMARK    7  A    between atoms: C_18  and  C_19
REMARK                            x       y       z     vdW  Elec       q    Type
REMARK                         _______ _______ _______ _____ _____    ______ ____
ROOT
ATOM      1  N   UNL     1       3.625   5.973  17.928  0.00  0.00    +0.000 N 
ATOM      2  C   UNL     1       3.164   4.657  17.713  0.00  0.00    +0.000 A 
ATOM      3  S   UNL     1       1.625   4.003  17.782  0.00  0.00    +0.000 S 
ATOM      4  S   UNL     1       4.512   3.624  17.167  0.00  0.00    +0.000 S 
ATOM      5  C   UNL     1       5.606   4.984  17.199  0.00  0.00    +0.000 A 
ATOM      6  C   UNL     1       6.936   5.050  16.891  0.00  0.00    +0.000 A 
ATOM      7  N   UNL     1       7.661   6.168  17.006  0.00  0.00    +0.000 NA
ATOM      8  C   UNL     1       7.015   7.255  17.463  0.00  0.00    +0.000 A 
ATOM      9  C   UNL     1       7.807   8.514  17.637  0.00  0.00    +0.000 C 
ATOM     10  N   UNL     1       5.706   7.290  17.787  0.00  0.00    +0.000 NA
ATOM     11  C   UNL     1       5.015   6.147  17.629  0.00  0.00    +0.000 A 
ENDROOT
BRANCH   1  15
ATOM     12  C   UNL     1       1.244   9.236  19.314  0.00  0.00    +0.000 A 
ATOM     13  C   UNL     1       1.607   8.199  20.174  0.00  0.00    +0.000 A 
ATOM     14  C   UNL     1       2.412   7.152  19.721  0.00  0.00    +0.000 A 
ATOM     15  C   UNL     1       2.851   7.085  18.391  0.00  0.00    +0.000 A 
ATOM     16  C   UNL     1       2.480   8.141  17.540  0.00  0.00    +0.000 A 
ATOM     17  C   UNL     1       1.688   9.206  17.990  0.00  0.00    +0.000 A 
BRANCH  12  18
ATOM     18  C   UNL     1       0.336  10.280  19.840  0.00  0.00    +0.000 C 
ATOM     19  O   UNL     1      -0.859  10.313  19.592  0.00  0.00    +0.000 OA
BRANCH  18  20
ATOM     20  O   UNL     1       1.044  11.234  20.492  0.00  0.00    +0.000 OA
BRANCH  20  22
ATOM     21  C   UNL     1       2.067  12.810  19.042  0.00  0.00    +0.000 C 
ATOM     22  C   UNL     1       0.887  12.552  19.961  0.00  0.00    +0.000 C 
ENDBRANCH  20  22
ENDBRANCH  18  20
ENDBRANCH  12  18
ENDBRANCH   1  15
BRANCH   6  23
ATOM     23  O   UNL     1       7.623   3.956  16.448  0.00  0.00    +0.000 OA
ATOM     24  H   UNL     1       8.381   3.827  17.044  0.00  0.00    +0.000 HD
ENDBRANCH   6  23
TORSDOF 5
ENDMDL
MODEL 6
REMARK VINA RESULT:      -7.3      1.061      1.980
REMARK  Name = 
REMARK  7 active torsions:
REMARK  status: ('A' for Active; 'I' for Inactive)
REMARK    1  A    between atoms: C_1  and  C_2
REMARK    2  A    between atoms: C_2  and  O_3
REMARK    3  A    between atoms: O_3  and  C_4
REMARK    4  A    between atoms: C_4  and  C_6
REMARK    5  A    between atoms: C_9  and  N_10
REMARK    6  A    between atoms: C_15  and  O_16
REMARK    7  A    between atoms: C_18  and  C_19
REMARK                            x       y       z     vdW  Elec       q    Type
REMARK                         _______ _______ _______ _____ _____    ______ ____
ROOT
ATOM      1  N   UNL     1       3.622   5.919  17.921  0.00  0.00    +0.000 N 
ATOM      2  C   UNL     1       3.182   4.595  17.707  0.00  0.00    +0.000 A 
ATOM      3  S   UNL     1       1.653   3.917  17.775  0.00  0.00    +0.000 S 
ATOM      4  S   UNL     1       4.548   3.583  17.166  0.00  0.00    +0.000 S 
ATOM      5  C   UNL     1       5.620   4.960  17.198  0.00  0.00    +0.000 A 
ATOM      6  C   UNL     1       6.950   5.047  16.892  0.00  0.00    +0.000 A 
ATOM      7  N   UNL     1       7.657   6.176  17.007  0.00  0.00    +0.000 NA
ATOM      8  C   UNL     1       6.992   7.254  17.461  0.00  0.00    +0.000 A 
ATOM      9  C   UNL     1       7.763   8.525  17.634  0.00  0.00    +0.000 C 
ATOM     10  N   UNL     1       5.682   7.269  17.782  0.00  0.00    +0.000 NA
ATOM     11  C   UNL     1       5.009   6.115  17.625  0.00  0.00    +0.000 A 
ENDROOT
BRANCH   1  15
ATOM     12  C   UNL     1       1.332   9.254  19.288  0.00  0.00    +0.000 A 
ATOM     13  C   UNL     1       1.779   9.186  17.968  0.00  0.00    +0.000 A 
ATOM     14  C   UNL     1       2.500   8.077  17.521  0.00  0.00    +0.000 A 
ATOM     15  C   UNL     1       2.829   7.019  18.380  0.00  0.00    +0.000 A 
ATOM     16  C   UNL     1       2.366   7.102  19.705  0.00  0.00    +0.000 A 
ATOM     17  C   UNL     1       1.626   8.202  20.159  0.00  0.00    +0.000 A 
BRANCH  12  18
ATOM     18  C   UNL     1       0.631  10.485  19.714  0.00  0.00    +0.000 C 
ATOM     19  O   UNL     1      -0.111  10.532  20.683  0.00  0.00    +0.000 OA
BRANCH  18  20
ATOM     20  O   UNL     1       0.823  11.474  18.807  0.00  0.00    +0.000 OA
BRANCH  20  22
ATOM     21  C   UNL     1       2.579  12.968  18.245  0.00  0.00    +0.000 C 
ATOM     22  C   UNL     1       1.558  12.596  19.303  0.00  0.00    +0.000 C 
ENDBRANCH  20  22
ENDBRANCH  18  20
ENDBRANCH  12  18
ENDBRANCH   1  15
BRANCH   6  23
ATOM     23  O   UNL     1       7.655   3.963  16.453  0.00  0.00    +0.000 OA
ATOM     24  H   UNL     1       7.188   3.167  16.762  0.00  0.00    +0.000 HD
ENDBRANCH   6  23
TORSDOF 5
ENDMDL
MODEL 7
REMARK VINA RESULT:      -7.2      2.553      7.469
REMARK  Name = 
REMARK  7 active torsions:
REMARK  status: ('A' for Active; 'I' for Inactive)
REMARK    1  A    between atoms: C_1  and  C_2
REMARK    2  A    between atoms: C_2  and  O_3
REMARK    3  A    between atoms: O_3  and  C_4
REMARK    4  A    between atoms: C_4  and  C_6
REMARK    5  A    between atoms: C_9  and  N_10
REMARK    6  A    between atoms: C_15  and  O_16
REMARK    7  A    between atoms: C_18  and  C_19
REMARK                            x       y       z     vdW  Elec       q    Type
REMARK                         _______ _______ _______ _____ _____    ______ ____
ROOT
ATOM      1  N   UNL     1       3.441   5.359  18.849  0.00  0.00    +0.000 N 
ATOM      2  C   UNL     1       3.202   4.359  19.814  0.00  0.00    +0.000 A 
ATOM      3  S   UNL     1       3.882   2.844  20.024  0.00  0.00    +0.000 S 
ATOM      4  S   UNL     1       2.048   4.959  21.036  0.00  0.00    +0.000 S 
ATOM      5  C   UNL     1       1.975   6.514  20.247  0.00  0.00    +0.000 A 
ATOM      6  C   UNL     1       1.265   7.635  20.575  0.00  0.00    +0.000 A 
ATOM      7  N   UNL     1       1.277   8.753  19.841  0.00  0.00    +0.000 NA
ATOM      8  C   UNL     1       2.026   8.726  18.725  0.00  0.00    +0.000 A 
ATOM      9  C   UNL     1       2.033   9.950  17.862  0.00  0.00    +0.000 C 
ATOM     10  N   UNL     1       2.765   7.673  18.320  0.00  0.00    +0.000 NA
ATOM     11  C   UNL     1       2.740   6.582  19.107  0.00  0.00    +0.000 A 
ENDROOT
BRANCH   1  15
ATOM     12  C   UNL     1       6.000   4.966  15.453  0.00  0.00    +0.000 A 
ATOM     13  C   UNL     1       4.939   4.085  15.655  0.00  0.00    +0.000 A 
ATOM     14  C   UNL     1       4.088   4.239  16.750  0.00  0.00    +0.000 A 
ATOM     15  C   UNL     1       4.287   5.253  17.699  0.00  0.00    +0.000 A 
ATOM     16  C   UNL     1       5.358   6.136  17.477  0.00  0.00    +0.000 A 
ATOM     17  C   UNL     1       6.207   6.000  16.370  0.00  0.00    +0.000 A 
BRANCH  12  18
ATOM     18  C   UNL     1       6.903   4.707  14.309  0.00  0.00    +0.000 C 
ATOM     19  O   UNL     1       7.751   5.501  13.933  0.00  0.00    +0.000 OA
BRANCH  18  20
ATOM     20  O   UNL     1       6.551   3.557  13.684  0.00  0.00    +0.000 OA
BRANCH  20  22
ATOM     21  C   UNL     1       5.098   3.236  11.836  0.00  0.00    +0.000 C 
ATOM     22  C   UNL     1       6.494   3.654  12.258  0.00  0.00    +0.000 C 
ENDBRANCH  20  22
ENDBRANCH  18  20
ENDBRANCH  12  18
ENDBRANCH   1  15
BRANCH   6  23
ATOM     23  O   UNL     1       0.477   7.681  21.690  0.00  0.00    +0.000 OA
ATOM     24  H   UNL     1      -0.395   8.014  21.416  0.00  0.00    +0.000 HD
ENDBRANCH   6  23
TORSDOF 5
ENDMDL
MODEL 8
REMARK VINA RESULT:      -7.0      2.575      7.472
REMARK  Name = 
REMARK  7 active torsions:
REMARK  status: ('A' for Active; 'I' for Inactive)
REMARK    1  A    between atoms: C_1  and  C_2
REMARK    2  A    between atoms: C_2  and  O_3
REMARK    3  A    between atoms: O_3  and  C_4
REMARK    4  A    between atoms: C_4  and  C_6
REMARK    5  A    between atoms: C_9  and  N_10
REMARK    6  A    between atoms: C_15  and  O_16
REMARK    7  A    between atoms: C_18  and  C_19
REMARK                            x       y       z     vdW  Elec       q    Type
REMARK                         _______ _______ _______ _____ _____    ______ ____
ROOT
ATOM      1  N   UNL     1       3.572   5.108  18.902  0.00  0.00    +0.000 N 
ATOM      2  C   UNL     1       3.308   4.155  19.909  0.00  0.00    +0.000 A 
ATOM      3  S   UNL     1       3.971   2.646  20.199  0.00  0.00    +0.000 S 
ATOM      4  S   UNL     1       2.142   4.821  21.084  0.00  0.00    +0.000 S 
ATOM      5  C   UNL     1       2.096   6.339  20.223  0.00  0.00    +0.000 A 
ATOM      6  C   UNL     1       1.392   7.480  20.489  0.00  0.00    +0.000 A 
ATOM      7  N   UNL     1       1.426   8.563  19.704  0.00  0.00    +0.000 NA
ATOM      8  C   UNL     1       2.192   8.478  18.602  0.00  0.00    +0.000 A 
ATOM      9  C   UNL     1       2.223   9.660  17.684  0.00  0.00    +0.000 C 
ATOM     10  N   UNL     1       2.926   7.401  18.258  0.00  0.00    +0.000 NA
ATOM     11  C   UNL     1       2.879   6.347  19.093  0.00  0.00    +0.000 A 
ENDROOT
BRANCH   1  15
ATOM     12  C   UNL     1       6.115   4.689  15.497  0.00  0.00    +0.000 A 
ATOM     13  C   UNL     1       6.393   5.632  16.487  0.00  0.00    +0.000 A 
ATOM     14  C   UNL     1       5.574   5.741  17.612  0.00  0.00    +0.000 A 
ATOM     15  C   UNL     1       4.434   4.941  17.772  0.00  0.00    +0.000 A 
ATOM     16  C   UNL     1       4.172   3.992  16.768  0.00  0.00    +0.000 A 
ATOM     17  C   UNL     1       4.997   3.863  15.643  0.00  0.00    +0.000 A 
BRANCH  12  18
ATOM     18  C   UNL     1       6.983   4.671  14.300  0.00  0.00    +0.000 C 
ATOM     19  O   UNL     1       7.720   5.595  13.993  0.00  0.00    +0.000 OA
BRANCH  18  20
ATOM     20  O   UNL     1       6.730   3.569  13.552  0.00  0.00    +0.000 OA
BRANCH  20  22
ATOM     21  C   UNL     1       5.096   3.226  11.866  0.00  0.00    +0.000 C 
ATOM     22  C   UNL     1       6.448   3.840  12.177  0.00  0.00    +0.000 C 
ENDBRANCH  20  22
ENDBRANCH  18  20
ENDBRANCH  12  18
ENDBRANCH   1  15
BRANCH   6  23
ATOM     23  O   UNL     1       0.587   7.584  21.587  0.00  0.00    +0.000 OA
ATOM     24  H   UNL     1      -0.258   7.965  21.293  0.00  0.00    +0.000 HD
ENDBRANCH   6  23
TORSDOF 5
ENDMDL
MODEL 9
REMARK VINA RESULT:      -6.9      2.611      4.230
REMARK  Name = 
REMARK  7 active torsions:
REMARK  status: ('A' for Active; 'I' for Inactive)
REMARK    1  A    between atoms: C_1  and  C_2
REMARK    2  A    between atoms: C_2  and  O_3
REMARK    3  A    between atoms: O_3  and  C_4
REMARK    4  A    between atoms: C_4  and  C_6
REMARK    5  A    between atoms: C_9  and  N_10
REMARK    6  A    between atoms: C_15  and  O_16
REMARK    7  A    between atoms: C_18  and  C_19
REMARK                            x       y       z     vdW  Elec       q    Type
REMARK                         _______ _______ _______ _____ _____    ______ ____
ROOT
ATOM      1  N   UNL     1       3.739   5.882  18.827  0.00  0.00    +0.000 N 
ATOM      2  C   UNL     1       4.914   5.841  18.047  0.00  0.00    +0.000 A 
ATOM      3  S   UNL     1       5.687   7.028  17.155  0.00  0.00    +0.000 S 
ATOM      4  S   UNL     1       5.690   4.242  18.202  0.00  0.00    +0.000 S 
ATOM      5  C   UNL     1       4.459   3.720  19.325  0.00  0.00    +0.000 A 
ATOM      6  C   UNL     1       4.308   2.527  19.973  0.00  0.00    +0.000 A 
ATOM      7  N   UNL     1       3.278   2.255  20.781  0.00  0.00    +0.000 NA
ATOM      8  C   UNL     1       2.359   3.227  20.925  0.00  0.00    +0.000 A 
ATOM      9  C   UNL     1       1.174   2.941  21.794  0.00  0.00    +0.000 C 
ATOM     10  N   UNL     1       2.423   4.437  20.333  0.00  0.00    +0.000 NA
ATOM     11  C   UNL     1       3.492   4.671  19.552  0.00  0.00    +0.000 A 
ENDROOT
BRANCH   1  15
ATOM     12  C   UNL     1       1.094   9.217  19.171  0.00  0.00    +0.000 A 
ATOM     13  C   UNL     1       1.684   8.894  17.948  0.00  0.00    +0.000 A 
ATOM     14  C   UNL     1       2.522   7.783  17.838  0.00  0.00    +0.000 A 
ATOM     15  C   UNL     1       2.829   6.980  18.946  0.00  0.00    +0.000 A 
ATOM     16  C   UNL     1       2.222   7.317  20.168  0.00  0.00    +0.000 A 
ATOM     17  C   UNL     1       1.365   8.419  20.286  0.00  0.00    +0.000 A 
BRANCH  12  18
ATOM     18  C   UNL     1       0.269  10.443  19.234  0.00  0.00    +0.000 C 
ATOM     19  O   UNL     1       0.147  11.115  20.247  0.00  0.00    +0.000 OA
BRANCH  18  20
ATOM     20  O   UNL     1      -0.415  10.610  18.077  0.00  0.00    +0.000 OA
BRANCH  20  22
ATOM     21  C   UNL     1      -2.263   9.866  16.789  0.00  0.00    +0.000 C 
ATOM     22  C   UNL     1      -1.810  10.311  18.166  0.00  0.00    +0.000 C 
ENDBRANCH  20  22
ENDBRANCH  18  20
ENDBRANCH  12  18
ENDBRANCH   1  15
BRANCH   6  23
ATOM     23  O   UNL     1       5.213   1.513  19.826  0.00  0.00    +0.000 OA
ATOM     24  H   UNL     1       6.005   1.754  20.337  0.00  0.00    +0.000 HD
ENDBRANCH   6  23
TORSDOF 5
ENDMDL
