MODEL 1
REMARK VINA RESULT:      -6.8      0.000      0.000
REMARK  Name = 
REMARK  7 active torsions:
REMARK  status: ('A' for Active; 'I' for Inactive)
REMARK    1  A    between atoms: C_1  and  N_2
REMARK    2  A    between atoms: N_2  and  C_3
REMARK    3  A    between atoms: N_2  and  C_4
REMARK    4  A    between atoms: C_4  and  C_5
REMARK    5  A    between atoms: C_5  and  C_6
REMARK    6  A    between atoms: C_6  and  N_7
REMARK    7  A    between atoms: N_7  and  C_8
REMARK                            x       y       z     vdW  Elec       q    Type
REMARK                         _______ _______ _______ _____ _____    ______ ____
ROOT
ATOM      1  C   UNL     1       4.357   3.984  17.530  0.00  0.00    +0.000 C 
ATOM      2  C   UNL     1       4.333   4.799  16.467  0.00  0.00    +0.000 C 
ATOM      3  C   UNL     1       5.276   5.911  16.285  0.00  0.00    +0.000 C 
ATOM      4  O   UNL     1       5.224   6.609  15.280  0.00  0.00    +0.000 OA
ATOM      5  C   UNL     1       6.276   6.145  17.341  0.00  0.00    +0.000 A 
ATOM      6  C   UNL     1       7.169   7.215  17.216  0.00  0.00    +0.000 A 
ATOM      7  C   UNL     1       8.130   7.441  18.202  0.00  0.00    +0.000 A 
ATOM      8  C   UNL     1       8.205   6.595  19.309  0.00  0.00    +0.000 A 
ATOM      9  C   UNL     1       7.313   5.527  19.436  0.00  0.00    +0.000 A 
ATOM     10  C   UNL     1       6.339   5.308  18.452  0.00  0.00    +0.000 A 
ATOM     11  C   UNL     1       5.386   4.193  18.606  0.00  0.00    +0.000 C 
ATOM     12  O   UNL     1       5.431   3.441  19.577  0.00  0.00    +0.000 OA
ENDROOT
BRANCH   1  13
ATOM     13  N   UNL     1       3.465   2.928  17.725  0.00  0.00    +0.000 N 
ATOM     14  H   UNL     1       3.786   2.129  17.162  0.00  0.00    +0.000 HD
BRANCH  13  15
ATOM     15  C   UNL     1       2.025   3.118  17.538  0.00  0.00    +0.000 C 
BRANCH  15  16
ATOM     16  C   UNL     1       1.258   2.369  18.621  0.00  0.00    +0.000 C 
BRANCH  16  17
ATOM     17  C   UNL     1       0.909   3.281  19.804  0.00  0.00    +0.000 C 
BRANCH  17  19
ATOM     18  C   UNL     1       1.987   5.295  20.654  0.00  0.00    +0.000 C 
ATOM     19  N   UNL     1       2.083   3.843  20.494  0.00  0.00    +0.000 NA
ATOM     20  C   UNL     1       2.252   3.209  21.804  0.00  0.00    +0.000 C 
ENDBRANCH  17  19
ENDBRANCH  16  17
ENDBRANCH  15  16
ENDBRANCH  13  15
ENDBRANCH   1  13
TORSDOF 5
ENDMDL
MODEL 2
REMARK VINA RESULT:      -6.5      2.117      5.537
REMARK  Name = 
REMARK  7 active torsions:
REMARK  status: ('A' for Active; 'I' for Inactive)
REMARK    1  A    between atoms: C_1  and  N_2
REMARK    2  A    between atoms: N_2  and  C_3
REMARK    3  A    between atoms: N_2  and  C_4
REMARK    4  A    between atoms: C_4  and  C_5
REMARK    5  A    between atoms: C_5  and  C_6
REMARK    6  A    between atoms: C_6  and  N_7
REMARK    7  A    between atoms: N_7  and  C_8
REMARK                            x       y       z     vdW  Elec       q    Type
REMARK                         _______ _______ _______ _____ _____    ______ ____
ROOT
ATOM      1  C   UNL     1       4.315   3.410  17.424  0.00  0.00    +0.000 C 
ATOM      2  C   UNL     1       3.149   3.815  16.904  0.00  0.00    +0.000 C 
ATOM      3  C   UNL     1       1.902   3.878  17.679  0.00  0.00    +0.000 C 
ATOM      4  O   UNL     1       0.869   4.280  17.158  0.00  0.00    +0.000 OA
ATOM      5  C   UNL     1       1.944   3.448  19.086  0.00  0.00    +0.000 A 
ATOM      6  C   UNL     1       0.768   3.464  19.845  0.00  0.00    +0.000 A 
ATOM      7  C   UNL     1       0.795   3.071  21.184  0.00  0.00    +0.000 A 
ATOM      8  C   UNL     1       1.997   2.672  21.769  0.00  0.00    +0.000 A 
ATOM      9  C   UNL     1       3.172   2.654  21.012  0.00  0.00    +0.000 A 
ATOM     10  C   UNL     1       3.142   3.035  19.664  0.00  0.00    +0.000 A 
ATOM     11  C   UNL     1       4.382   2.991  18.866  0.00  0.00    +0.000 C 
ATOM     12  O   UNL     1       5.449   2.635  19.361  0.00  0.00    +0.000 OA
ENDROOT
BRANCH   1  13
ATOM     13  N   UNL     1       5.508   3.336  16.703  0.00  0.00    +0.000 N 
ATOM     14  H   UNL     1       6.270   3.671  17.309  0.00  0.00    +0.000 HD
BRANCH  13  15
ATOM     15  C   UNL     1       5.624   3.950  15.379  0.00  0.00    +0.000 C 
BRANCH  15  16
ATOM     16  C   UNL     1       6.680   5.048  15.408  0.00  0.00    +0.000 C 
BRANCH  16  17
ATOM     17  C   UNL     1       7.486   5.028  16.713  0.00  0.00    +0.000 C 
BRANCH  17  19
ATOM     18  C   UNL     1       7.608   5.679  19.058  0.00  0.00    +0.000 C 
ATOM     19  N   UNL     1       6.910   5.860  17.784  0.00  0.00    +0.000 NA
ATOM     20  C   UNL     1       6.938   7.273  17.398  0.00  0.00    +0.000 C 
ENDBRANCH  17  19
ENDBRANCH  16  17
ENDBRANCH  15  16
ENDBRANCH  13  15
ENDBRANCH   1  13
TORSDOF 5
ENDMDL
MODEL 3
REMARK VINA RESULT:      -6.4      2.150      5.564
REMARK  Name = 
REMARK  7 active torsions:
REMARK  status: ('A' for Active; 'I' for Inactive)
REMARK    1  A    between atoms: C_1  and  N_2
REMARK    2  A    between atoms: N_2  and  C_3
REMARK    3  A    between atoms: N_2  and  C_4
REMARK    4  A    between atoms: C_4  and  C_5
REMARK    5  A    between atoms: C_5  and  C_6
REMARK    6  A    between atoms: C_6  and  N_7
REMARK    7  A    between atoms: N_7  and  C_8
REMARK                            x       y       z     vdW  Elec       q    Type
REMARK                         _______ _______ _______ _____ _____    ______ ____
ROOT
ATOM      1  C   UNL     1       4.310   4.424  16.792  0.00  0.00    +0.000 C 
ATOM      2  C   UNL     1       4.204   3.105  16.998  0.00  0.00    +0.000 C 
ATOM      3  C   UNL     1       3.435   2.523  18.106  0.00  0.00    +0.000 C 
ATOM      4  O   UNL     1       3.351   1.307  18.231  0.00  0.00    +0.000 OA
ATOM      5  C   UNL     1       2.774   3.446  19.044  0.00  0.00    +0.000 A 
ATOM      6  C   UNL     1       2.059   2.927  20.129  0.00  0.00    +0.000 A 
ATOM      7  C   UNL     1       1.417   3.789  21.019  0.00  0.00    +0.000 A 
ATOM      8  C   UNL     1       1.480   5.169  20.821  0.00  0.00    +0.000 A 
ATOM      9  C   UNL     1       2.194   5.689  19.738  0.00  0.00    +0.000 A 
ATOM     10  C   UNL     1       2.851   4.823  18.852  0.00  0.00    +0.000 A 
ATOM     11  C   UNL     1       3.622   5.381  17.725  0.00  0.00    +0.000 C 
ATOM     12  O   UNL     1       3.696   6.593  17.538  0.00  0.00    +0.000 OA
ENDROOT
BRANCH   1  13
ATOM     13  N   UNL     1       5.043   4.996  15.751  0.00  0.00    +0.000 N 
ATOM     14  H   UNL     1       4.388   5.241  14.995  0.00  0.00    +0.000 HD
BRANCH  13  15
ATOM     15  C   UNL     1       6.211   4.312  15.191  0.00  0.00    +0.000 C 
BRANCH  15  16
ATOM     16  C   UNL     1       7.488   4.911  15.768  0.00  0.00    +0.000 C 
BRANCH  16  17
ATOM     17  C   UNL     1       7.620   4.627  17.270  0.00  0.00    +0.000 C 
BRANCH  17  19
ATOM     18  C   UNL     1       7.833   5.711  19.443  0.00  0.00    +0.000 C 
ATOM     19  N   UNL     1       7.183   5.740  18.131  0.00  0.00    +0.000 NA
ATOM     20  C   UNL     1       7.448   7.022  17.473  0.00  0.00    +0.000 C 
ENDBRANCH  17  19
ENDBRANCH  16  17
ENDBRANCH  15  16
ENDBRANCH  13  15
ENDBRANCH   1  13
TORSDOF 5
ENDMDL
MODEL 4
REMARK VINA RESULT:      -6.2      2.868      6.355
REMARK  Name = 
REMARK  7 active torsions:
REMARK  status: ('A' for Active; 'I' for Inactive)
REMARK    1  A    between atoms: C_1  and  N_2
REMARK    2  A    between atoms: N_2  and  C_3
REMARK    3  A    between atoms: N_2  and  C_4
REMARK    4  A    between atoms: C_4  and  C_5
REMARK    5  A    between atoms: C_5  and  C_6
REMARK    6  A    between atoms: C_6  and  N_7
REMARK    7  A    between atoms: N_7  and  C_8
REMARK                            x       y       z     vdW  Elec       q    Type
REMARK                         _______ _______ _______ _____ _____    ______ ____
ROOT
ATOM      1  C   UNL     1       4.558   4.703  16.998  0.00  0.00    +0.000 C 
ATOM      2  C   UNL     1       4.480   3.368  17.079  0.00  0.00    +0.000 C 
ATOM      3  C   UNL     1       3.618   2.670  18.043  0.00  0.00    +0.000 C 
ATOM      4  O   UNL     1       3.567   1.447  18.055  0.00  0.00    +0.000 OA
ATOM      5  C   UNL     1       2.827   3.489  18.976  0.00  0.00    +0.000 A 
ATOM      6  C   UNL     1       2.020   2.858  19.929  0.00  0.00    +0.000 A 
ATOM      7  C   UNL     1       1.254   3.621  20.812  0.00  0.00    +0.000 A 
ATOM      8  C   UNL     1       1.287   5.013  20.738  0.00  0.00    +0.000 A 
ATOM      9  C   UNL     1       2.093   5.646  19.788  0.00  0.00    +0.000 A 
ATOM     10  C   UNL     1       2.872   4.880  18.910  0.00  0.00    +0.000 A 
ATOM     11  C   UNL     1       3.739   5.555  17.926  0.00  0.00    +0.000 C 
ATOM     12  O   UNL     1       3.787   6.780  17.851  0.00  0.00    +0.000 OA
ENDROOT
BRANCH   1  13
ATOM     13  N   UNL     1       5.377   5.384  16.095  0.00  0.00    +0.000 N 
ATOM     14  H   UNL     1       4.880   5.444  15.195  0.00  0.00    +0.000 HD
BRANCH  13  15
ATOM     15  C   UNL     1       6.760   4.959  15.868  0.00  0.00    +0.000 C 
BRANCH  15  16
ATOM     16  C   UNL     1       6.977   4.668  14.388  0.00  0.00    +0.000 C 
BRANCH  16  17
ATOM     17  C   UNL     1       5.695   4.159  13.715  0.00  0.00    +0.000 C 
BRANCH  17  19
ATOM     18  C   UNL     1       4.744   3.202  11.686  0.00  0.00    +0.000 C 
ATOM     19  N   UNL     1       5.936   3.320  12.528  0.00  0.00    +0.000 NA
ATOM     20  C   UNL     1       7.048   3.862  11.742  0.00  0.00    +0.000 C 
ENDBRANCH  17  19
ENDBRANCH  16  17
ENDBRANCH  15  16
ENDBRANCH  13  15
ENDBRANCH   1  13
TORSDOF 5
ENDMDL
MODEL 5
REMARK VINA RESULT:      -6.2      2.025      3.404
REMARK  Name = 
REMARK  7 active torsions:
REMARK  status: ('A' for Active; 'I' for Inactive)
REMARK    1  A    between atoms: C_1  and  N_2
REMARK    2  A    between atoms: N_2  and  C_3
REMARK    3  A    between atoms: N_2  and  C_4
REMARK    4  A    between atoms: C_4  and  C_5
REMARK    5  A    between atoms: C_5  and  C_6
REMARK    6  A    between atoms: C_6  and  N_7
REMARK    7  A    between atoms: N_7  and  C_8
REMARK                            x       y       z     vdW  Elec       q    Type
REMARK                         _______ _______ _______ _____ _____    ______ ____
ROOT
ATOM      1  C   UNL     1       4.913   5.300  18.146  0.00  0.00    +0.000 C 
ATOM      2  C   UNL     1       5.980   6.107  18.082  0.00  0.00    +0.000 C 
ATOM      3  C   UNL     1       6.847   6.201  16.899  0.00  0.00    +0.000 C 
ATOM      4  O   UNL     1       7.795   6.976  16.886  0.00  0.00    +0.000 OA
ATOM      5  C   UNL     1       6.531   5.343  15.745  0.00  0.00    +0.000 A 
ATOM      6  C   UNL     1       7.354   5.383  14.614  0.00  0.00    +0.000 A 
ATOM      7  C   UNL     1       7.060   4.585  13.507  0.00  0.00    +0.000 A 
ATOM      8  C   UNL     1       5.940   3.754  13.526  0.00  0.00    +0.000 A 
ATOM      9  C   UNL     1       5.118   3.711  14.655  0.00  0.00    +0.000 A 
ATOM     10  C   UNL     1       5.421   4.503  15.771  0.00  0.00    +0.000 A 
ATOM     11  C   UNL     1       4.561   4.434  16.968  0.00  0.00    +0.000 C 
ATOM     12  O   UNL     1       3.575   3.703  17.006  0.00  0.00    +0.000 OA
ENDROOT
BRANCH   1  13
ATOM     13  N   UNL     1       4.083   5.190  19.263  0.00  0.00    +0.000 N 
ATOM     14  H   UNL     1       3.708   4.231  19.291  0.00  0.00    +0.000 HD
BRANCH  13  15
ATOM     15  C   UNL     1       3.000   6.150  19.490  0.00  0.00    +0.000 C 
BRANCH  15  16
ATOM     16  C   UNL     1       1.960   5.546  20.426  0.00  0.00    +0.000 C 
BRANCH  16  17
ATOM     17  C   UNL     1       1.325   4.282  19.831  0.00  0.00    +0.000 C 
BRANCH  17  19
ATOM     18  C   UNL     1       1.775   2.639  21.573  0.00  0.00    +0.000 C 
ATOM     19  N   UNL     1       2.026   3.036  20.187  0.00  0.00    +0.000 NA
ATOM     20  C   UNL     1       1.630   1.955  19.281  0.00  0.00    +0.000 C 
ENDBRANCH  17  19
ENDBRANCH  16  17
ENDBRANCH  15  16
ENDBRANCH  13  15
ENDBRANCH   1  13
TORSDOF 5
ENDMDL
MODEL 6
REMARK VINA RESULT:      -6.1      3.713      6.862
REMARK  Name = 
REMARK  7 active torsions:
REMARK  status: ('A' for Active; 'I' for Inactive)
REMARK    1  A    between atoms: C_1  and  N_2
REMARK    2  A    between atoms: N_2  and  C_3
REMARK    3  A    between atoms: N_2  and  C_4
REMARK    4  A    between atoms: C_4  and  C_5
REMARK    5  A    between atoms: C_5  and  C_6
REMARK    6  A    between atoms: C_6  and  N_7
REMARK    7  A    between atoms: N_7  and  C_8
REMARK                            x       y       z     vdW  Elec       q    Type
REMARK                         _______ _______ _______ _____ _____    ______ ____
ROOT
ATOM      1  C   UNL     1       7.094   6.505  17.873  0.00  0.00    +0.000 C 
ATOM      2  C   UNL     1       6.592   6.532  16.632  0.00  0.00    +0.000 C 
ATOM      3  C   UNL     1       5.522   5.633  16.177  0.00  0.00    +0.000 C 
ATOM      4  O   UNL     1       5.084   5.719  15.037  0.00  0.00    +0.000 OA
ATOM      5  C   UNL     1       5.003   4.642  17.135  0.00  0.00    +0.000 A 
ATOM      6  C   UNL     1       4.007   3.748  16.726  0.00  0.00    +0.000 A 
ATOM      7  C   UNL     1       3.496   2.812  17.627  0.00  0.00    +0.000 A 
ATOM      8  C   UNL     1       3.973   2.774  18.937  0.00  0.00    +0.000 A 
ATOM      9  C   UNL     1       4.969   3.664  19.346  0.00  0.00    +0.000 A 
ATOM     10  C   UNL     1       5.491   4.596  18.438  0.00  0.00    +0.000 A 
ATOM     11  C   UNL     1       6.559   5.516  18.872  0.00  0.00    +0.000 C 
ATOM     12  O   UNL     1       6.998   5.493  20.019  0.00  0.00    +0.000 OA
ENDROOT
BRANCH   1  13
ATOM     13  N   UNL     1       8.115   7.345  18.321  0.00  0.00    +0.000 N 
ATOM     14  H   UNL     1       8.149   7.288  19.349  0.00  0.00    +0.000 HD
BRANCH  13  15
ATOM     15  C   UNL     1       8.173   8.746  17.901  0.00  0.00    +0.000 C 
BRANCH  15  16
ATOM     16  C   UNL     1       8.928   9.567  18.939  0.00  0.00    +0.000 C 
BRANCH  16  17
ATOM     17  C   UNL     1       9.616  10.786  18.310  0.00  0.00    +0.000 C 
BRANCH  17  19
ATOM     18  C   UNL     1       9.693  11.465  20.649  0.00  0.00    +0.000 C 
ATOM     19  N   UNL     1      10.175  11.731  19.292  0.00  0.00    +0.000 NA
ATOM     20  C   UNL     1      11.639  11.681  19.267  0.00  0.00    +0.000 C 
ENDBRANCH  17  19
ENDBRANCH  16  17
ENDBRANCH  15  16
ENDBRANCH  13  15
ENDBRANCH   1  13
TORSDOF 5
ENDMDL
MODEL 7
REMARK VINA RESULT:      -6.1      2.228      5.294
REMARK  Name = 
REMARK  7 active torsions:
REMARK  status: ('A' for Active; 'I' for Inactive)
REMARK    1  A    between atoms: C_1  and  N_2
REMARK    2  A    between atoms: N_2  and  C_3
REMARK    3  A    between atoms: N_2  and  C_4
REMARK    4  A    between atoms: C_4  and  C_5
REMARK    5  A    between atoms: C_5  and  C_6
REMARK    6  A    between atoms: C_6  and  N_7
REMARK    7  A    between atoms: N_7  and  C_8
REMARK                            x       y       z     vdW  Elec       q    Type
REMARK                         _______ _______ _______ _____ _____    ______ ____
ROOT
ATOM      1  C   UNL     1       3.987   4.506  16.980  0.00  0.00    +0.000 C 
ATOM      2  C   UNL     1       3.694   5.715  17.477  0.00  0.00    +0.000 C 
ATOM      3  C   UNL     1       2.981   5.911  18.748  0.00  0.00    +0.000 C 
ATOM      4  O   UNL     1       2.763   7.040  19.167  0.00  0.00    +0.000 OA
ATOM      5  C   UNL     1       2.552   4.712  19.487  0.00  0.00    +0.000 A 
ATOM      6  C   UNL     1       1.842   4.861  20.684  0.00  0.00    +0.000 A 
ATOM      7  C   UNL     1       1.439   3.735  21.403  0.00  0.00    +0.000 A 
ATOM      8  C   UNL     1       1.752   2.459  20.931  0.00  0.00    +0.000 A 
ATOM      9  C   UNL     1       2.459   2.308  19.736  0.00  0.00    +0.000 A 
ATOM     10  C   UNL     1       2.852   3.440  19.007  0.00  0.00    +0.000 A 
ATOM     11  C   UNL     1       3.577   3.271  17.734  0.00  0.00    +0.000 C 
ATOM     12  O   UNL     1       3.855   2.156  17.298  0.00  0.00    +0.000 OA
ENDROOT
BRANCH   1  13
ATOM     13  N   UNL     1       4.655   4.299  15.772  0.00  0.00    +0.000 N 
ATOM     14  H   UNL     1       4.047   3.735  15.162  0.00  0.00    +0.000 HD
BRANCH  13  15
ATOM     15  C   UNL     1       6.016   3.758  15.751  0.00  0.00    +0.000 C 
BRANCH  15  16
ATOM     16  C   UNL     1       7.013   4.850  16.120  0.00  0.00    +0.000 C 
BRANCH  16  17
ATOM     17  C   UNL     1       7.701   4.563  17.461  0.00  0.00    +0.000 C 
BRANCH  17  19
ATOM     18  C   UNL     1       7.441   6.972  17.718  0.00  0.00    +0.000 C 
ATOM     19  N   UNL     1       7.681   5.698  18.399  0.00  0.00    +0.000 NA
ATOM     20  C   UNL     1       6.661   5.486  19.429  0.00  0.00    +0.000 C 
ENDBRANCH  17  19
ENDBRANCH  16  17
ENDBRANCH  15  16
ENDBRANCH  13  15
ENDBRANCH   1  13
TORSDOF 5
ENDMDL
MODEL 8
REMARK VINA RESULT:      -6.1      2.664      6.160
REMARK  Name = 
REMARK  7 active torsions:
REMARK  status: ('A' for Active; 'I' for Inactive)
REMARK    1  A    between atoms: C_1  and  N_2
REMARK    2  A    between atoms: N_2  and  C_3
REMARK    3  A    between atoms: N_2  and  C_4
REMARK    4  A    between atoms: C_4  and  C_5
REMARK    5  A    between atoms: C_5  and  C_6
REMARK    6  A    between atoms: C_6  and  N_7
REMARK    7  A    between atoms: N_7  and  C_8
REMARK                            x       y       z     vdW  Elec       q    Type
REMARK                         _______ _______ _______ _____ _____    ______ ____
ROOT
ATOM      1  C   UNL     1       3.869   5.960  17.413  0.00  0.00    +0.000 C 
ATOM      2  C   UNL     1       3.376   6.825  18.309  0.00  0.00    +0.000 C 
ATOM      3  C   UNL     1       2.503   6.421  19.420  0.00  0.00    +0.000 C 
ATOM      4  O   UNL     1       2.101   7.252  20.225  0.00  0.00    +0.000 OA
ATOM      5  C   UNL     1       2.140   4.998  19.527  0.00  0.00    +0.000 A 
ATOM      6  C   UNL     1       1.284   4.583  20.554  0.00  0.00    +0.000 A 
ATOM      7  C   UNL     1       0.942   3.235  20.676  0.00  0.00    +0.000 A 
ATOM      8  C   UNL     1       1.460   2.301  19.779  0.00  0.00    +0.000 A 
ATOM      9  C   UNL     1       2.314   2.714  18.753  0.00  0.00    +0.000 A 
ATOM     10  C   UNL     1       2.647   4.069  18.622  0.00  0.00    +0.000 A 
ATOM     11  C   UNL     1       3.529   4.500  17.521  0.00  0.00    +0.000 C 
ATOM     12  O   UNL     1       3.990   3.693  16.717  0.00  0.00    +0.000 OA
ENDROOT
BRANCH   1  13
ATOM     13  N   UNL     1       4.693   6.325  16.346  0.00  0.00    +0.000 N 
ATOM     14  H   UNL     1       4.607   5.606  15.615  0.00  0.00    +0.000 HD
BRANCH  13  15
ATOM     15  C   UNL     1       6.106   6.643  16.565  0.00  0.00    +0.000 C 
BRANCH  15  16
ATOM     16  C   UNL     1       6.876   5.373  16.905  0.00  0.00    +0.000 C 
BRANCH  16  17
ATOM     17  C   UNL     1       7.534   4.757  15.664  0.00  0.00    +0.000 C 
BRANCH  17  19
ATOM     18  C   UNL     1       7.816   5.415  13.335  0.00  0.00    +0.000 C 
ATOM     19  N   UNL     1       6.861   5.097  14.399  0.00  0.00    +0.000 NA
ATOM     20  C   UNL     1       5.993   3.996  13.975  0.00  0.00    +0.000 C 
ENDBRANCH  17  19
ENDBRANCH  16  17
ENDBRANCH  15  16
ENDBRANCH  13  15
ENDBRANCH   1  13
TORSDOF 5
ENDMDL
MODEL 9
REMARK VINA RESULT:      -6.0      3.222      6.459
REMARK  Name = 
REMARK  7 active torsions:
REMARK  status: ('A' for Active; 'I' for Inactive)
REMARK    1  A    between atoms: C_1  and  N_2
REMARK    2  A    between atoms: N_2  and  C_3
REMARK    3  A    between atoms: N_2  and  C_4
REMARK    4  A    between atoms: C_4  and  C_5
REMARK    5  A    between atoms: C_5  and  C_6
REMARK    6  A    between atoms: C_6  and  N_7
REMARK    7  A    between atoms: N_7  and  C_8
REMARK                            x       y       z     vdW  Elec       q    Type
REMARK                         _______ _______ _______ _____ _____    ______ ____
ROOT
ATOM      1  C   UNL     1       4.533   4.550  16.821  0.00  0.00    +0.000 C 
ATOM      2  C   UNL     1       4.383   3.230  16.996  0.00  0.00    +0.000 C 
ATOM      3  C   UNL     1       3.548   2.650  18.057  0.00  0.00    +0.000 C 
ATOM      4  O   UNL     1       3.427   1.435  18.155  0.00  0.00    +0.000 OA
ATOM      5  C   UNL     1       2.870   3.574  18.981  0.00  0.00    +0.000 A 
ATOM      6  C   UNL     1       2.093   3.056  20.024  0.00  0.00    +0.000 A 
ATOM      7  C   UNL     1       1.434   3.919  20.900  0.00  0.00    +0.000 A 
ATOM      8  C   UNL     1       1.543   5.300  20.731  0.00  0.00    +0.000 A 
ATOM      9  C   UNL     1       2.319   5.819  19.692  0.00  0.00    +0.000 A 
ATOM     10  C   UNL     1       2.992   4.952  18.820  0.00  0.00    +0.000 A 
ATOM     11  C   UNL     1       3.829   5.508  17.740  0.00  0.00    +0.000 C 
ATOM     12  O   UNL     1       3.943   6.721  17.579  0.00  0.00    +0.000 OA
ENDROOT
BRANCH   1  13
ATOM     13  N   UNL     1       5.327   5.120  15.824  0.00  0.00    +0.000 N 
ATOM     14  H   UNL     1       4.726   5.713  15.235  0.00  0.00    +0.000 HD
BRANCH  13  15
ATOM     15  C   UNL     1       6.181   4.285  14.976  0.00  0.00    +0.000 C 
BRANCH  15  16
ATOM     16  C   UNL     1       5.537   4.109  13.606  0.00  0.00    +0.000 C 
BRANCH  16  17
ATOM     17  C   UNL     1       6.452   3.344  12.642  0.00  0.00    +0.000 C 
BRANCH  17  19
ATOM     18  C   UNL     1       5.980   1.385  11.272  0.00  0.00    +0.000 C 
ATOM     19  N   UNL     1       5.762   2.822  11.450  0.00  0.00    +0.000 NA
ATOM     20  C   UNL     1       4.326   3.100  11.534  0.00  0.00    +0.000 C 
ENDBRANCH  17  19
ENDBRANCH  16  17
ENDBRANCH  15  16
ENDBRANCH  13  15
ENDBRANCH   1  13
TORSDOF 5
ENDMDL
