MODEL 1
REMARK VINA RESULT:      -7.8      0.000      0.000
REMARK  Name = 
REMARK  9 active torsions:
REMARK  status: ('A' for Active; 'I' for Inactive)
REMARK    1  A    between atoms: C_1  and  O_2
REMARK    2  A    between atoms: O_2  and  C_3
REMARK    3  A    between atoms: C_6  and  S_7
REMARK    4  A    between atoms: S_7  and  N_10
REMARK    5  A    between atoms: N_10  and  C_11
REMARK    6  A    between atoms: N_10  and  C_17
REMARK    7  A    between atoms: C_11  and  C_12
REMARK    8  A    between atoms: C_28  and  N_29
REMARK    9  A    between atoms: C_30  and  C_31
REMARK                            x       y       z     vdW  Elec       q    Type
REMARK                         _______ _______ _______ _____ _____    ______ ____
ROOT
ATOM      1  N   UNL     1       0.355  10.731  20.082  0.00  0.00    +0.000 N 
ENDROOT
BRANCH   1   2
ATOM      2  C   UNL     1      -0.865  10.734  19.307  0.00  0.00    +0.000 A 
ATOM      3  C   UNL     1      -0.909  10.111  18.048  0.00  0.00    +0.000 A 
ATOM      4  C   UNL     1      -2.009  10.262  17.210  0.00  0.00    +0.000 A 
ATOM      5  C   UNL     1      -3.067  11.063  17.608  0.00  0.00    +0.000 A 
ATOM      6  C   UNL     1      -3.022  11.694  18.849  0.00  0.00    +0.000 A 
ATOM      7  C   UNL     1      -1.957  11.492  19.720  0.00  0.00    +0.000 A 
ATOM      8  O   UNL     1      -3.983  12.583  19.245  0.00  0.00    +0.000 OA
ATOM      9  C   UNL     1      -5.237  12.151  18.733  0.00  0.00    +0.000 C 
ATOM     10  C   UNL     1      -5.209  11.933  17.224  0.00  0.00    +0.000 C 
ATOM     11  O   UNL     1      -4.099  11.182  16.730  0.00  0.00    +0.000 OA
ENDBRANCH   1   2
BRANCH   1  12
ATOM     12  S   UNL     1       0.690   9.318  21.008  0.00  0.00    +0.000 S 
ATOM     13  O   UNL     1      -0.560   8.642  21.252  0.00  0.00    +0.000 OA
ATOM     14  O   UNL     1       1.508   9.731  22.146  0.00  0.00    +0.000 OA
BRANCH  12  18
ATOM     15  C   UNL     1       2.904   6.383  18.281  0.00  0.00    +0.000 A 
ATOM     16  C   UNL     1       2.771   7.734  17.968  0.00  0.00    +0.000 A 
ATOM     17  C   UNL     1       2.155   8.595  18.875  0.00  0.00    +0.000 A 
ATOM     18  C   UNL     1       1.718   8.135  20.126  0.00  0.00    +0.000 A 
ATOM     19  C   UNL     1       1.996   6.813  20.499  0.00  0.00    +0.000 A 
ATOM     20  C   UNL     1       2.563   5.922  19.567  0.00  0.00    +0.000 A 
BRANCH  20  21
ATOM     21  N   UNL     1       2.721   4.533  19.789  0.00  0.00    +0.000 N 
ATOM     22  C   UNL     1       1.746   3.571  19.903  0.00  0.00    +0.000 C 
ATOM     23  C   UNL     1       2.272   2.157  19.755  0.00  0.00    +0.000 C 
ATOM     24  O   UNL     1       0.556   3.771  20.116  0.00  0.00    +0.000 OA
ATOM     25  H   UNL     1       3.686   4.241  19.903  0.00  0.00    +0.000 HD
ENDBRANCH  20  21
BRANCH  15  27
ATOM     26  C   UNL     1       4.683   5.659  16.907  0.00  0.00    +0.000 C 
ATOM     27  O   UNL     1       3.353   5.439  17.379  0.00  0.00    +0.000 OA
ENDBRANCH  15  27
ENDBRANCH  12  18
ENDBRANCH   1  12
BRANCH   1  28
ATOM     28  C   UNL     1       0.837  12.017  20.640  0.00  0.00    +0.000 C 
BRANCH  28  29
ATOM     29  C   UNL     1       1.839  12.783  19.813  0.00  0.00    +0.000 A 
ATOM     30  C   UNL     1       2.162  12.802  18.469  0.00  0.00    +0.000 A 
ATOM     31  C   UNL     1       3.069  13.864  18.142  0.00  0.00    +0.000 A 
ATOM     32  C   UNL     1       3.445  14.591  19.248  0.00  0.00    +0.000 A 
ATOM     33  S   UNL     1       2.793  13.943  20.680  0.00  0.00    +0.000 S 
ENDBRANCH  28  29
ENDBRANCH   1  28
TORSDOF 7
ENDMDL
MODEL 2
REMARK VINA RESULT:      -7.7      0.845      1.482
REMARK  Name = 
REMARK  9 active torsions:
REMARK  status: ('A' for Active; 'I' for Inactive)
REMARK    1  A    between atoms: C_1  and  O_2
REMARK    2  A    between atoms: O_2  and  C_3
REMARK    3  A    between atoms: C_6  and  S_7
REMARK    4  A    between atoms: S_7  and  N_10
REMARK    5  A    between atoms: N_10  and  C_11
REMARK    6  A    between atoms: N_10  and  C_17
REMARK    7  A    between atoms: C_11  and  C_12
REMARK    8  A    between atoms: C_28  and  N_29
REMARK    9  A    between atoms: C_30  and  C_31
REMARK                            x       y       z     vdW  Elec       q    Type
REMARK                         _______ _______ _______ _____ _____    ______ ____
ROOT
ATOM      1  N   UNL     1       0.673  11.024  20.184  0.00  0.00    +0.000 N 
ENDROOT
BRANCH   1   2
ATOM      2  C   UNL     1      -0.530  11.321  19.440  0.00  0.00    +0.000 A 
ATOM      3  C   UNL     1      -1.581  12.033  20.043  0.00  0.00    +0.000 A 
ATOM      4  C   UNL     1      -2.814  12.166  19.412  0.00  0.00    +0.000 A 
ATOM      5  C   UNL     1      -3.020  11.562  18.182  0.00  0.00    +0.000 A 
ATOM      6  C   UNL     1      -1.986  10.842  17.587  0.00  0.00    +0.000 A 
ATOM      7  C   UNL     1      -0.731  10.765  18.180  0.00  0.00    +0.000 A 
ATOM      8  O   UNL     1      -2.168  10.134  16.432  0.00  0.00    +0.000 OA
ATOM      9  C   UNL     1      -3.083  10.842  15.606  0.00  0.00    +0.000 C 
ATOM     10  C   UNL     1      -4.390  11.163  16.323  0.00  0.00    +0.000 C 
ATOM     11  O   UNL     1      -4.256  11.715  17.632  0.00  0.00    +0.000 OA
ENDBRANCH   1   2
BRANCH   1  12
ATOM     12  S   UNL     1       0.716   9.528  21.035  0.00  0.00    +0.000 S 
ATOM     13  O   UNL     1      -0.630   9.010  21.090  0.00  0.00    +0.000 OA
ATOM     14  O   UNL     1       1.438   9.761  22.284  0.00  0.00    +0.000 OA
BRANCH  12  18
ATOM     15  C   UNL     1       2.754   6.377  18.415  0.00  0.00    +0.000 A 
ATOM     16  C   UNL     1       2.614   7.704  18.011  0.00  0.00    +0.000 A 
ATOM     17  C   UNL     1       2.055   8.635  18.885  0.00  0.00    +0.000 A 
ATOM     18  C   UNL     1       1.685   8.272  20.188  0.00  0.00    +0.000 A 
ATOM     19  C   UNL     1       1.974   6.978  20.641  0.00  0.00    +0.000 A 
ATOM     20  C   UNL     1       2.482   6.015  19.747  0.00  0.00    +0.000 A 
BRANCH  20  21
ATOM     21  N   UNL     1       2.642   4.644  20.062  0.00  0.00    +0.000 N 
ATOM     22  C   UNL     1       1.682   3.662  20.108  0.00  0.00    +0.000 C 
ATOM     23  C   UNL     1       2.253   2.257  20.101  0.00  0.00    +0.000 C 
ATOM     24  O   UNL     1       0.470   3.839  20.164  0.00  0.00    +0.000 OA
ATOM     25  H   UNL     1       3.592   4.386  20.307  0.00  0.00    +0.000 HD
ENDBRANCH  20  21
BRANCH  15  27
ATOM     26  C   UNL     1       4.446   5.539  16.995  0.00  0.00    +0.000 C 
ATOM     27  O   UNL     1       3.145   5.365  17.561  0.00  0.00    +0.000 OA
ENDBRANCH  15  27
ENDBRANCH  12  18
ENDBRANCH   1  12
BRANCH   1  28
ATOM     28  C   UNL     1       1.421  12.151  20.790  0.00  0.00    +0.000 C 
BRANCH  28  29
ATOM     29  C   UNL     1       1.953  13.200  19.845  0.00  0.00    +0.000 A 
ATOM     30  C   UNL     1       2.683  13.155  18.672  0.00  0.00    +0.000 A 
ATOM     31  C   UNL     1       2.773  14.438  18.038  0.00  0.00    +0.000 A 
ATOM     32  C   UNL     1       2.152  15.427  18.767  0.00  0.00    +0.000 A 
ATOM     33  S   UNL     1       1.553  14.839  20.246  0.00  0.00    +0.000 S 
ENDBRANCH  28  29
ENDBRANCH   1  28
TORSDOF 7
ENDMDL
MODEL 3
REMARK VINA RESULT:      -7.5      3.623      9.225
REMARK  Name = 
REMARK  9 active torsions:
REMARK  status: ('A' for Active; 'I' for Inactive)
REMARK    1  A    between atoms: C_1  and  O_2
REMARK    2  A    between atoms: O_2  and  C_3
REMARK    3  A    between atoms: C_6  and  S_7
REMARK    4  A    between atoms: S_7  and  N_10
REMARK    5  A    between atoms: N_10  and  C_11
REMARK    6  A    between atoms: N_10  and  C_17
REMARK    7  A    between atoms: C_11  and  C_12
REMARK    8  A    between atoms: C_28  and  N_29
REMARK    9  A    between atoms: C_30  and  C_31
REMARK                            x       y       z     vdW  Elec       q    Type
REMARK                         _______ _______ _______ _____ _____    ______ ____
ROOT
ATOM      1  N   UNL     1       4.536   4.535  17.577  0.00  0.00    +0.000 N 
ENDROOT
BRANCH   1   2
ATOM      2  C   UNL     1       5.357   4.398  16.396  0.00  0.00    +0.000 A 
ATOM      3  C   UNL     1       6.676   4.887  16.387  0.00  0.00    +0.000 A 
ATOM      4  C   UNL     1       7.416   4.935  15.210  0.00  0.00    +0.000 A 
ATOM      5  C   UNL     1       6.836   4.523  14.021  0.00  0.00    +0.000 A 
ATOM      6  C   UNL     1       5.525   4.052  14.022  0.00  0.00    +0.000 A 
ATOM      7  C   UNL     1       4.804   3.936  15.205  0.00  0.00    +0.000 A 
ATOM      8  O   UNL     1       4.867   3.740  12.865  0.00  0.00    +0.000 OA
ATOM      9  C   UNL     1       5.801   3.184  11.949  0.00  0.00    +0.000 C 
ATOM     10  C   UNL     1       7.008   4.088  11.724  0.00  0.00    +0.000 C 
ATOM     11  O   UNL     1       7.611   4.617  12.906  0.00  0.00    +0.000 OA
ENDBRANCH   1   2
BRANCH   1  12
ATOM     12  S   UNL     1       4.781   5.940  18.542  0.00  0.00    +0.000 S 
ATOM     13  O   UNL     1       5.703   6.802  17.844  0.00  0.00    +0.000 OA
ATOM     14  O   UNL     1       5.117   5.485  19.890  0.00  0.00    +0.000 OA
BRANCH  12  18
ATOM     15  C   UNL     1       1.326   8.909  18.983  0.00  0.00    +0.000 A 
ATOM     16  C   UNL     1       2.025   8.752  17.787  0.00  0.00    +0.000 A 
ATOM     17  C   UNL     1       3.016   7.776  17.691  0.00  0.00    +0.000 A 
ATOM     18  C   UNL     1       3.281   6.907  18.759  0.00  0.00    +0.000 A 
ATOM     19  C   UNL     1       2.469   6.965  19.900  0.00  0.00    +0.000 A 
ATOM     20  C   UNL     1       1.507   7.986  20.030  0.00  0.00    +0.000 A 
BRANCH  20  21
ATOM     21  N   UNL     1       0.764   8.232  21.208  0.00  0.00    +0.000 N 
ATOM     22  C   UNL     1       1.071   9.073  22.251  0.00  0.00    +0.000 C 
ATOM     23  C   UNL     1      -0.112   9.378  23.150  0.00  0.00    +0.000 C 
ATOM     24  O   UNL     1       2.173   9.553  22.491  0.00  0.00    +0.000 OA
ATOM     25  H   UNL     1      -0.087   7.684  21.281  0.00  0.00    +0.000 HD
ENDBRANCH  20  21
BRANCH  15  27
ATOM     26  C   UNL     1       1.051  11.245  19.199  0.00  0.00    +0.000 C 
ATOM     27  O   UNL     1       0.449   9.950  19.214  0.00  0.00    +0.000 OA
ENDBRANCH  15  27
ENDBRANCH  12  18
ENDBRANCH   1  12
BRANCH   1  28
ATOM     28  C   UNL     1       4.124   3.304  18.294  0.00  0.00    +0.000 C 
BRANCH  28  29
ATOM     29  C   UNL     1       2.786   3.339  18.989  0.00  0.00    +0.000 A 
ATOM     30  C   UNL     1       1.486   3.538  18.562  0.00  0.00    +0.000 A 
ATOM     31  C   UNL     1       0.528   3.279  19.598  0.00  0.00    +0.000 A 
ATOM     32  C   UNL     1       1.124   2.936  20.789  0.00  0.00    +0.000 A 
ATOM     33  S   UNL     1       2.821   3.022  20.694  0.00  0.00    +0.000 S 
ENDBRANCH  28  29
ENDBRANCH   1  28
TORSDOF 7
ENDMDL
MODEL 4
REMARK VINA RESULT:      -7.2      2.303      4.537
REMARK  Name = 
REMARK  9 active torsions:
REMARK  status: ('A' for Active; 'I' for Inactive)
REMARK    1  A    between atoms: C_1  and  O_2
REMARK    2  A    between atoms: O_2  and  C_3
REMARK    3  A    between atoms: C_6  and  S_7
REMARK    4  A    between atoms: S_7  and  N_10
REMARK    5  A    between atoms: N_10  and  C_11
REMARK    6  A    between atoms: N_10  and  C_17
REMARK    7  A    between atoms: C_11  and  C_12
REMARK    8  A    between atoms: C_28  and  N_29
REMARK    9  A    between atoms: C_30  and  C_31
REMARK                            x       y       z     vdW  Elec       q    Type
REMARK                         _______ _______ _______ _____ _____    ______ ____
ROOT
ATOM      1  N   UNL     1      -0.174  10.925  19.122  0.00  0.00    +0.000 N 
ENDROOT
BRANCH   1   2
ATOM      2  C   UNL     1       0.589  12.106  18.786  0.00  0.00    +0.000 A 
ATOM      3  C   UNL     1       1.935  11.996  18.398  0.00  0.00    +0.000 A 
ATOM      4  C   UNL     1       2.736  13.125  18.254  0.00  0.00    +0.000 A 
ATOM      5  C   UNL     1       2.207  14.377  18.525  0.00  0.00    +0.000 A 
ATOM      6  C   UNL     1       0.877  14.490  18.924  0.00  0.00    +0.000 A 
ATOM      7  C   UNL     1       0.053  13.373  19.003  0.00  0.00    +0.000 A 
ATOM      8  O   UNL     1       0.337  15.685  19.312  0.00  0.00    +0.000 OA
ATOM      9  C   UNL     1       0.914  16.719  18.526  0.00  0.00    +0.000 C 
ATOM     10  C   UNL     1       2.438  16.708  18.574  0.00  0.00    +0.000 C 
ATOM     11  O   UNL     1       3.052  15.434  18.382  0.00  0.00    +0.000 OA
ENDBRANCH   1   2
BRANCH   1  12
ATOM     12  S   UNL     1       0.345  10.023  20.494  0.00  0.00    +0.000 S 
ATOM     13  O   UNL     1      -0.819   9.417  21.093  0.00  0.00    +0.000 OA
ATOM     14  O   UNL     1       1.180  10.909  21.303  0.00  0.00    +0.000 OA
BRANCH  12  18
ATOM     15  C   UNL     1       2.724   6.452  18.902  0.00  0.00    +0.000 A 
ATOM     16  C   UNL     1       2.558   7.623  18.166  0.00  0.00    +0.000 A 
ATOM     17  C   UNL     1       1.890   8.706  18.735  0.00  0.00    +0.000 A 
ATOM     18  C   UNL     1       1.434   8.659  20.060  0.00  0.00    +0.000 A 
ATOM     19  C   UNL     1       1.743   7.541  20.846  0.00  0.00    +0.000 A 
ATOM     20  C   UNL     1       2.363   6.419  20.263  0.00  0.00    +0.000 A 
BRANCH  20  21
ATOM     21  N   UNL     1       2.557   5.183  20.926  0.00  0.00    +0.000 N 
ATOM     22  C   UNL     1       1.745   4.075  20.921  0.00  0.00    +0.000 C 
ATOM     23  C   UNL     1       2.434   2.818  21.415  0.00  0.00    +0.000 C 
ATOM     24  O   UNL     1       0.569   4.043  20.576  0.00  0.00    +0.000 OA
ATOM     25  H   UNL     1       3.399   5.148  21.492  0.00  0.00    +0.000 HD
ENDBRANCH  20  21
BRANCH  15  27
ATOM     26  C   UNL     1       2.302   4.566  17.544  0.00  0.00    +0.000 C 
ATOM     27  O   UNL     1       3.227   5.285  18.362  0.00  0.00    +0.000 OA
ENDBRANCH  15  27
ENDBRANCH  12  18
ENDBRANCH   1  12
BRANCH   1  28
ATOM     28  C   UNL     1      -0.797  10.153  18.021  0.00  0.00    +0.000 C 
BRANCH  28  29
ATOM     29  C   UNL     1      -2.187  10.564  17.604  0.00  0.00    +0.000 A 
ATOM     30  C   UNL     1      -3.197  11.286  18.211  0.00  0.00    +0.000 A 
ATOM     31  C   UNL     1      -4.276  11.574  17.310  0.00  0.00    +0.000 A 
ATOM     32  C   UNL     1      -4.078  11.026  16.064  0.00  0.00    +0.000 A 
ATOM     33  S   UNL     1      -2.658  10.091  16.004  0.00  0.00    +0.000 S 
ENDBRANCH  28  29
ENDBRANCH   1  28
TORSDOF 7
ENDMDL
MODEL 5
REMARK VINA RESULT:      -7.1      1.151      2.308
REMARK  Name = 
REMARK  9 active torsions:
REMARK  status: ('A' for Active; 'I' for Inactive)
REMARK    1  A    between atoms: C_1  and  O_2
REMARK    2  A    between atoms: O_2  and  C_3
REMARK    3  A    between atoms: C_6  and  S_7
REMARK    4  A    between atoms: S_7  and  N_10
REMARK    5  A    between atoms: N_10  and  C_11
REMARK    6  A    between atoms: N_10  and  C_17
REMARK    7  A    between atoms: C_11  and  C_12
REMARK    8  A    between atoms: C_28  and  N_29
REMARK    9  A    between atoms: C_30  and  C_31
REMARK                            x       y       z     vdW  Elec       q    Type
REMARK                         _______ _______ _______ _____ _____    ______ ____
ROOT
ATOM      1  N   UNL     1       0.644  10.412  20.209  0.00  0.00    +0.000 N 
ENDROOT
BRANCH   1   2
ATOM      2  C   UNL     1      -0.531  10.443  19.368  0.00  0.00    +0.000 A 
ATOM      3  C   UNL     1      -0.509   9.849  18.094  0.00  0.00    +0.000 A 
ATOM      4  C   UNL     1      -1.558  10.029  17.199  0.00  0.00    +0.000 A 
ATOM      5  C   UNL     1      -2.631  10.831  17.556  0.00  0.00    +0.000 A 
ATOM      6  C   UNL     1      -2.651  11.434  18.812  0.00  0.00    +0.000 A 
ATOM      7  C   UNL     1      -1.638  11.202  19.736  0.00  0.00    +0.000 A 
ATOM      8  O   UNL     1      -3.625  12.322  19.173  0.00  0.00    +0.000 OA
ATOM      9  C   UNL     1      -4.852  11.913  18.583  0.00  0.00    +0.000 C 
ATOM     10  C   UNL     1      -4.741  11.729  17.073  0.00  0.00    +0.000 C 
ATOM     11  O   UNL     1      -3.612  10.979  16.624  0.00  0.00    +0.000 OA
ENDBRANCH   1   2
BRANCH   1  12
ATOM     12  S   UNL     1       0.870   9.011  21.184  0.00  0.00    +0.000 S 
ATOM     13  O   UNL     1      -0.425   8.589  21.661  0.00  0.00    +0.000 OA
ATOM     14  O   UNL     1       1.916   9.324  22.155  0.00  0.00    +0.000 OA
BRANCH  12  18
ATOM     15  C   UNL     1       2.896   5.346  19.336  0.00  0.00    +0.000 A 
ATOM     16  C   UNL     1       2.104   5.261  20.480  0.00  0.00    +0.000 A 
ATOM     17  C   UNL     1       1.449   6.398  20.951  0.00  0.00    +0.000 A 
ATOM     18  C   UNL     1       1.525   7.615  20.258  0.00  0.00    +0.000 A 
ATOM     19  C   UNL     1       2.191   7.655  19.026  0.00  0.00    +0.000 A 
ATOM     20  C   UNL     1       2.905   6.529  18.574  0.00  0.00    +0.000 A 
BRANCH  20  21
ATOM     21  N   UNL     1       3.748   6.526  17.436  0.00  0.00    +0.000 N 
ATOM     22  C   UNL     1       5.116   6.415  17.388  0.00  0.00    +0.000 C 
ATOM     23  C   UNL     1       5.647   6.066  16.011  0.00  0.00    +0.000 C 
ATOM     24  O   UNL     1       5.888   6.582  18.326  0.00  0.00    +0.000 OA
ATOM     25  H   UNL     1       3.254   6.650  16.558  0.00  0.00    +0.000 HD
ENDBRANCH  20  21
BRANCH  15  27
ATOM     26  C   UNL     1       3.576   3.106  19.649  0.00  0.00    +0.000 C 
ATOM     27  O   UNL     1       3.702   4.314  18.898  0.00  0.00    +0.000 OA
ENDBRANCH  15  27
ENDBRANCH  12  18
ENDBRANCH   1  12
BRANCH   1  28
ATOM     28  C   UNL     1       1.147  11.691  20.764  0.00  0.00    +0.000 C 
BRANCH  28  29
ATOM     29  C   UNL     1       1.816  12.634  19.795  0.00  0.00    +0.000 A 
ATOM     30  C   UNL     1       2.271  12.514  18.496  0.00  0.00    +0.000 A 
ATOM     31  C   UNL     1       2.663  13.776  17.938  0.00  0.00    +0.000 A 
ATOM     32  C   UNL     1       2.540  14.808  18.839  0.00  0.00    +0.000 A 
ATOM     33  S   UNL     1       2.052  14.253  20.371  0.00  0.00    +0.000 S 
ENDBRANCH  28  29
ENDBRANCH   1  28
TORSDOF 7
ENDMDL
MODEL 6
REMARK VINA RESULT:      -7.0      1.118      1.225
REMARK  Name = 
REMARK  9 active torsions:
REMARK  status: ('A' for Active; 'I' for Inactive)
REMARK    1  A    between atoms: C_1  and  O_2
REMARK    2  A    between atoms: O_2  and  C_3
REMARK    3  A    between atoms: C_6  and  S_7
REMARK    4  A    between atoms: S_7  and  N_10
REMARK    5  A    between atoms: N_10  and  C_11
REMARK    6  A    between atoms: N_10  and  C_17
REMARK    7  A    between atoms: C_11  and  C_12
REMARK    8  A    between atoms: C_28  and  N_29
REMARK    9  A    between atoms: C_30  and  C_31
REMARK                            x       y       z     vdW  Elec       q    Type
REMARK                         _______ _______ _______ _____ _____    ______ ____
ROOT
ATOM      1  N   UNL     1       0.402  10.747  20.137  0.00  0.00    +0.000 N 
ENDROOT
BRANCH   1   2
ATOM      2  C   UNL     1      -0.806  10.777  19.344  0.00  0.00    +0.000 A 
ATOM      3  C   UNL     1      -0.800  10.297  18.023  0.00  0.00    +0.000 A 
ATOM      4  C   UNL     1      -1.893  10.487  17.184  0.00  0.00    +0.000 A 
ATOM      5  C   UNL     1      -2.996  11.186  17.647  0.00  0.00    +0.000 A 
ATOM      6  C   UNL     1      -3.001  11.677  18.952  0.00  0.00    +0.000 A 
ATOM      7  C   UNL     1      -1.941  11.430  19.816  0.00  0.00    +0.000 A 
ATOM      8  O   UNL     1      -4.011  12.469  19.423  0.00  0.00    +0.000 OA
ATOM      9  C   UNL     1      -5.234  12.037  18.842  0.00  0.00    +0.000 C 
ATOM     10  C   UNL     1      -5.173  11.990  17.319  0.00  0.00    +0.000 C 
ATOM     11  O   UNL     1      -4.020  11.353  16.767  0.00  0.00    +0.000 OA
ENDBRANCH   1   2
BRANCH   1  12
ATOM     12  S   UNL     1       0.736   9.292  20.996  0.00  0.00    +0.000 S 
ATOM     13  O   UNL     1      -0.514   8.605  21.208  0.00  0.00    +0.000 OA
ATOM     14  O   UNL     1       1.554   9.652  22.153  0.00  0.00    +0.000 OA
BRANCH  12  18
ATOM     15  C   UNL     1       2.958   6.495  18.135  0.00  0.00    +0.000 A 
ATOM     16  C   UNL     1       2.838   7.862  17.895  0.00  0.00    +0.000 A 
ATOM     17  C   UNL     1       2.218   8.676  18.843  0.00  0.00    +0.000 A 
ATOM     18  C   UNL     1       1.765   8.151  20.061  0.00  0.00    +0.000 A 
ATOM     19  C   UNL     1       2.030   6.809  20.364  0.00  0.00    +0.000 A 
ATOM     20  C   UNL     1       2.600   5.966  19.390  0.00  0.00    +0.000 A 
BRANCH  20  21
ATOM     21  N   UNL     1       2.745   4.566  19.536  0.00  0.00    +0.000 N 
ATOM     22  C   UNL     1       3.890   3.849  19.788  0.00  0.00    +0.000 C 
ATOM     23  C   UNL     1       3.624   2.432  20.259  0.00  0.00    +0.000 C 
ATOM     24  O   UNL     1       5.039   4.252  19.653  0.00  0.00    +0.000 OA
ATOM     25  H   UNL     1       1.883   4.047  19.408  0.00  0.00    +0.000 HD
ENDBRANCH  20  21
BRANCH  15  27
ATOM     26  C   UNL     1       4.742   5.841  16.733  0.00  0.00    +0.000 C 
ATOM     27  O   UNL     1       3.409   5.598  17.187  0.00  0.00    +0.000 OA
ENDBRANCH  15  27
ENDBRANCH  12  18
ENDBRANCH   1  12
BRANCH   1  28
ATOM     28  C   UNL     1       0.861  12.007  20.768  0.00  0.00    +0.000 C 
BRANCH  28  29
ATOM     29  C   UNL     1       1.165  13.158  19.841  0.00  0.00    +0.000 A 
ATOM     30  C   UNL     1       0.737  14.471  19.768  0.00  0.00    +0.000 A 
ATOM     31  C   UNL     1       1.479  15.231  18.804  0.00  0.00    +0.000 A 
ATOM     32  C   UNL     1       2.415  14.469  18.143  0.00  0.00    +0.000 A 
ATOM     33  S   UNL     1       2.335  12.833  18.604  0.00  0.00    +0.000 S 
ENDBRANCH  28  29
ENDBRANCH   1  28
TORSDOF 7
ENDMDL
MODEL 7
REMARK VINA RESULT:      -6.9      2.248      4.591
REMARK  Name = 
REMARK  9 active torsions:
REMARK  status: ('A' for Active; 'I' for Inactive)
REMARK    1  A    between atoms: C_1  and  O_2
REMARK    2  A    between atoms: O_2  and  C_3
REMARK    3  A    between atoms: C_6  and  S_7
REMARK    4  A    between atoms: S_7  and  N_10
REMARK    5  A    between atoms: N_10  and  C_11
REMARK    6  A    between atoms: N_10  and  C_17
REMARK    7  A    between atoms: C_11  and  C_12
REMARK    8  A    between atoms: C_28  and  N_29
REMARK    9  A    between atoms: C_30  and  C_31
REMARK                            x       y       z     vdW  Elec       q    Type
REMARK                         _______ _______ _______ _____ _____    ______ ____
ROOT
ATOM      1  N   UNL     1      -0.430  11.092  19.340  0.00  0.00    +0.000 N 
ENDROOT
BRANCH   1   2
ATOM      2  C   UNL     1       0.106  12.434  19.309  0.00  0.00    +0.000 A 
ATOM      3  C   UNL     1      -0.689  13.526  19.695  0.00  0.00    +0.000 A 
ATOM      4  C   UNL     1      -0.259  14.834  19.495  0.00  0.00    +0.000 A 
ATOM      5  C   UNL     1       0.961  15.066  18.880  0.00  0.00    +0.000 A 
ATOM      6  C   UNL     1       1.746  13.986  18.482  0.00  0.00    +0.000 A 
ATOM      7  C   UNL     1       1.353  12.678  18.740  0.00  0.00    +0.000 A 
ATOM      8  O   UNL     1       2.902  14.155  17.771  0.00  0.00    +0.000 OA
ATOM      9  C   UNL     1       3.537  15.346  18.215  0.00  0.00    +0.000 C 
ATOM     10  C   UNL     1       2.614  16.559  18.153  0.00  0.00    +0.000 C 
ATOM     11  O   UNL     1       1.308  16.369  18.698  0.00  0.00    +0.000 OA
ENDBRANCH   1   2
BRANCH   1  12
ATOM     12  S   UNL     1       0.173  10.038  20.561  0.00  0.00    +0.000 S 
ATOM     13  O   UNL     1      -0.935   9.261  21.062  0.00  0.00    +0.000 OA
ATOM     14  O   UNL     1       0.947  10.854  21.493  0.00  0.00    +0.000 OA
BRANCH  12  18
ATOM     15  C   UNL     1       2.782   6.916  18.464  0.00  0.00    +0.000 A 
ATOM     16  C   UNL     1       2.477   8.144  17.880  0.00  0.00    +0.000 A 
ATOM     17  C   UNL     1       1.743   9.086  18.600  0.00  0.00    +0.000 A 
ATOM     18  C   UNL     1       1.357   8.842  19.926  0.00  0.00    +0.000 A 
ATOM     19  C   UNL     1       1.801   7.674  20.559  0.00  0.00    +0.000 A 
ATOM     20  C   UNL     1       2.490   6.691  19.823  0.00  0.00    +0.000 A 
BRANCH  20  21
ATOM     21  N   UNL     1       2.826   5.410  20.324  0.00  0.00    +0.000 N 
ATOM     22  C   UNL     1       2.006   4.322  20.501  0.00  0.00    +0.000 C 
ATOM     23  C   UNL     1       2.762   3.021  20.692  0.00  0.00    +0.000 C 
ATOM     24  O   UNL     1       0.781   4.337  20.526  0.00  0.00    +0.000 OA
ATOM     25  H   UNL     1       3.796   5.320  20.608  0.00  0.00    +0.000 HD
ENDBRANCH  20  21
BRANCH  15  27
ATOM     26  C   UNL     1       4.730   6.082  17.421  0.00  0.00    +0.000 C 
ATOM     27  O   UNL     1       3.361   5.872  17.769  0.00  0.00    +0.000 OA
ENDBRANCH  15  27
ENDBRANCH  12  18
ENDBRANCH   1  12
BRANCH   1  28
ATOM     28  C   UNL     1      -0.825  10.462  18.058  0.00  0.00    +0.000 C 
BRANCH  28  29
ATOM     29  C   UNL     1      -2.141  10.897  17.464  0.00  0.00    +0.000 A 
ATOM     30  C   UNL     1      -2.634  10.979  16.175  0.00  0.00    +0.000 A 
ATOM     31  C   UNL     1      -4.037  11.276  16.146  0.00  0.00    +0.000 A 
ATOM     32  C   UNL     1      -4.560  11.456  17.406  0.00  0.00    +0.000 A 
ATOM     33  S   UNL     1      -3.358  11.369  18.607  0.00  0.00    +0.000 S 
ENDBRANCH  28  29
ENDBRANCH   1  28
TORSDOF 7
ENDMDL
MODEL 8
REMARK VINA RESULT:      -6.9      2.193      4.607
REMARK  Name = 
REMARK  9 active torsions:
REMARK  status: ('A' for Active; 'I' for Inactive)
REMARK    1  A    between atoms: C_1  and  O_2
REMARK    2  A    between atoms: O_2  and  C_3
REMARK    3  A    between atoms: C_6  and  S_7
REMARK    4  A    between atoms: S_7  and  N_10
REMARK    5  A    between atoms: N_10  and  C_11
REMARK    6  A    between atoms: N_10  and  C_17
REMARK    7  A    between atoms: C_11  and  C_12
REMARK    8  A    between atoms: C_28  and  N_29
REMARK    9  A    between atoms: C_30  and  C_31
REMARK                            x       y       z     vdW  Elec       q    Type
REMARK                         _______ _______ _______ _____ _____    ______ ____
ROOT
ATOM      1  N   UNL     1      -0.099  11.234  19.159  0.00  0.00    +0.000 N 
ENDROOT
BRANCH   1   2
ATOM      2  C   UNL     1       0.735  12.379  18.867  0.00  0.00    +0.000 A 
ATOM      3  C   UNL     1       2.016  12.203  18.316  0.00  0.00    +0.000 A 
ATOM      4  C   UNL     1       2.902  13.269  18.203  0.00  0.00    +0.000 A 
ATOM      5  C   UNL     1       2.528  14.520  18.666  0.00  0.00    +0.000 A 
ATOM      6  C   UNL     1       1.264  14.697  19.227  0.00  0.00    +0.000 A 
ATOM      7  C   UNL     1       0.350  13.651  19.279  0.00  0.00    +0.000 A 
ATOM      8  O   UNL     1       0.886  15.878  19.801  0.00  0.00    +0.000 OA
ATOM      9  C   UNL     1       1.473  16.946  19.070  0.00  0.00    +0.000 C 
ATOM     10  C   UNL     1       2.986  16.802  18.940  0.00  0.00    +0.000 C 
ATOM     11  O   UNL     1       3.451  15.512  18.542  0.00  0.00    +0.000 OA
ENDBRANCH   1   2
BRANCH   1  12
ATOM     12  S   UNL     1       0.405  10.209  20.447  0.00  0.00    +0.000 S 
ATOM     13  O   UNL     1      -0.773   9.602  21.018  0.00  0.00    +0.000 OA
ATOM     14  O   UNL     1       1.286  10.997  21.307  0.00  0.00    +0.000 OA
BRANCH  12  18
ATOM     15  C   UNL     1       2.580   6.638  18.585  0.00  0.00    +0.000 A 
ATOM     16  C   UNL     1       2.343   7.816  17.879  0.00  0.00    +0.000 A 
ATOM     17  C   UNL     1       1.746   8.898  18.524  0.00  0.00    +0.000 A 
ATOM     18  C   UNL     1       1.433   8.842  19.890  0.00  0.00    +0.000 A 
ATOM     19  C   UNL     1       1.817   7.717  20.630  0.00  0.00    +0.000 A 
ATOM     20  C   UNL     1       2.365   6.596  19.976  0.00  0.00    +0.000 A 
BRANCH  20  21
ATOM     21  N   UNL     1       2.622   5.355  20.605  0.00  0.00    +0.000 N 
ATOM     22  C   UNL     1       1.806   4.252  20.681  0.00  0.00    +0.000 C 
ATOM     23  C   UNL     1       2.536   2.986  21.088  0.00  0.00    +0.000 C 
ATOM     24  O   UNL     1       0.600   4.230  20.467  0.00  0.00    +0.000 OA
ATOM     25  H   UNL     1       3.520   5.309  21.076  0.00  0.00    +0.000 HD
ENDBRANCH  20  21
BRANCH  15  27
ATOM     26  C   UNL     1       4.355   5.527  17.493  0.00  0.00    +0.000 C 
ATOM     27  O   UNL     1       3.015   5.473  17.986  0.00  0.00    +0.000 OA
ENDBRANCH  15  27
ENDBRANCH  12  18
ENDBRANCH   1  12
BRANCH   1  28
ATOM     28  C   UNL     1      -0.817  10.582  18.038  0.00  0.00    +0.000 C 
BRANCH  28  29
ATOM     29  C   UNL     1      -2.294  10.867  17.921  0.00  0.00    +0.000 A 
ATOM     30  C   UNL     1      -3.303  10.386  17.108  0.00  0.00    +0.000 A 
ATOM     31  C   UNL     1      -4.599  10.839  17.526  0.00  0.00    +0.000 A 
ATOM     32  C   UNL     1      -4.535  11.683  18.610  0.00  0.00    +0.000 A 
ATOM     33  S   UNL     1      -2.927  12.009  19.061  0.00  0.00    +0.000 S 
ENDBRANCH  28  29
ENDBRANCH   1  28
TORSDOF 7
ENDMDL
MODEL 9
REMARK VINA RESULT:      -6.9      2.274      3.039
REMARK  Name = 
REMARK  9 active torsions:
REMARK  status: ('A' for Active; 'I' for Inactive)
REMARK    1  A    between atoms: C_1  and  O_2
REMARK    2  A    between atoms: O_2  and  C_3
REMARK    3  A    between atoms: C_6  and  S_7
REMARK    4  A    between atoms: S_7  and  N_10
REMARK    5  A    between atoms: N_10  and  C_11
REMARK    6  A    between atoms: N_10  and  C_17
REMARK    7  A    between atoms: C_11  and  C_12
REMARK    8  A    between atoms: C_28  and  N_29
REMARK    9  A    between atoms: C_30  and  C_31
REMARK                            x       y       z     vdW  Elec       q    Type
REMARK                         _______ _______ _______ _____ _____    ______ ____
ROOT
ATOM      1  N   UNL     1       0.104  11.708  20.137  0.00  0.00    +0.000 N 
ENDROOT
BRANCH   1   2
ATOM      2  C   UNL     1      -0.872  11.989  21.165  0.00  0.00    +0.000 A 
ATOM      3  C   UNL     1      -0.771  11.378  22.427  0.00  0.00    +0.000 A 
ATOM      4  C   UNL     1      -1.796  11.486  23.362  0.00  0.00    +0.000 A 
ATOM      5  C   UNL     1      -2.948  12.183  23.035  0.00  0.00    +0.000 A 
ATOM      6  C   UNL     1      -3.059  12.778  21.780  0.00  0.00    +0.000 A 
ATOM      7  C   UNL     1      -2.011  12.732  20.868  0.00  0.00    +0.000 A 
ATOM      8  O   UNL     1      -4.214  13.379  21.364  0.00  0.00    +0.000 OA
ATOM      9  C   UNL     1      -4.828  14.004  22.483  0.00  0.00    +0.000 C 
ATOM     10  C   UNL     1      -5.041  13.042  23.647  0.00  0.00    +0.000 C 
ATOM     11  O   UNL     1      -3.917  12.231  23.989  0.00  0.00    +0.000 OA
ENDBRANCH   1   2
BRANCH   1  12
ATOM     12  S   UNL     1      -0.188  10.339  19.134  0.00  0.00    +0.000 S 
ATOM     13  O   UNL     1      -0.208  10.790  17.764  0.00  0.00    +0.000 OA
ATOM     14  O   UNL     1      -1.360   9.652  19.672  0.00  0.00    +0.000 OA
BRANCH  12  18
ATOM     15  C   UNL     1       2.938   7.013  18.807  0.00  0.00    +0.000 A 
ATOM     16  C   UNL     1       2.862   8.055  17.886  0.00  0.00    +0.000 A 
ATOM     17  C   UNL     1       1.939   9.082  18.082  0.00  0.00    +0.000 A 
ATOM     18  C   UNL     1       1.126   9.115  19.224  0.00  0.00    +0.000 A 
ATOM     19  C   UNL     1       1.318   8.152  20.223  0.00  0.00    +0.000 A 
ATOM     20  C   UNL     1       2.204   7.078  20.006  0.00  0.00    +0.000 A 
BRANCH  20  21
ATOM     21  N   UNL     1       2.336   5.969  20.876  0.00  0.00    +0.000 N 
ATOM     22  C   UNL     1       1.673   4.767  20.832  0.00  0.00    +0.000 C 
ATOM     23  C   UNL     1       2.327   3.684  21.668  0.00  0.00    +0.000 C 
ATOM     24  O   UNL     1       0.644   4.533  20.209  0.00  0.00    +0.000 OA
ATOM     25  H   UNL     1       2.992   6.117  21.636  0.00  0.00    +0.000 HD
ENDBRANCH  20  21
BRANCH  15  27
ATOM     26  C   UNL     1       3.256   5.045  17.540  0.00  0.00    +0.000 C 
ATOM     27  O   UNL     1       3.705   5.882  18.607  0.00  0.00    +0.000 OA
ENDBRANCH  15  27
ENDBRANCH  12  18
ENDBRANCH   1  12
BRANCH   1  28
ATOM     28  C   UNL     1       1.524  12.039  20.406  0.00  0.00    +0.000 C 
BRANCH  28  29
ATOM     29  C   UNL     1       2.113  13.186  19.623  0.00  0.00    +0.000 A 
ATOM     30  C   UNL     1       2.747  13.289  18.399  0.00  0.00    +0.000 A 
ATOM     31  C   UNL     1       2.951  14.653  18.005  0.00  0.00    +0.000 A 
ATOM     32  C   UNL     1       2.510  15.544  18.956  0.00  0.00    +0.000 A 
ATOM     33  S   UNL     1       1.948  14.751  20.352  0.00  0.00    +0.000 S 
ENDBRANCH  28  29
ENDBRANCH   1  28
TORSDOF 7
ENDMDL
