MODEL 1
REMARK VINA RESULT:      -9.4      0.000      0.000
REMARK  Name = 
REMARK  6 active torsions:
REMARK  status: ('A' for Active; 'I' for Inactive)
REMARK    1  A    between atoms: C_2  and  C_3
REMARK    2  A    between atoms: C_3  and  N_4
REMARK    3  A    between atoms: N_4  and  C_19
REMARK    4  A    between atoms: C_5  and  C_7
REMARK    5  A    between atoms: C_10  and  C_11
REMARK    6  A    between atoms: N_25  and  C_26
REMARK                            x       y       z     vdW  Elec       q    Type
REMARK                         _______ _______ _______ _____ _____    ______ ____
ROOT
ATOM      1  N   UNL     1       3.846   4.752  18.319  0.00  0.00    +0.000 N 
ATOM      2  C   UNL     1       4.076   6.066  18.801  0.00  0.00    +0.000 C 
ATOM      3  O   UNL     1       5.198   6.413  19.181  0.00  0.00    +0.000 OA
ENDROOT
BRANCH   2   4
ATOM      4  C   UNL     1       3.002   7.112  18.899  0.00  0.00    +0.000 A 
ATOM      5  C   UNL     1       2.716   7.866  17.753  0.00  0.00    +0.000 A 
ATOM      6  C   UNL     1       1.752   8.890  17.778  0.00  0.00    +0.000 A 
ATOM      7  C   UNL     1       1.051   9.205  18.953  0.00  0.00    +0.000 A 
ATOM      8  C   UNL     1       1.335   8.427  20.088  0.00  0.00    +0.000 A 
ATOM      9  C   UNL     1       2.245   7.364  20.046  0.00  0.00    +0.000 A 
BRANCH   7  10
ATOM     10  C   UNL     1       0.026  10.270  19.019  0.00  0.00    +0.000 A 
ATOM     11  C   UNL     1      -0.955  10.439  18.055  0.00  0.00    +0.000 A 
ATOM     12  C   UNL     1      -1.923  11.428  18.219  0.00  0.00    +0.000 A 
ATOM     13  C   UNL     1      -1.888  12.233  19.351  0.00  0.00    +0.000 A 
ATOM     14  C   UNL     1      -0.881  12.011  20.272  0.00  0.00    +0.000 A 
ATOM     15  N   UNL     1       0.068  11.054  20.134  0.00  0.00    +0.000 NA
ENDBRANCH   7  10
ENDBRANCH   2   4
BRANCH   1  16
ATOM     16  C   UNL     1       2.515   4.210  17.912  0.00  0.00    +0.000 C 
ATOM     17  C   UNL     1       2.440   2.769  17.360  0.00  0.00    +0.000 C 
ATOM     18  C   UNL     1       2.412   1.676  18.421  0.00  0.00    +0.000 C 
ATOM     19  C   UNL     1       1.389   1.944  19.521  0.00  0.00    +0.000 C 
ATOM     20  C   UNL     1       1.457   3.360  20.074  0.00  0.00    +0.000 C 
ATOM     21  C   UNL     1       1.404   4.395  18.966  0.00  0.00    +0.000 C 
ENDBRANCH   1  16
BRANCH   1  22
ATOM     22  C   UNL     1       5.067   3.916  18.205  0.00  0.00    +0.000 C 
BRANCH  22  24
ATOM     23  O   UNL     1       7.206   4.314  17.068  0.00  0.00    +0.000 OA
ATOM     24  C   UNL     1       5.987   4.183  16.992  0.00  0.00    +0.000 C 
ATOM     25  N   UNL     1       5.285   4.230  15.781  0.00  0.00    +0.000 N 
ATOM     26  H   UNL     1       4.355   4.629  15.827  0.00  0.00    +0.000 HD
BRANCH  25  27
ATOM     27  C   UNL     1       5.940   4.243  14.531  0.00  0.00    +0.000 A 
ATOM     28  C   UNL     1       7.020   5.095  14.271  0.00  0.00    +0.000 A 
ATOM     29  C   UNL     1       7.643   5.065  13.022  0.00  0.00    +0.000 A 
ATOM     30  F   UNL     1       8.697   5.859  12.790  0.00  0.00    +0.000 F 
ATOM     31  C   UNL     1       7.195   4.223  12.014  0.00  0.00    +0.000 A 
ATOM     32  C   UNL     1       6.126   3.381  12.285  0.00  0.00    +0.000 A 
ATOM     33  F   UNL     1       5.663   2.577  11.319  0.00  0.00    +0.000 F 
ATOM     34  C   UNL     1       5.517   3.357  13.541  0.00  0.00    +0.000 A 
ENDBRANCH  25  27
ENDBRANCH  22  24
ENDBRANCH   1  22
TORSDOF 6
ENDMDL
MODEL 2
REMARK VINA RESULT:      -9.3      0.132      1.433
REMARK  Name = 
REMARK  6 active torsions:
REMARK  status: ('A' for Active; 'I' for Inactive)
REMARK    1  A    between atoms: C_2  and  C_3
REMARK    2  A    between atoms: C_3  and  N_4
REMARK    3  A    between atoms: N_4  and  C_19
REMARK    4  A    between atoms: C_5  and  C_7
REMARK    5  A    between atoms: C_10  and  C_11
REMARK    6  A    between atoms: N_25  and  C_26
REMARK                            x       y       z     vdW  Elec       q    Type
REMARK                         _______ _______ _______ _____ _____    ______ ____
ROOT
ATOM      1  N   UNL     1       3.864   4.754  18.278  0.00  0.00    +0.000 N 
ATOM      2  C   UNL     1       4.098   6.067  18.761  0.00  0.00    +0.000 C 
ATOM      3  O   UNL     1       5.219   6.406  19.152  0.00  0.00    +0.000 OA
ENDROOT
BRANCH   2   4
ATOM      4  C   UNL     1       3.031   7.120  18.848  0.00  0.00    +0.000 A 
ATOM      5  C   UNL     1       2.765   7.880  17.700  0.00  0.00    +0.000 A 
ATOM      6  C   UNL     1       1.808   8.911  17.716  0.00  0.00    +0.000 A 
ATOM      7  C   UNL     1       1.094   9.228  18.883  0.00  0.00    +0.000 A 
ATOM      8  C   UNL     1       1.358   8.445  20.019  0.00  0.00    +0.000 A 
ATOM      9  C   UNL     1       2.261   7.374  19.986  0.00  0.00    +0.000 A 
BRANCH   7  10
ATOM     10  C   UNL     1       0.076  10.300  18.938  0.00  0.00    +0.000 A 
ATOM     11  C   UNL     1      -1.032  10.338  18.108  0.00  0.00    +0.000 A 
ATOM     12  C   UNL     1      -1.979  11.348  18.263  0.00  0.00    +0.000 A 
ATOM     13  C   UNL     1      -1.794  12.308  19.251  0.00  0.00    +0.000 A 
ATOM     14  C   UNL     1      -0.665  12.212  20.043  0.00  0.00    +0.000 A 
ATOM     15  N   UNL     1       0.266  11.237  19.911  0.00  0.00    +0.000 NA
ENDBRANCH   7  10
ENDBRANCH   2   4
BRANCH   1  16
ATOM     16  C   UNL     1       2.533   4.221  17.858  0.00  0.00    +0.000 C 
ATOM     17  C   UNL     1       2.435   2.747  17.406  0.00  0.00    +0.000 C 
ATOM     18  C   UNL     1       2.335   1.734  18.540  0.00  0.00    +0.000 C 
ATOM     19  C   UNL     1       1.281   2.108  19.577  0.00  0.00    +0.000 C 
ATOM     20  C   UNL     1       1.370   3.558  20.032  0.00  0.00    +0.000 C 
ATOM     21  C   UNL     1       1.390   4.512  18.852  0.00  0.00    +0.000 C 
ENDBRANCH   1  16
BRANCH   1  22
ATOM     22  C   UNL     1       5.080   3.910  18.175  0.00  0.00    +0.000 C 
BRANCH  22  24
ATOM     23  O   UNL     1       7.216   4.234  17.009  0.00  0.00    +0.000 OA
ATOM     24  C   UNL     1       5.992   4.142  16.950  0.00  0.00    +0.000 C 
ATOM     25  N   UNL     1       5.276   4.205  15.748  0.00  0.00    +0.000 N 
ATOM     26  H   UNL     1       4.360   4.634  15.803  0.00  0.00    +0.000 HD
BRANCH  25  27
ATOM     27  C   UNL     1       5.915   4.191  14.489  0.00  0.00    +0.000 A 
ATOM     28  C   UNL     1       5.515   3.325  13.465  0.00  0.00    +0.000 A 
ATOM     29  C   UNL     1       6.172   3.355  12.234  0.00  0.00    +0.000 A 
ATOM     30  F   UNL     1       5.763   2.546  11.247  0.00  0.00    +0.000 F 
ATOM     31  C   UNL     1       7.240   4.212  12.008  0.00  0.00    +0.000 A 
ATOM     32  C   UNL     1       7.624   5.070  13.030  0.00  0.00    +0.000 A 
ATOM     33  F   UNL     1       8.666   5.888  12.840  0.00  0.00    +0.000 F 
ATOM     34  C   UNL     1       6.953   5.092  14.253  0.00  0.00    +0.000 A 
ENDBRANCH  25  27
ENDBRANCH  22  24
ENDBRANCH   1  22
TORSDOF 6
ENDMDL
MODEL 3
REMARK VINA RESULT:      -9.3      1.175      2.200
REMARK  Name = 
REMARK  6 active torsions:
REMARK  status: ('A' for Active; 'I' for Inactive)
REMARK    1  A    between atoms: C_2  and  C_3
REMARK    2  A    between atoms: C_3  and  N_4
REMARK    3  A    between atoms: N_4  and  C_19
REMARK    4  A    between atoms: C_5  and  C_7
REMARK    5  A    between atoms: C_10  and  C_11
REMARK    6  A    between atoms: N_25  and  C_26
REMARK                            x       y       z     vdW  Elec       q    Type
REMARK                         _______ _______ _______ _____ _____    ______ ____
ROOT
ATOM      1  N   UNL     1       3.086   5.063  18.719  0.00  0.00    +0.000 N 
ATOM      2  C   UNL     1       3.446   6.425  18.558  0.00  0.00    +0.000 C 
ATOM      3  O   UNL     1       4.595   6.742  18.237  0.00  0.00    +0.000 OA
ENDROOT
BRANCH   2   4
ATOM      4  C   UNL     1       2.491   7.565  18.771  0.00  0.00    +0.000 A 
ATOM      5  C   UNL     1       2.040   7.805  20.076  0.00  0.00    +0.000 A 
ATOM      6  C   UNL     1       1.114   8.829  20.348  0.00  0.00    +0.000 A 
ATOM      7  C   UNL     1       0.597   9.638  19.324  0.00  0.00    +0.000 A 
ATOM      8  C   UNL     1       1.074   9.398  18.025  0.00  0.00    +0.000 A 
ATOM      9  C   UNL     1       2.046   8.424  17.763  0.00  0.00    +0.000 A 
BRANCH   7  10
ATOM     10  C   UNL     1      -0.373  10.728  19.571  0.00  0.00    +0.000 A 
ATOM     11  C   UNL     1      -0.309  11.565  20.673  0.00  0.00    +0.000 A 
ATOM     12  C   UNL     1      -1.224  12.609  20.803  0.00  0.00    +0.000 A 
ATOM     13  C   UNL     1      -2.190  12.793  19.822  0.00  0.00    +0.000 A 
ATOM     14  C   UNL     1      -2.198  11.920  18.750  0.00  0.00    +0.000 A 
ATOM     15  N   UNL     1      -1.317  10.902  18.602  0.00  0.00    +0.000 NA
ENDBRANCH   7  10
ENDBRANCH   2   4
BRANCH   1  16
ATOM     16  C   UNL     1       1.750   4.579  19.181  0.00  0.00    +0.000 C 
ATOM     17  C   UNL     1       1.288   3.167  18.759  0.00  0.00    +0.000 C 
ATOM     18  C   UNL     1       1.845   2.030  19.606  0.00  0.00    +0.000 C 
ATOM     19  C   UNL     1       1.696   2.280  21.104  0.00  0.00    +0.000 C 
ATOM     20  C   UNL     1       2.151   3.668  21.531  0.00  0.00    +0.000 C 
ATOM     21  C   UNL     1       1.499   4.751  20.693  0.00  0.00    +0.000 C 
ENDBRANCH   1  16
BRANCH   1  22
ATOM     22  C   UNL     1       4.152   4.098  18.353  0.00  0.00    +0.000 C 
BRANCH  22  24
ATOM     23  O   UNL     1       3.523   3.528  16.050  0.00  0.00    +0.000 OA
ATOM     24  C   UNL     1       4.397   3.862  16.846  0.00  0.00    +0.000 C 
ATOM     25  N   UNL     1       5.725   4.103  16.470  0.00  0.00    +0.000 N 
ATOM     26  H   UNL     1       6.428   3.856  17.156  0.00  0.00    +0.000 HD
BRANCH  25  27
ATOM     27  C   UNL     1       6.126   4.163  15.117  0.00  0.00    +0.000 A 
ATOM     28  C   UNL     1       5.454   3.454  14.115  0.00  0.00    +0.000 A 
ATOM     29  C   UNL     1       5.881   3.553  12.790  0.00  0.00    +0.000 A 
ATOM     30  F   UNL     1       5.214   2.898  11.830  0.00  0.00    +0.000 F 
ATOM     31  C   UNL     1       6.983   4.322  12.444  0.00  0.00    +0.000 A 
ATOM     32  C   UNL     1       7.638   5.024  13.447  0.00  0.00    +0.000 A 
ATOM     33  F   UNL     1       8.717   5.754  13.138  0.00  0.00    +0.000 F 
ATOM     34  C   UNL     1       7.201   4.980  14.772  0.00  0.00    +0.000 A 
ENDBRANCH  25  27
ENDBRANCH  22  24
ENDBRANCH   1  22
TORSDOF 6
ENDMDL
MODEL 4
REMARK VINA RESULT:      -9.2      1.123      1.236
REMARK  Name = 
REMARK  6 active torsions:
REMARK  status: ('A' for Active; 'I' for Inactive)
REMARK    1  A    between atoms: C_2  and  C_3
REMARK    2  A    between atoms: C_3  and  N_4
REMARK    3  A    between atoms: N_4  and  C_19
REMARK    4  A    between atoms: C_5  and  C_7
REMARK    5  A    between atoms: C_10  and  C_11
REMARK    6  A    between atoms: N_25  and  C_26
REMARK                            x       y       z     vdW  Elec       q    Type
REMARK                         _______ _______ _______ _____ _____    ______ ____
ROOT
ATOM      1  N   UNL     1       3.101   5.022  18.751  0.00  0.00    +0.000 N 
ATOM      2  C   UNL     1       3.450   6.388  18.602  0.00  0.00    +0.000 C 
ATOM      3  O   UNL     1       4.592   6.716  18.268  0.00  0.00    +0.000 OA
ENDROOT
BRANCH   2   4
ATOM      4  C   UNL     1       2.492   7.519  18.845  0.00  0.00    +0.000 A 
ATOM      5  C   UNL     1       2.104   8.296  17.744  0.00  0.00    +0.000 A 
ATOM      6  C   UNL     1       1.241   9.396  17.898  0.00  0.00    +0.000 A 
ATOM      7  C   UNL     1       0.748   9.767  19.159  0.00  0.00    +0.000 A 
ATOM      8  C   UNL     1       1.130   8.967  20.249  0.00  0.00    +0.000 A 
ATOM      9  C   UNL     1       1.934   7.832  20.087  0.00  0.00    +0.000 A 
BRANCH   7  10
ATOM     10  C   UNL     1      -0.166  10.913  19.361  0.00  0.00    +0.000 A 
ATOM     11  C   UNL     1      -1.492  10.905  18.964  0.00  0.00    +0.000 A 
ATOM     12  C   UNL     1      -2.306  12.001  19.246  0.00  0.00    +0.000 A 
ATOM     13  C   UNL     1      -1.770  13.090  19.922  0.00  0.00    +0.000 A 
ATOM     14  C   UNL     1      -0.438  13.033  20.288  0.00  0.00    +0.000 A 
ATOM     15  N   UNL     1       0.370  11.977  20.027  0.00  0.00    +0.000 NA
ENDBRANCH   7  10
ENDBRANCH   2   4
BRANCH   1  16
ATOM     16  C   UNL     1       1.775   4.524  19.227  0.00  0.00    +0.000 C 
ATOM     17  C   UNL     1       1.320   3.110  18.803  0.00  0.00    +0.000 C 
ATOM     18  C   UNL     1       1.898   1.973  19.637  0.00  0.00    +0.000 C 
ATOM     19  C   UNL     1       1.765   2.214  21.138  0.00  0.00    +0.000 C 
ATOM     20  C   UNL     1       2.214   3.603  21.567  0.00  0.00    +0.000 C 
ATOM     21  C   UNL     1       1.542   4.685  20.743  0.00  0.00    +0.000 C 
ENDBRANCH   1  16
BRANCH   1  22
ATOM     22  C   UNL     1       4.167   4.068  18.356  0.00  0.00    +0.000 C 
BRANCH  22  24
ATOM     23  O   UNL     1       3.548   3.643  16.020  0.00  0.00    +0.000 OA
ATOM     24  C   UNL     1       4.425   3.892  16.843  0.00  0.00    +0.000 C 
ATOM     25  N   UNL     1       5.770   4.079  16.499  0.00  0.00    +0.000 N 
ATOM     26  H   UNL     1       6.447   3.762  17.182  0.00  0.00    +0.000 HD
BRANCH  25  27
ATOM     27  C   UNL     1       6.196   4.183  15.157  0.00  0.00    +0.000 A 
ATOM     28  C   UNL     1       7.267   5.001  14.782  0.00  0.00    +0.000 A 
ATOM     29  C   UNL     1       7.658   5.063  13.443  0.00  0.00    +0.000 A 
ATOM     30  F   UNL     1       8.706   5.823  13.095  0.00  0.00    +0.000 F 
ATOM     31  C   UNL     1       6.986   4.347  12.463  0.00  0.00    +0.000 A 
ATOM     32  C   UNL     1       5.928   3.536  12.848  0.00  0.00    +0.000 A 
ATOM     33  F   UNL     1       5.251   2.854  11.915  0.00  0.00    +0.000 F 
ATOM     34  C   UNL     1       5.548   3.420  14.186  0.00  0.00    +0.000 A 
ENDBRANCH  25  27
ENDBRANCH  22  24
ENDBRANCH   1  22
TORSDOF 6
ENDMDL
MODEL 5
REMARK VINA RESULT:      -9.1      1.088      2.046
REMARK  Name = 
REMARK  6 active torsions:
REMARK  status: ('A' for Active; 'I' for Inactive)
REMARK    1  A    between atoms: C_2  and  C_3
REMARK    2  A    between atoms: C_3  and  N_4
REMARK    3  A    between atoms: N_4  and  C_19
REMARK    4  A    between atoms: C_5  and  C_7
REMARK    5  A    between atoms: C_10  and  C_11
REMARK    6  A    between atoms: N_25  and  C_26
REMARK                            x       y       z     vdW  Elec       q    Type
REMARK                         _______ _______ _______ _____ _____    ______ ____
ROOT
ATOM      1  N   UNL     1       3.960   5.251  18.731  0.00  0.00    +0.000 N 
ATOM      2  C   UNL     1       3.924   6.610  18.328  0.00  0.00    +0.000 C 
ATOM      3  O   UNL     1       4.845   7.098  17.667  0.00  0.00    +0.000 OA
ENDROOT
BRANCH   2   4
ATOM      4  C   UNL     1       2.802   7.547  18.673  0.00  0.00    +0.000 A 
ATOM      5  C   UNL     1       2.326   8.397  17.665  0.00  0.00    +0.000 A 
ATOM      6  C   UNL     1       1.305   9.330  17.923  0.00  0.00    +0.000 A 
ATOM      7  C   UNL     1       0.734   9.454  19.200  0.00  0.00    +0.000 A 
ATOM      8  C   UNL     1       1.208   8.583  20.194  0.00  0.00    +0.000 A 
ATOM      9  C   UNL     1       2.177   7.608  19.921  0.00  0.00    +0.000 A 
BRANCH   7  10
ATOM     10  C   UNL     1      -0.345  10.418  19.509  0.00  0.00    +0.000 A 
ATOM     11  C   UNL     1      -0.469  11.052  20.734  0.00  0.00    +0.000 A 
ATOM     12  C   UNL     1      -1.477  11.995  20.927  0.00  0.00    +0.000 A 
ATOM     13  C   UNL     1      -2.347  12.283  19.884  0.00  0.00    +0.000 A 
ATOM     14  C   UNL     1      -2.169  11.613  18.688  0.00  0.00    +0.000 A 
ATOM     15  N   UNL     1      -1.194  10.696  18.477  0.00  0.00    +0.000 NA
ENDBRANCH   7  10
ENDBRANCH   2   4
BRANCH   1  16
ATOM     16  C   UNL     1       2.940   4.587  19.597  0.00  0.00    +0.000 C 
ATOM     17  C   UNL     1       1.510   4.398  19.043  0.00  0.00    +0.000 C 
ATOM     18  C   UNL     1       1.330   3.189  18.133  0.00  0.00    +0.000 C 
ATOM     19  C   UNL     1       1.911   1.909  18.726  0.00  0.00    +0.000 C 
ATOM     20  C   UNL     1       3.321   2.084  19.272  0.00  0.00    +0.000 C 
ATOM     21  C   UNL     1       3.407   3.260  20.227  0.00  0.00    +0.000 C 
ENDBRANCH   1  16
BRANCH   1  22
ATOM     22  C   UNL     1       5.107   4.479  18.190  0.00  0.00    +0.000 C 
BRANCH  22  24
ATOM     23  O   UNL     1       4.091   3.945  16.021  0.00  0.00    +0.000 OA
ATOM     24  C   UNL     1       5.102   4.190  16.672  0.00  0.00    +0.000 C 
ATOM     25  N   UNL     1       6.381   4.268  16.104  0.00  0.00    +0.000 N 
ATOM     26  H   UNL     1       7.143   3.953  16.691  0.00  0.00    +0.000 HD
BRANCH  25  27
ATOM     27  C   UNL     1       6.585   4.257  14.707  0.00  0.00    +0.000 A 
ATOM     28  C   UNL     1       5.979   3.307  13.878  0.00  0.00    +0.000 A 
ATOM     29  C   UNL     1       6.203   3.342  12.501  0.00  0.00    +0.000 A 
ATOM     30  F   UNL     1       5.593   2.450  11.709  0.00  0.00    +0.000 F 
ATOM     31  C   UNL     1       7.043   4.289  11.932  0.00  0.00    +0.000 A 
ATOM     32  C   UNL     1       7.635   5.229  12.765  0.00  0.00    +0.000 A 
ATOM     33  F   UNL     1       8.468   6.137  12.240  0.00  0.00    +0.000 F 
ATOM     34  C   UNL     1       7.389   5.244  14.138  0.00  0.00    +0.000 A 
ENDBRANCH  25  27
ENDBRANCH  22  24
ENDBRANCH   1  22
TORSDOF 6
ENDMDL
MODEL 6
REMARK VINA RESULT:      -9.1      0.575      1.872
REMARK  Name = 
REMARK  6 active torsions:
REMARK  status: ('A' for Active; 'I' for Inactive)
REMARK    1  A    between atoms: C_2  and  C_3
REMARK    2  A    between atoms: C_3  and  N_4
REMARK    3  A    between atoms: N_4  and  C_19
REMARK    4  A    between atoms: C_5  and  C_7
REMARK    5  A    between atoms: C_10  and  C_11
REMARK    6  A    between atoms: N_25  and  C_26
REMARK                            x       y       z     vdW  Elec       q    Type
REMARK                         _______ _______ _______ _____ _____    ______ ____
ROOT
ATOM      1  N   UNL     1       3.702   4.947  18.300  0.00  0.00    +0.000 N 
ATOM      2  C   UNL     1       3.991   6.298  18.621  0.00  0.00    +0.000 C 
ATOM      3  O   UNL     1       5.144   6.654  18.881  0.00  0.00    +0.000 OA
ENDROOT
BRANCH   2   4
ATOM      4  C   UNL     1       2.946   7.376  18.684  0.00  0.00    +0.000 A 
ATOM      5  C   UNL     1       2.257   7.549  19.893  0.00  0.00    +0.000 A 
ATOM      6  C   UNL     1       1.238   8.511  20.017  0.00  0.00    +0.000 A 
ATOM      7  C   UNL     1       0.863   9.322  18.934  0.00  0.00    +0.000 A 
ATOM      8  C   UNL     1       1.576   9.150  17.737  0.00  0.00    +0.000 A 
ATOM      9  C   UNL     1       2.636   8.240  17.632  0.00  0.00    +0.000 A 
BRANCH   7  10
ATOM     10  C   UNL     1      -0.199  10.348  19.027  0.00  0.00    +0.000 A 
ATOM     11  C   UNL     1      -0.274  11.272  20.056  0.00  0.00    +0.000 A 
ATOM     12  C   UNL     1      -1.269  12.247  20.040  0.00  0.00    +0.000 A 
ATOM     13  C   UNL     1      -2.177  12.276  18.988  0.00  0.00    +0.000 A 
ATOM     14  C   UNL     1      -2.046  11.323  17.995  0.00  0.00    +0.000 A 
ATOM     15  N   UNL     1      -1.084  10.369  17.989  0.00  0.00    +0.000 NA
ENDBRANCH   7  10
ENDBRANCH   2   4
BRANCH   1  16
ATOM     16  C   UNL     1       2.335   4.400  18.050  0.00  0.00    +0.000 C 
ATOM     17  C   UNL     1       2.193   3.133  17.177  0.00  0.00    +0.000 C 
ATOM     18  C   UNL     1       2.441   1.819  17.908  0.00  0.00    +0.000 C 
ATOM     19  C   UNL     1       1.676   1.721  19.225  0.00  0.00    +0.000 C 
ATOM     20  C   UNL     1       1.812   2.963  20.095  0.00  0.00    +0.000 C 
ATOM     21  C   UNL     1       1.478   4.224  19.321  0.00  0.00    +0.000 C 
ENDBRANCH   1  16
BRANCH   1  22
ATOM     22  C   UNL     1       4.896   4.072  18.188  0.00  0.00    +0.000 C 
BRANCH  22  24
ATOM     23  O   UNL     1       7.029   4.495  17.049  0.00  0.00    +0.000 OA
ATOM     24  C   UNL     1       5.819   4.300  16.970  0.00  0.00    +0.000 C 
ATOM     25  N   UNL     1       5.131   4.229  15.752  0.00  0.00    +0.000 N 
ATOM     26  H   UNL     1       4.183   4.585  15.760  0.00  0.00    +0.000 HD
BRANCH  25  27
ATOM     27  C   UNL     1       5.803   4.188  14.510  0.00  0.00    +0.000 A 
ATOM     28  C   UNL     1       5.403   3.328  13.481  0.00  0.00    +0.000 A 
ATOM     29  C   UNL     1       6.092   3.331  12.267  0.00  0.00    +0.000 A 
ATOM     30  F   UNL     1       5.684   2.529  11.274  0.00  0.00    +0.000 F 
ATOM     31  C   UNL     1       7.191   4.154  12.064  0.00  0.00    +0.000 A 
ATOM     32  C   UNL     1       7.574   5.006  13.091  0.00  0.00    +0.000 A 
ATOM     33  F   UNL     1       8.646   5.791  12.925  0.00  0.00    +0.000 F 
ATOM     34  C   UNL     1       6.873   5.056  14.297  0.00  0.00    +0.000 A 
ENDBRANCH  25  27
ENDBRANCH  22  24
ENDBRANCH   1  22
TORSDOF 6
ENDMDL
MODEL 7
REMARK VINA RESULT:      -9.0      1.089      1.469
REMARK  Name = 
REMARK  6 active torsions:
REMARK  status: ('A' for Active; 'I' for Inactive)
REMARK    1  A    between atoms: C_2  and  C_3
REMARK    2  A    between atoms: C_3  and  N_4
REMARK    3  A    between atoms: N_4  and  C_19
REMARK    4  A    between atoms: C_5  and  C_7
REMARK    5  A    between atoms: C_10  and  C_11
REMARK    6  A    between atoms: N_25  and  C_26
REMARK                            x       y       z     vdW  Elec       q    Type
REMARK                         _______ _______ _______ _____ _____    ______ ____
ROOT
ATOM      1  N   UNL     1       3.859   5.244  18.796  0.00  0.00    +0.000 N 
ATOM      2  C   UNL     1       3.853   6.599  18.377  0.00  0.00    +0.000 C 
ATOM      3  O   UNL     1       4.794   7.063  17.727  0.00  0.00    +0.000 OA
ENDROOT
BRANCH   2   4
ATOM      4  C   UNL     1       2.742   7.559  18.692  0.00  0.00    +0.000 A 
ATOM      5  C   UNL     1       2.274   8.380  17.656  0.00  0.00    +0.000 A 
ATOM      6  C   UNL     1       1.263   9.332  17.884  0.00  0.00    +0.000 A 
ATOM      7  C   UNL     1       0.695   9.505  19.156  0.00  0.00    +0.000 A 
ATOM      8  C   UNL     1       1.161   8.661  20.178  0.00  0.00    +0.000 A 
ATOM      9  C   UNL     1       2.119   7.668  19.937  0.00  0.00    +0.000 A 
BRANCH   7  10
ATOM     10  C   UNL     1      -0.373  10.490  19.434  0.00  0.00    +0.000 A 
ATOM     11  C   UNL     1      -0.543  11.098  20.667  0.00  0.00    +0.000 A 
ATOM     12  C   UNL     1      -1.535  12.063  20.832  0.00  0.00    +0.000 A 
ATOM     13  C   UNL     1      -2.343  12.399  19.753  0.00  0.00    +0.000 A 
ATOM     14  C   UNL     1      -2.121  11.752  18.552  0.00  0.00    +0.000 A 
ATOM     15  N   UNL     1      -1.161  10.814  18.368  0.00  0.00    +0.000 NA
ENDBRANCH   7  10
ENDBRANCH   2   4
BRANCH   1  16
ATOM     16  C   UNL     1       2.812   4.608  19.651  0.00  0.00    +0.000 C 
ATOM     17  C   UNL     1       1.416   4.350  19.043  0.00  0.00    +0.000 C 
ATOM     18  C   UNL     1       1.308   3.085  18.201  0.00  0.00    +0.000 C 
ATOM     19  C   UNL     1       1.888   1.857  18.898  0.00  0.00    +0.000 C 
ATOM     20  C   UNL     1       3.265   2.101  19.498  0.00  0.00    +0.000 C 
ATOM     21  C   UNL     1       3.278   3.333  20.383  0.00  0.00    +0.000 C 
ENDBRANCH   1  16
BRANCH   1  22
ATOM     22  C   UNL     1       5.001   4.446  18.284  0.00  0.00    +0.000 C 
BRANCH  22  24
ATOM     23  O   UNL     1       4.063   3.919  16.078  0.00  0.00    +0.000 OA
ATOM     24  C   UNL     1       5.048   4.187  16.762  0.00  0.00    +0.000 C 
ATOM     25  N   UNL     1       6.337   4.320  16.230  0.00  0.00    +0.000 N 
ATOM     26  H   UNL     1       7.094   4.021  16.832  0.00  0.00    +0.000 HD
BRANCH  25  27
ATOM     27  C   UNL     1       6.579   4.343  14.839  0.00  0.00    +0.000 A 
ATOM     28  C   UNL     1       7.469   5.253  14.258  0.00  0.00    +0.000 A 
ATOM     29  C   UNL     1       7.683   5.231  12.879  0.00  0.00    +0.000 A 
ATOM     30  F   UNL     1       8.562   6.083  12.333  0.00  0.00    +0.000 F 
ATOM     31  C   UNL     1       7.006   4.339  12.059  0.00  0.00    +0.000 A 
ATOM     32  C   UNL     1       6.129   3.439  12.648  0.00  0.00    +0.000 A 
ATOM     33  F   UNL     1       5.449   2.585  11.873  0.00  0.00    +0.000 F 
ATOM     34  C   UNL     1       5.934   3.409  14.030  0.00  0.00    +0.000 A 
ENDBRANCH  25  27
ENDBRANCH  22  24
ENDBRANCH   1  22
TORSDOF 6
ENDMDL
MODEL 8
REMARK VINA RESULT:      -8.9      1.131      2.024
REMARK  Name = 
REMARK  6 active torsions:
REMARK  status: ('A' for Active; 'I' for Inactive)
REMARK    1  A    between atoms: C_2  and  C_3
REMARK    2  A    between atoms: C_3  and  N_4
REMARK    3  A    between atoms: N_4  and  C_19
REMARK    4  A    between atoms: C_5  and  C_7
REMARK    5  A    between atoms: C_10  and  C_11
REMARK    6  A    between atoms: N_25  and  C_26
REMARK                            x       y       z     vdW  Elec       q    Type
REMARK                         _______ _______ _______ _____ _____    ______ ____
ROOT
ATOM      1  N   UNL     1       3.262   5.644  18.230  0.00  0.00    +0.000 N 
ATOM      2  C   UNL     1       3.427   7.038  18.430  0.00  0.00    +0.000 C 
ATOM      3  O   UNL     1       4.535   7.569  18.306  0.00  0.00    +0.000 OA
ENDROOT
BRANCH   2   4
ATOM      4  C   UNL     1       2.303   7.959  18.814  0.00  0.00    +0.000 A 
ATOM      5  C   UNL     1       1.708   8.723  17.800  0.00  0.00    +0.000 A 
ATOM      6  C   UNL     1       0.678   9.636  18.089  0.00  0.00    +0.000 A 
ATOM      7  C   UNL     1       0.217   9.828  19.401  0.00  0.00    +0.000 A 
ATOM      8  C   UNL     1       0.809   9.041  20.402  0.00  0.00    +0.000 A 
ATOM      9  C   UNL     1       1.788   8.083  20.107  0.00  0.00    +0.000 A 
BRANCH   7  10
ATOM     10  C   UNL     1      -0.868  10.774  19.743  0.00  0.00    +0.000 A 
ATOM     11  C   UNL     1      -0.931  11.453  20.949  0.00  0.00    +0.000 A 
ATOM     12  C   UNL     1      -1.952  12.375  21.172  0.00  0.00    +0.000 A 
ATOM     13  C   UNL     1      -2.896  12.598  20.178  0.00  0.00    +0.000 A 
ATOM     14  C   UNL     1      -2.776  11.885  18.999  0.00  0.00    +0.000 A 
ATOM     15  N   UNL     1      -1.790  10.986  18.760  0.00  0.00    +0.000 NA
ENDBRANCH   7  10
ENDBRANCH   2   4
BRANCH   1  16
ATOM     16  C   UNL     1       1.986   4.895  18.434  0.00  0.00    +0.000 C 
ATOM     17  C   UNL     1       1.665   3.711  17.494  0.00  0.00    +0.000 C 
ATOM     18  C   UNL     1       2.340   2.397  17.865  0.00  0.00    +0.000 C 
ATOM     19  C   UNL     1       2.181   2.044  19.341  0.00  0.00    +0.000 C 
ATOM     20  C   UNL     1       2.498   3.203  20.275  0.00  0.00    +0.000 C 
ATOM     21  C   UNL     1       1.733   4.455  19.890  0.00  0.00    +0.000 C 
ENDBRANCH   1  16
BRANCH   1  22
ATOM     22  C   UNL     1       4.479   4.944  17.750  0.00  0.00    +0.000 C 
BRANCH  22  24
ATOM     23  O   UNL     1       4.798   6.257  15.702  0.00  0.00    +0.000 OA
ATOM     24  C   UNL     1       4.888   5.177  16.279  0.00  0.00    +0.000 C 
ATOM     25  N   UNL     1       5.405   4.024  15.673  0.00  0.00    +0.000 N 
ATOM     26  H   UNL     1       4.988   3.149  15.964  0.00  0.00    +0.000 HD
BRANCH  25  27
ATOM     27  C   UNL     1       6.039   4.057  14.411  0.00  0.00    +0.000 A 
ATOM     28  C   UNL     1       5.630   3.233  13.356  0.00  0.00    +0.000 A 
ATOM     29  C   UNL     1       6.282   3.309  12.124  0.00  0.00    +0.000 A 
ATOM     30  F   UNL     1       5.865   2.542  11.108  0.00  0.00    +0.000 F 
ATOM     31  C   UNL     1       7.353   4.169  11.927  0.00  0.00    +0.000 A 
ATOM     32  C   UNL     1       7.746   4.984  12.980  0.00  0.00    +0.000 A 
ATOM     33  F   UNL     1       8.791   5.805  12.819  0.00  0.00    +0.000 F 
ATOM     34  C   UNL     1       7.080   4.962  14.207  0.00  0.00    +0.000 A 
ENDBRANCH  25  27
ENDBRANCH  22  24
ENDBRANCH   1  22
TORSDOF 6
ENDMDL
MODEL 9
REMARK VINA RESULT:      -8.7      1.195      1.742
REMARK  Name = 
REMARK  6 active torsions:
REMARK  status: ('A' for Active; 'I' for Inactive)
REMARK    1  A    between atoms: C_2  and  C_3
REMARK    2  A    between atoms: C_3  and  N_4
REMARK    3  A    between atoms: N_4  and  C_19
REMARK    4  A    between atoms: C_5  and  C_7
REMARK    5  A    between atoms: C_10  and  C_11
REMARK    6  A    between atoms: N_25  and  C_26
REMARK                            x       y       z     vdW  Elec       q    Type
REMARK                         _______ _______ _______ _____ _____    ______ ____
ROOT
ATOM      1  N   UNL     1       3.163   5.852  18.182  0.00  0.00    +0.000 N 
ATOM      2  C   UNL     1       3.354   7.252  18.295  0.00  0.00    +0.000 C 
ATOM      3  O   UNL     1       4.471   7.753  18.132  0.00  0.00    +0.000 OA
ENDROOT
BRANCH   2   4
ATOM      4  C   UNL     1       2.250   8.216  18.627  0.00  0.00    +0.000 A 
ATOM      5  C   UNL     1       1.850   8.316  19.967  0.00  0.00    +0.000 A 
ATOM      6  C   UNL     1       0.796   9.166  20.349  0.00  0.00    +0.000 A 
ATOM      7  C   UNL     1       0.098   9.934  19.404  0.00  0.00    +0.000 A 
ATOM      8  C   UNL     1       0.523   9.837  18.069  0.00  0.00    +0.000 A 
ATOM      9  C   UNL     1       1.616   9.043  17.697  0.00  0.00    +0.000 A 
BRANCH   7  10
ATOM     10  C   UNL     1      -1.011  10.844  19.767  0.00  0.00    +0.000 A 
ATOM     11  C   UNL     1      -1.069  11.527  20.971  0.00  0.00    +0.000 A 
ATOM     12  C   UNL     1      -2.116  12.414  21.214  0.00  0.00    +0.000 A 
ATOM     13  C   UNL     1      -3.091  12.599  20.241  0.00  0.00    +0.000 A 
ATOM     14  C   UNL     1      -2.973  11.885  19.063  0.00  0.00    +0.000 A 
ATOM     15  N   UNL     1      -1.962  11.020  18.805  0.00  0.00    +0.000 NA
ENDBRANCH   7  10
ENDBRANCH   2   4
BRANCH   1  16
ATOM     16  C   UNL     1       1.874   5.141  18.439  0.00  0.00    +0.000 C 
ATOM     17  C   UNL     1       1.513   3.924  17.559  0.00  0.00    +0.000 C 
ATOM     18  C   UNL     1       2.167   2.613  17.977  0.00  0.00    +0.000 C 
ATOM     19  C   UNL     1       2.023   2.329  19.469  0.00  0.00    +0.000 C 
ATOM     20  C   UNL     1       2.380   3.521  20.346  0.00  0.00    +0.000 C 
ATOM     21  C   UNL     1       1.636   4.771  19.917  0.00  0.00    +0.000 C 
ENDBRANCH   1  16
BRANCH   1  22
ATOM     22  C   UNL     1       4.364   5.100  17.741  0.00  0.00    +0.000 C 
BRANCH  22  24
ATOM     23  O   UNL     1       4.858   6.429  15.737  0.00  0.00    +0.000 OA
ATOM     24  C   UNL     1       4.841   5.332  16.290  0.00  0.00    +0.000 C 
ATOM     25  N   UNL     1       5.287   4.156  15.673  0.00  0.00    +0.000 N 
ATOM     26  H   UNL     1       4.792   3.310  15.929  0.00  0.00    +0.000 HD
BRANCH  25  27
ATOM     27  C   UNL     1       5.966   4.166  14.435  0.00  0.00    +0.000 A 
ATOM     28  C   UNL     1       7.075   4.988  14.206  0.00  0.00    +0.000 A 
ATOM     29  C   UNL     1       7.719   4.955  12.969  0.00  0.00    +0.000 A 
ATOM     30  F   UNL     1       8.801   5.720  12.767  0.00  0.00    +0.000 F 
ATOM     31  C   UNL     1       7.265   4.141  11.941  0.00  0.00    +0.000 A 
ATOM     32  C   UNL     1       6.166   3.327  12.182  0.00  0.00    +0.000 A 
ATOM     33  F   UNL     1       5.698   2.551  11.197  0.00  0.00    +0.000 F 
ATOM     34  C   UNL     1       5.534   3.306  13.426  0.00  0.00    +0.000 A 
ENDBRANCH  25  27
ENDBRANCH  22  24
ENDBRANCH   1  22
TORSDOF 6
ENDMDL
