MODEL 1
REMARK VINA RESULT:      -7.5      0.000      0.000
REMARK  Name = 
REMARK  7 active torsions:
REMARK  status: ('A' for Active; 'I' for Inactive)
REMARK    1  A    between atoms: C_1  and  N_2
REMARK    2  A    between atoms: N_5  and  C_6
REMARK    3  A    between atoms: C_9  and  S_10
REMARK    4  A    between atoms: S_10  and  N_13
REMARK    5  A    between atoms: C_20  and  N_21
REMARK    6  A    between atoms: C_22  and  C_24
REMARK    7  A    between atoms: C_24  and  C_25
REMARK                            x       y       z     vdW  Elec       q    Type
REMARK                         _______ _______ _______ _____ _____    ______ ____
ROOT
ATOM      1  C   UNL     1       1.463   9.563  18.851  0.00  0.00    +0.000 A 
ATOM      2  C   UNL     1       1.970   8.789  17.789  0.00  0.00    +0.000 A 
ATOM      3  C   UNL     1       2.450   7.479  17.985  0.00  0.00    +0.000 A 
ATOM      4  C   UNL     1       2.394   6.902  19.256  0.00  0.00    +0.000 A 
ATOM      5  C   UNL     1       1.863   7.619  20.323  0.00  0.00    +0.000 A 
ATOM      6  C   UNL     1       1.412   8.936  20.126  0.00  0.00    +0.000 A 
ENDROOT
BRANCH   1  11
ATOM      7  C   UNL     1      -0.253  14.842  19.347  0.00  0.00    +0.000 C 
ATOM      8  N   UNL     1       0.153  13.631  18.639  0.00  0.00    +0.000 NA
ATOM      9  C   UNL     1      -0.729  12.497  19.000  0.00  0.00    +0.000 C 
ATOM     10  C   UNL     1      -0.314  11.206  18.256  0.00  0.00    +0.000 C 
ATOM     11  N   UNL     1       1.067  10.880  18.664  0.00  0.00    +0.000 N 
ATOM     12  C   UNL     1       2.018  11.945  18.293  0.00  0.00    +0.000 C 
ATOM     13  C   UNL     1       1.561  13.279  18.946  0.00  0.00    +0.000 C 
ENDBRANCH   1  11
BRANCH   6  14
ATOM     14  N   UNL     1       1.102   9.694  21.276  0.00  0.00    +0.000 N 
ATOM     15  C   UNL     1      -0.124   9.653  21.916  0.00  0.00    +0.000 C 
ATOM     16  O   UNL     1      -1.081   8.973  21.547  0.00  0.00    +0.000 OA
ATOM     17  H   UNL     1       1.764  10.428  21.496  0.00  0.00    +0.000 HD
BRANCH  15  18
ATOM     18  C   UNL     1      -0.219  10.567  23.131  0.00  0.00    +0.000 C 
BRANCH  18  19
ATOM     19  C   UNL     1      -1.226  11.672  22.930  0.00  0.00    +0.000 A 
ATOM     20  C   UNL     1      -2.576  11.497  23.263  0.00  0.00    +0.000 A 
ATOM     21  C   UNL     1      -3.481  12.552  23.106  0.00  0.00    +0.000 A 
ATOM     22  C   UNL     1      -3.046  13.787  22.624  0.00  0.00    +0.000 A 
ATOM     23  C   UNL     1      -1.709  13.961  22.273  0.00  0.00    +0.000 A 
ATOM     24  C   UNL     1      -0.821  12.904  22.414  0.00  0.00    +0.000 A 
ATOM     25  F   UNL     1       0.455  13.082  22.041  0.00  0.00    +0.000 F 
ENDBRANCH  18  19
ENDBRANCH  15  18
ENDBRANCH   6  14
BRANCH   4  26
ATOM     26  S   UNL     1       3.250   5.358  19.558  0.00  0.00    +0.000 S 
ATOM     27  O   UNL     1       4.666   5.658  19.478  0.00  0.00    +0.000 OA
ATOM     28  O   UNL     1       2.684   4.795  20.760  0.00  0.00    +0.000 OA
BRANCH  26  29
ATOM     29  N   UNL     1       2.871   4.349  18.269  0.00  0.00    +0.000 NA
ATOM     30  C   UNL     1       1.465   3.972  18.012  0.00  0.00    +0.000 C 
ATOM     31  C   UNL     1       1.140   2.626  18.669  0.00  0.00    +0.000 C 
ATOM     32  O   UNL     1       2.052   1.597  18.256  0.00  0.00    +0.000 OA
ATOM     33  C   UNL     1       3.419   1.944  18.531  0.00  0.00    +0.000 C 
ATOM     34  C   UNL     1       3.806   3.268  17.872  0.00  0.00    +0.000 C 
ENDBRANCH  26  29
ENDBRANCH   4  26
TORSDOF 6
ENDMDL
MODEL 2
REMARK VINA RESULT:      -7.2      3.584      8.634
REMARK  Name = 
REMARK  7 active torsions:
REMARK  status: ('A' for Active; 'I' for Inactive)
REMARK    1  A    between atoms: C_1  and  N_2
REMARK    2  A    between atoms: N_5  and  C_6
REMARK    3  A    between atoms: C_9  and  S_10
REMARK    4  A    between atoms: S_10  and  N_13
REMARK    5  A    between atoms: C_20  and  N_21
REMARK    6  A    between atoms: C_22  and  C_24
REMARK    7  A    between atoms: C_24  and  C_25
REMARK                            x       y       z     vdW  Elec       q    Type
REMARK                         _______ _______ _______ _____ _____    ______ ____
ROOT
ATOM      1  C   UNL     1       3.208   7.391  18.134  0.00  0.00    +0.000 A 
ATOM      2  C   UNL     1       2.873   8.569  17.438  0.00  0.00    +0.000 A 
ATOM      3  C   UNL     1       1.950   9.501  17.954  0.00  0.00    +0.000 A 
ATOM      4  C   UNL     1       1.371   9.285  19.207  0.00  0.00    +0.000 A 
ATOM      5  C   UNL     1       1.707   8.153  19.942  0.00  0.00    +0.000 A 
ATOM      6  C   UNL     1       2.606   7.213  19.409  0.00  0.00    +0.000 A 
ENDROOT
BRANCH   1  11
ATOM      7  C   UNL     1       6.095   3.946  14.838  0.00  0.00    +0.000 C 
ATOM      8  N   UNL     1       5.647   4.520  16.104  0.00  0.00    +0.000 NA
ATOM      9  C   UNL     1       4.176   4.409  16.234  0.00  0.00    +0.000 C 
ATOM     10  C   UNL     1       3.685   5.011  17.572  0.00  0.00    +0.000 C 
ATOM     11  N   UNL     1       4.056   6.440  17.582  0.00  0.00    +0.000 N 
ATOM     12  C   UNL     1       5.516   6.632  17.505  0.00  0.00    +0.000 C 
ATOM     13  C   UNL     1       6.048   5.944  16.217  0.00  0.00    +0.000 C 
ENDBRANCH   1  11
BRANCH   6  14
ATOM     14  N   UNL     1       2.734   5.980  20.087  0.00  0.00    +0.000 N 
ATOM     15  C   UNL     1       1.674   5.312  20.673  0.00  0.00    +0.000 C 
ATOM     16  O   UNL     1       0.514   5.722  20.690  0.00  0.00    +0.000 OA
ATOM     17  H   UNL     1       3.685   5.704  20.296  0.00  0.00    +0.000 HD
BRANCH  15  18
ATOM     18  C   UNL     1       2.066   4.006  21.351  0.00  0.00    +0.000 C 
BRANCH  18  19
ATOM     19  C   UNL     1       2.676   3.025  20.381  0.00  0.00    +0.000 A 
ATOM     20  C   UNL     1       4.023   2.652  20.473  0.00  0.00    +0.000 A 
ATOM     21  C   UNL     1       4.553   1.708  19.588  0.00  0.00    +0.000 A 
ATOM     22  C   UNL     1       3.744   1.127  18.611  0.00  0.00    +0.000 A 
ATOM     23  C   UNL     1       2.409   1.509  18.502  0.00  0.00    +0.000 A 
ATOM     24  C   UNL     1       1.895   2.459  19.372  0.00  0.00    +0.000 A 
ATOM     25  F   UNL     1       0.616   2.836  19.231  0.00  0.00    +0.000 F 
ENDBRANCH  18  19
ENDBRANCH  15  18
ENDBRANCH   6  14
BRANCH   4  26
ATOM     26  S   UNL     1       0.004  10.316  19.732  0.00  0.00    +0.000 S 
ATOM     27  O   UNL     1      -0.903   9.448  20.455  0.00  0.00    +0.000 OA
ATOM     28  O   UNL     1       0.578  11.476  20.370  0.00  0.00    +0.000 OA
BRANCH  26  29
ATOM     29  N   UNL     1      -0.777  10.814  18.330  0.00  0.00    +0.000 NA
ATOM     30  C   UNL     1      -1.473  12.118  18.293  0.00  0.00    +0.000 C 
ATOM     31  C   UNL     1      -2.962  11.941  18.606  0.00  0.00    +0.000 C 
ATOM     32  O   UNL     1      -3.580  10.981  17.736  0.00  0.00    +0.000 OA
ATOM     33  C   UNL     1      -2.927   9.703  17.790  0.00  0.00    +0.000 C 
ATOM     34  C   UNL     1      -1.440   9.817  17.455  0.00  0.00    +0.000 C 
ENDBRANCH  26  29
ENDBRANCH   4  26
TORSDOF 6
ENDMDL
MODEL 3
REMARK VINA RESULT:      -7.1      3.040      8.922
REMARK  Name = 
REMARK  7 active torsions:
REMARK  status: ('A' for Active; 'I' for Inactive)
REMARK    1  A    between atoms: C_1  and  N_2
REMARK    2  A    between atoms: N_5  and  C_6
REMARK    3  A    between atoms: C_9  and  S_10
REMARK    4  A    between atoms: S_10  and  N_13
REMARK    5  A    between atoms: C_20  and  N_21
REMARK    6  A    between atoms: C_22  and  C_24
REMARK    7  A    between atoms: C_24  and  C_25
REMARK                            x       y       z     vdW  Elec       q    Type
REMARK                         _______ _______ _______ _____ _____    ______ ____
ROOT
ATOM      1  C   UNL     1       2.975   7.656  18.255  0.00  0.00    +0.000 A 
ATOM      2  C   UNL     1       2.520   8.811  17.590  0.00  0.00    +0.000 A 
ATOM      3  C   UNL     1       1.535   9.651  18.147  0.00  0.00    +0.000 A 
ATOM      4  C   UNL     1       1.012   9.366  19.411  0.00  0.00    +0.000 A 
ATOM      5  C   UNL     1       1.465   8.256  20.116  0.00  0.00    +0.000 A 
ATOM      6  C   UNL     1       2.427   7.406  19.543  0.00  0.00    +0.000 A 
ENDROOT
BRANCH   1  11
ATOM      7  C   UNL     1       7.276   4.364  16.942  0.00  0.00    +0.000 C 
ATOM      8  N   UNL     1       6.014   5.065  16.719  0.00  0.00    +0.000 NA
ATOM      9  C   UNL     1       6.190   6.524  16.906  0.00  0.00    +0.000 C 
ATOM     10  C   UNL     1       4.862   7.282  16.671  0.00  0.00    +0.000 C 
ATOM     11  N   UNL     1       3.886   6.791  17.664  0.00  0.00    +0.000 N 
ATOM     12  C   UNL     1       3.619   5.348  17.510  0.00  0.00    +0.000 C 
ATOM     13  C   UNL     1       4.959   4.572  17.639  0.00  0.00    +0.000 C 
ENDBRANCH   1  11
BRANCH   6  14
ATOM     14  N   UNL     1       2.679   6.180  20.195  0.00  0.00    +0.000 N 
ATOM     15  C   UNL     1       1.688   5.358  20.698  0.00  0.00    +0.000 C 
ATOM     16  O   UNL     1       0.484   5.609  20.654  0.00  0.00    +0.000 OA
ATOM     17  H   UNL     1       3.646   6.025  20.455  0.00  0.00    +0.000 HD
BRANCH  15  18
ATOM     18  C   UNL     1       2.211   4.092  21.364  0.00  0.00    +0.000 C 
BRANCH  18  19
ATOM     19  C   UNL     1       2.748   3.103  20.359  0.00  0.00    +0.000 A 
ATOM     20  C   UNL     1       4.057   2.611  20.450  0.00  0.00    +0.000 A 
ATOM     21  C   UNL     1       4.516   1.663  19.530  0.00  0.00    +0.000 A 
ATOM     22  C   UNL     1       3.674   1.196  18.520  0.00  0.00    +0.000 A 
ATOM     23  C   UNL     1       2.378   1.697  18.413  0.00  0.00    +0.000 A 
ATOM     24  C   UNL     1       1.936   2.651  19.319  0.00  0.00    +0.000 A 
ATOM     25  F   UNL     1       0.697   3.143  19.180  0.00  0.00    +0.000 F 
ENDBRANCH  18  19
ENDBRANCH  15  18
ENDBRANCH   6  14
BRANCH   4  26
ATOM     26  S   UNL     1      -0.424  10.266  19.990  0.00  0.00    +0.000 S 
ATOM     27  O   UNL     1      -1.482   9.996  19.038  0.00  0.00    +0.000 OA
ATOM     28  O   UNL     1      -0.588   9.936  21.386  0.00  0.00    +0.000 OA
BRANCH  26  29
ATOM     29  N   UNL     1      -0.037  11.897  19.873  0.00  0.00    +0.000 NA
ATOM     30  C   UNL     1       0.754  12.549  20.939  0.00  0.00    +0.000 C 
ATOM     31  C   UNL     1      -0.170  13.231  21.954  0.00  0.00    +0.000 C 
ATOM     32  O   UNL     1      -1.072  14.150  21.319  0.00  0.00    +0.000 OA
ATOM     33  C   UNL     1      -1.866  13.516  20.303  0.00  0.00    +0.000 C 
ATOM     34  C   UNL     1      -0.991  12.844  19.245  0.00  0.00    +0.000 C 
ENDBRANCH  26  29
ENDBRANCH   4  26
TORSDOF 6
ENDMDL
MODEL 4
REMARK VINA RESULT:      -7.0      3.089      8.950
REMARK  Name = 
REMARK  7 active torsions:
REMARK  status: ('A' for Active; 'I' for Inactive)
REMARK    1  A    between atoms: C_1  and  N_2
REMARK    2  A    between atoms: N_5  and  C_6
REMARK    3  A    between atoms: C_9  and  S_10
REMARK    4  A    between atoms: S_10  and  N_13
REMARK    5  A    between atoms: C_20  and  N_21
REMARK    6  A    between atoms: C_22  and  C_24
REMARK    7  A    between atoms: C_24  and  C_25
REMARK                            x       y       z     vdW  Elec       q    Type
REMARK                         _______ _______ _______ _____ _____    ______ ____
ROOT
ATOM      1  C   UNL     1       3.279   7.301  18.132  0.00  0.00    +0.000 A 
ATOM      2  C   UNL     1       2.943   8.474  17.430  0.00  0.00    +0.000 A 
ATOM      3  C   UNL     1       2.000   9.396  17.928  0.00  0.00    +0.000 A 
ATOM      4  C   UNL     1       1.400   9.173  19.170  0.00  0.00    +0.000 A 
ATOM      5  C   UNL     1       1.736   8.046  19.912  0.00  0.00    +0.000 A 
ATOM      6  C   UNL     1       2.655   7.116  19.397  0.00  0.00    +0.000 A 
ENDROOT
BRANCH   1  11
ATOM      7  C   UNL     1       6.325   3.945  14.888  0.00  0.00    +0.000 C 
ATOM      8  N   UNL     1       5.804   4.475  16.146  0.00  0.00    +0.000 NA
ATOM      9  C   UNL     1       4.326   4.383  16.177  0.00  0.00    +0.000 C 
ATOM     10  C   UNL     1       3.759   4.937  17.504  0.00  0.00    +0.000 C 
ATOM     11  N   UNL     1       4.147   6.359  17.597  0.00  0.00    +0.000 N 
ATOM     12  C   UNL     1       5.612   6.531  17.622  0.00  0.00    +0.000 C 
ATOM     13  C   UNL     1       6.216   5.887  16.343  0.00  0.00    +0.000 C 
ENDBRANCH   1  11
BRANCH   6  14
ATOM     14  N   UNL     1       2.785   5.886  20.078  0.00  0.00    +0.000 N 
ATOM     15  C   UNL     1       1.733   5.235  20.696  0.00  0.00    +0.000 C 
ATOM     16  O   UNL     1       0.579   5.660  20.741  0.00  0.00    +0.000 OA
ATOM     17  H   UNL     1       3.738   5.598  20.263  0.00  0.00    +0.000 HD
BRANCH  15  18
ATOM     18  C   UNL     1       2.125   3.927  21.371  0.00  0.00    +0.000 C 
BRANCH  18  19
ATOM     19  C   UNL     1       2.747   2.954  20.400  0.00  0.00    +0.000 A 
ATOM     20  C   UNL     1       4.088   2.566  20.519  0.00  0.00    +0.000 A 
ATOM     21  C   UNL     1       4.629   1.629  19.632  0.00  0.00    +0.000 A 
ATOM     22  C   UNL     1       3.837   1.071  18.628  0.00  0.00    +0.000 A 
ATOM     23  C   UNL     1       2.509   1.468  18.494  0.00  0.00    +0.000 A 
ATOM     24  C   UNL     1       1.985   2.411  19.366  0.00  0.00    +0.000 A 
ATOM     25  F   UNL     1       0.713   2.804  19.200  0.00  0.00    +0.000 F 
ENDBRANCH  18  19
ENDBRANCH  15  18
ENDBRANCH   6  14
BRANCH   4  26
ATOM     26  S   UNL     1       0.012  10.189  19.669  0.00  0.00    +0.000 S 
ATOM     27  O   UNL     1      -0.878  10.248  18.527  0.00  0.00    +0.000 OA
ATOM     28  O   UNL     1      -0.449   9.673  20.936  0.00  0.00    +0.000 OA
BRANCH  26  29
ATOM     29  N   UNL     1       0.624  11.734  19.918  0.00  0.00    +0.000 NA
ATOM     30  C   UNL     1       0.276  12.481  21.146  0.00  0.00    +0.000 C 
ATOM     31  C   UNL     1      -0.919  13.405  20.893  0.00  0.00    +0.000 C 
ATOM     32  O   UNL     1      -0.687  14.285  19.782  0.00  0.00    +0.000 OA
ATOM     33  C   UNL     1      -0.379  13.565  18.578  0.00  0.00    +0.000 C 
ATOM     34  C   UNL     1       0.829  12.647  18.766  0.00  0.00    +0.000 C 
ENDBRANCH  26  29
ENDBRANCH   4  26
TORSDOF 6
ENDMDL
MODEL 5
REMARK VINA RESULT:      -7.0      3.020      8.797
REMARK  Name = 
REMARK  7 active torsions:
REMARK  status: ('A' for Active; 'I' for Inactive)
REMARK    1  A    between atoms: C_1  and  N_2
REMARK    2  A    between atoms: N_5  and  C_6
REMARK    3  A    between atoms: C_9  and  S_10
REMARK    4  A    between atoms: S_10  and  N_13
REMARK    5  A    between atoms: C_20  and  N_21
REMARK    6  A    between atoms: C_22  and  C_24
REMARK    7  A    between atoms: C_24  and  C_25
REMARK                            x       y       z     vdW  Elec       q    Type
REMARK                         _______ _______ _______ _____ _____    ______ ____
ROOT
ATOM      1  C   UNL     1       3.262   7.325  18.121  0.00  0.00    +0.000 A 
ATOM      2  C   UNL     1       2.938   8.502  17.418  0.00  0.00    +0.000 A 
ATOM      3  C   UNL     1       2.019   9.443  17.926  0.00  0.00    +0.000 A 
ATOM      4  C   UNL     1       1.432   9.236  19.177  0.00  0.00    +0.000 A 
ATOM      5  C   UNL     1       1.757   8.105  19.919  0.00  0.00    +0.000 A 
ATOM      6  C   UNL     1       2.653   7.157  19.394  0.00  0.00    +0.000 A 
ENDROOT
BRANCH   1  11
ATOM      7  C   UNL     1       6.193   3.894  14.850  0.00  0.00    +0.000 C 
ATOM      8  N   UNL     1       5.707   4.444  16.113  0.00  0.00    +0.000 NA
ATOM      9  C   UNL     1       4.228   4.373  16.175  0.00  0.00    +0.000 C 
ATOM     10  C   UNL     1       3.696   4.949  17.508  0.00  0.00    +0.000 C 
ATOM     11  N   UNL     1       4.106   6.366  17.578  0.00  0.00    +0.000 N 
ATOM     12  C   UNL     1       5.574   6.517  17.570  0.00  0.00    +0.000 C 
ATOM     13  C   UNL     1       6.142   5.852  16.286  0.00  0.00    +0.000 C 
ENDBRANCH   1  11
BRANCH   6  14
ATOM     14  N   UNL     1       2.769   5.927  20.078  0.00  0.00    +0.000 N 
ATOM     15  C   UNL     1       1.709   5.284  20.690  0.00  0.00    +0.000 C 
ATOM     16  O   UNL     1       0.557   5.716  20.725  0.00  0.00    +0.000 OA
ATOM     17  H   UNL     1       3.719   5.634  20.272  0.00  0.00    +0.000 HD
BRANCH  15  18
ATOM     18  C   UNL     1       2.087   3.974  21.370  0.00  0.00    +0.000 C 
BRANCH  18  19
ATOM     19  C   UNL     1       2.705   2.993  20.404  0.00  0.00    +0.000 A 
ATOM     20  C   UNL     1       4.048   2.611  20.515  0.00  0.00    +0.000 A 
ATOM     21  C   UNL     1       4.585   1.667  19.634  0.00  0.00    +0.000 A 
ATOM     22  C   UNL     1       3.787   1.095  18.643  0.00  0.00    +0.000 A 
ATOM     23  C   UNL     1       2.456   1.486  18.515  0.00  0.00    +0.000 A 
ATOM     24  C   UNL     1       1.936   2.437  19.382  0.00  0.00    +0.000 A 
ATOM     25  F   UNL     1       0.661   2.823  19.223  0.00  0.00    +0.000 F 
ENDBRANCH  18  19
ENDBRANCH  15  18
ENDBRANCH   6  14
BRANCH   4  26
ATOM     26  S   UNL     1       0.070  10.278  19.691  0.00  0.00    +0.000 S 
ATOM     27  O   UNL     1      -0.006  11.353  18.721  0.00  0.00    +0.000 OA
ATOM     28  O   UNL     1      -1.060   9.408  19.915  0.00  0.00    +0.000 OA
BRANCH  26  29
ATOM     29  N   UNL     1       0.520  10.952  21.163  0.00  0.00    +0.000 NA
ATOM     30  C   UNL     1       0.276  10.214  22.421  0.00  0.00    +0.000 C 
ATOM     31  C   UNL     1      -1.047  10.656  23.055  0.00  0.00    +0.000 C 
ATOM     32  O   UNL     1      -1.095  12.077  23.252  0.00  0.00    +0.000 OA
ATOM     33  C   UNL     1      -0.889  12.801  22.028  0.00  0.00    +0.000 C 
ATOM     34  C   UNL     1       0.436  12.419  21.366  0.00  0.00    +0.000 C 
ENDBRANCH  26  29
ENDBRANCH   4  26
TORSDOF 6
ENDMDL
MODEL 6
REMARK VINA RESULT:      -7.0      3.516      8.610
REMARK  Name = 
REMARK  7 active torsions:
REMARK  status: ('A' for Active; 'I' for Inactive)
REMARK    1  A    between atoms: C_1  and  N_2
REMARK    2  A    between atoms: N_5  and  C_6
REMARK    3  A    between atoms: C_9  and  S_10
REMARK    4  A    between atoms: S_10  and  N_13
REMARK    5  A    between atoms: C_20  and  N_21
REMARK    6  A    between atoms: C_22  and  C_24
REMARK    7  A    between atoms: C_24  and  C_25
REMARK                            x       y       z     vdW  Elec       q    Type
REMARK                         _______ _______ _______ _____ _____    ______ ____
ROOT
ATOM      1  C   UNL     1       3.094   7.635  18.169  0.00  0.00    +0.000 A 
ATOM      2  C   UNL     1       2.672   8.800  17.499  0.00  0.00    +0.000 A 
ATOM      3  C   UNL     1       1.706   9.666  18.049  0.00  0.00    +0.000 A 
ATOM      4  C   UNL     1       1.169   9.396  19.311  0.00  0.00    +0.000 A 
ATOM      5  C   UNL     1       1.590   8.276  20.021  0.00  0.00    +0.000 A 
ATOM      6  C   UNL     1       2.532   7.401  19.454  0.00  0.00    +0.000 A 
ENDROOT
BRANCH   1  11
ATOM      7  C   UNL     1       7.352   4.289  16.850  0.00  0.00    +0.000 C 
ATOM      8  N   UNL     1       6.082   4.980  16.641  0.00  0.00    +0.000 NA
ATOM      9  C   UNL     1       6.263   6.445  16.761  0.00  0.00    +0.000 C 
ATOM     10  C   UNL     1       4.927   7.194  16.539  0.00  0.00    +0.000 C 
ATOM     11  N   UNL     1       3.985   6.745  17.584  0.00  0.00    +0.000 N 
ATOM     12  C   UNL     1       3.715   5.297  17.499  0.00  0.00    +0.000 C 
ATOM     13  C   UNL     1       5.060   4.526  17.616  0.00  0.00    +0.000 C 
ENDBRANCH   1  11
BRANCH   6  14
ATOM     14  N   UNL     1       2.750   6.169  20.109  0.00  0.00    +0.000 N 
ATOM     15  C   UNL     1       1.741   5.408  20.671  0.00  0.00    +0.000 C 
ATOM     16  O   UNL     1       0.552   5.725  20.682  0.00  0.00    +0.000 OA
ATOM     17  H   UNL     1       3.718   5.965  20.324  0.00  0.00    +0.000 HD
BRANCH  15  18
ATOM     18  C   UNL     1       2.227   4.123  21.328  0.00  0.00    +0.000 C 
BRANCH  18  19
ATOM     19  C   UNL     1       2.742   3.130  20.316  0.00  0.00    +0.000 A 
ATOM     20  C   UNL     1       4.043   2.615  20.399  0.00  0.00    +0.000 A 
ATOM     21  C   UNL     1       4.481   1.663  19.473  0.00  0.00    +0.000 A 
ATOM     22  C   UNL     1       3.626   1.214  18.466  0.00  0.00    +0.000 A 
ATOM     23  C   UNL     1       2.338   1.737  18.367  0.00  0.00    +0.000 A 
ATOM     24  C   UNL     1       1.917   2.695  19.279  0.00  0.00    +0.000 A 
ATOM     25  F   UNL     1       0.686   3.209  19.148  0.00  0.00    +0.000 F 
ENDBRANCH  18  19
ENDBRANCH  15  18
ENDBRANCH   6  14
BRANCH   4  26
ATOM     26  S   UNL     1      -0.246  10.334  19.881  0.00  0.00    +0.000 S 
ATOM     27  O   UNL     1      -1.137   9.380  20.511  0.00  0.00    +0.000 OA
ATOM     28  O   UNL     1       0.270  11.459  20.623  0.00  0.00    +0.000 OA
BRANCH  26  29
ATOM     29  N   UNL     1      -1.014  10.913  18.504  0.00  0.00    +0.000 NA
ATOM     30  C   UNL     1      -1.803  12.163  18.565  0.00  0.00    +0.000 C 
ATOM     31  C   UNL     1      -3.285  11.852  18.799  0.00  0.00    +0.000 C 
ATOM     32  O   UNL     1      -3.801  10.943  17.815  0.00  0.00    +0.000 OA
ATOM     33  C   UNL     1      -3.058   9.714  17.771  0.00  0.00    +0.000 C 
ATOM     34  C   UNL     1      -1.573   9.965  17.509  0.00  0.00    +0.000 C 
ENDBRANCH  26  29
ENDBRANCH   4  26
TORSDOF 6
ENDMDL
MODEL 7
REMARK VINA RESULT:      -6.9      1.184      1.499
REMARK  Name = 
REMARK  7 active torsions:
REMARK  status: ('A' for Active; 'I' for Inactive)
REMARK    1  A    between atoms: C_1  and  N_2
REMARK    2  A    between atoms: N_5  and  C_6
REMARK    3  A    between atoms: C_9  and  S_10
REMARK    4  A    between atoms: S_10  and  N_13
REMARK    5  A    between atoms: C_20  and  N_21
REMARK    6  A    between atoms: C_22  and  C_24
REMARK    7  A    between atoms: C_24  and  C_25
REMARK                            x       y       z     vdW  Elec       q    Type
REMARK                         _______ _______ _______ _____ _____    ______ ____
ROOT
ATOM      1  C   UNL     1       1.461  10.269  18.849  0.00  0.00    +0.000 A 
ATOM      2  C   UNL     1       2.011   9.478  17.822  0.00  0.00    +0.000 A 
ATOM      3  C   UNL     1       2.310   8.113  18.013  0.00  0.00    +0.000 A 
ATOM      4  C   UNL     1       2.024   7.505  19.238  0.00  0.00    +0.000 A 
ATOM      5  C   UNL     1       1.445   8.244  20.264  0.00  0.00    +0.000 A 
ATOM      6  C   UNL     1       1.176   9.610  20.077  0.00  0.00    +0.000 A 
ENDROOT
BRANCH   1  11
ATOM      7  C   UNL     1       0.233  15.681  19.364  0.00  0.00    +0.000 C 
ATOM      8  N   UNL     1       0.639  14.465  18.665  0.00  0.00    +0.000 NA
ATOM      9  C   UNL     1      -0.407  13.423  18.786  0.00  0.00    +0.000 C 
ATOM     10  C   UNL     1       0.006  12.127  18.049  0.00  0.00    +0.000 C 
ATOM     11  N   UNL     1       1.245  11.630  18.679  0.00  0.00    +0.000 N 
ATOM     12  C   UNL     1       2.353  12.596  18.556  0.00  0.00    +0.000 C 
ATOM     13  C   UNL     1       1.921  13.943  19.200  0.00  0.00    +0.000 C 
ENDBRANCH   1  11
BRANCH   6  14
ATOM     14  N   UNL     1       0.806  10.361  21.214  0.00  0.00    +0.000 N 
ATOM     15  C   UNL     1      -0.483  10.793  21.465  0.00  0.00    +0.000 C 
ATOM     16  O   UNL     1      -1.443  10.592  20.721  0.00  0.00    +0.000 OA
ATOM     17  H   UNL     1       1.580  10.741  21.745  0.00  0.00    +0.000 HD
BRANCH  15  18
ATOM     18  C   UNL     1      -0.629  11.592  22.753  0.00  0.00    +0.000 C 
BRANCH  18  19
ATOM     19  C   UNL     1      -1.703  12.647  22.646  0.00  0.00    +0.000 A 
ATOM     20  C   UNL     1      -1.488  13.834  21.935  0.00  0.00    +0.000 A 
ATOM     21  C   UNL     1      -2.514  14.777  21.815  0.00  0.00    +0.000 A 
ATOM     22  C   UNL     1      -3.760  14.539  22.397  0.00  0.00    +0.000 A 
ATOM     23  C   UNL     1      -3.973  13.370  23.122  0.00  0.00    +0.000 A 
ATOM     24  C   UNL     1      -2.944  12.448  23.253  0.00  0.00    +0.000 A 
ATOM     25  F   UNL     1      -3.159  11.343  23.981  0.00  0.00    +0.000 F 
ENDBRANCH  18  19
ENDBRANCH  15  18
ENDBRANCH   6  14
BRANCH   4  26
ATOM     26  S   UNL     1       2.654   5.861  19.569  0.00  0.00    +0.000 S 
ATOM     27  O   UNL     1       4.089   6.000  19.720  0.00  0.00    +0.000 OA
ATOM     28  O   UNL     1       1.852   5.313  20.636  0.00  0.00    +0.000 OA
BRANCH  26  29
ATOM     29  N   UNL     1       2.375   4.960  18.178  0.00  0.00    +0.000 NA
ATOM     30  C   UNL     1       1.255   3.995  18.133  0.00  0.00    +0.000 C 
ATOM     31  C   UNL     1       1.744   2.587  18.490  0.00  0.00    +0.000 C 
ATOM     32  O   UNL     1       2.838   2.175  17.656  0.00  0.00    +0.000 OA
ATOM     33  C   UNL     1       3.942   3.093  17.719  0.00  0.00    +0.000 C 
ATOM     34  C   UNL     1       3.514   4.511  17.341  0.00  0.00    +0.000 C 
ENDBRANCH  26  29
ENDBRANCH   4  26
TORSDOF 6
ENDMDL
MODEL 8
REMARK VINA RESULT:      -6.9      1.067      1.178
REMARK  Name = 
REMARK  7 active torsions:
REMARK  status: ('A' for Active; 'I' for Inactive)
REMARK    1  A    between atoms: C_1  and  N_2
REMARK    2  A    between atoms: N_5  and  C_6
REMARK    3  A    between atoms: C_9  and  S_10
REMARK    4  A    between atoms: S_10  and  N_13
REMARK    5  A    between atoms: C_20  and  N_21
REMARK    6  A    between atoms: C_22  and  C_24
REMARK    7  A    between atoms: C_24  and  C_25
REMARK                            x       y       z     vdW  Elec       q    Type
REMARK                         _______ _______ _______ _____ _____    ______ ____
ROOT
ATOM      1  C   UNL     1       1.441  10.246  18.795  0.00  0.00    +0.000 A 
ATOM      2  C   UNL     1       1.957   9.618  17.645  0.00  0.00    +0.000 A 
ATOM      3  C   UNL     1       2.339   8.261  17.647  0.00  0.00    +0.000 A 
ATOM      4  C   UNL     1       2.171   7.493  18.802  0.00  0.00    +0.000 A 
ATOM      5  C   UNL     1       1.627   8.068  19.946  0.00  0.00    +0.000 A 
ATOM      6  C   UNL     1       1.276   9.429  19.946  0.00  0.00    +0.000 A 
ENDROOT
BRANCH   1  11
ATOM      7  C   UNL     1      -0.024  15.475  20.051  0.00  0.00    +0.000 C 
ATOM      8  N   UNL     1       0.393  14.377  19.183  0.00  0.00    +0.000 NA
ATOM      9  C   UNL     1      -0.586  13.268  19.241  0.00  0.00    +0.000 C 
ATOM     10  C   UNL     1      -0.161  12.097  18.325  0.00  0.00    +0.000 C 
ATOM     11  N   UNL     1       1.144  11.602  18.808  0.00  0.00    +0.000 N 
ATOM     12  C   UNL     1       2.189  12.641  18.734  0.00  0.00    +0.000 C 
ATOM     13  C   UNL     1       1.735  13.873  19.566  0.00  0.00    +0.000 C 
ENDBRANCH   1  11
BRANCH   6  14
ATOM     14  N   UNL     1       0.948  10.014  21.189  0.00  0.00    +0.000 N 
ATOM     15  C   UNL     1      -0.342  10.330  21.574  0.00  0.00    +0.000 C 
ATOM     16  O   UNL     1      -1.341  10.158  20.876  0.00  0.00    +0.000 OA
ATOM     17  H   UNL     1       1.736  10.378  21.711  0.00  0.00    +0.000 HD
BRANCH  15  18
ATOM     18  C   UNL     1      -0.439  10.959  22.958  0.00  0.00    +0.000 C 
BRANCH  18  19
ATOM     19  C   UNL     1      -1.462  12.067  23.005  0.00  0.00    +0.000 A 
ATOM     20  C   UNL     1      -2.816  11.798  23.242  0.00  0.00    +0.000 A 
ATOM     21  C   UNL     1      -3.738  12.847  23.323  0.00  0.00    +0.000 A 
ATOM     22  C   UNL     1      -3.315  14.168  23.175  0.00  0.00    +0.000 A 
ATOM     23  C   UNL     1      -1.973  14.441  22.919  0.00  0.00    +0.000 A 
ATOM     24  C   UNL     1      -1.068  13.393  22.822  0.00  0.00    +0.000 A 
ATOM     25  F   UNL     1       0.213  13.674  22.544  0.00  0.00    +0.000 F 
ENDBRANCH  18  19
ENDBRANCH  15  18
ENDBRANCH   6  14
BRANCH   4  26
ATOM     26  S   UNL     1       2.906   5.863  18.887  0.00  0.00    +0.000 S 
ATOM     27  O   UNL     1       3.532   5.633  17.600  0.00  0.00    +0.000 OA
ATOM     28  O   UNL     1       3.684   5.818  20.101  0.00  0.00    +0.000 OA
BRANCH  26  29
ATOM     29  N   UNL     1       1.632   4.778  19.033  0.00  0.00    +0.000 NA
ATOM     30  C   UNL     1       1.204   4.313  20.370  0.00  0.00    +0.000 C 
ATOM     31  C   UNL     1       1.878   2.982  20.718  0.00  0.00    +0.000 C 
ATOM     32  O   UNL     1       1.647   1.988  19.709  0.00  0.00    +0.000 OA
ATOM     33  C   UNL     1       2.089   2.420  18.412  0.00  0.00    +0.000 C 
ATOM     34  C   UNL     1       1.422   3.733  18.001  0.00  0.00    +0.000 C 
ENDBRANCH  26  29
ENDBRANCH   4  26
TORSDOF 6
ENDMDL
MODEL 9
REMARK VINA RESULT:      -6.8      2.632      3.965
REMARK  Name = 
REMARK  7 active torsions:
REMARK  status: ('A' for Active; 'I' for Inactive)
REMARK    1  A    between atoms: C_1  and  N_2
REMARK    2  A    between atoms: N_5  and  C_6
REMARK    3  A    between atoms: C_9  and  S_10
REMARK    4  A    between atoms: S_10  and  N_13
REMARK    5  A    between atoms: C_20  and  N_21
REMARK    6  A    between atoms: C_22  and  C_24
REMARK    7  A    between atoms: C_24  and  C_25
REMARK                            x       y       z     vdW  Elec       q    Type
REMARK                         _______ _______ _______ _____ _____    ______ ____
ROOT
ATOM      1  C   UNL     1       0.984   9.316  20.741  0.00  0.00    +0.000 A 
ATOM      2  C   UNL     1       1.567   8.178  21.332  0.00  0.00    +0.000 A 
ATOM      3  C   UNL     1       2.101   7.128  20.557  0.00  0.00    +0.000 A 
ATOM      4  C   UNL     1       2.093   7.220  19.163  0.00  0.00    +0.000 A 
ATOM      5  C   UNL     1       1.562   8.346  18.543  0.00  0.00    +0.000 A 
ATOM      6  C   UNL     1       1.005   9.376  19.321  0.00  0.00    +0.000 A 
ENDROOT
BRANCH   1  11
ATOM      7  C   UNL     1      -2.331  13.194  22.984  0.00  0.00    +0.000 C 
ATOM      8  N   UNL     1      -1.119  12.392  22.846  0.00  0.00    +0.000 NA
ATOM      9  C   UNL     1      -0.530  12.567  21.498  0.00  0.00    +0.000 C 
ATOM     10  C   UNL     1       0.757  11.725  21.335  0.00  0.00    +0.000 C 
ATOM     11  N   UNL     1       0.388  10.306  21.510  0.00  0.00    +0.000 N 
ATOM     12  C   UNL     1      -0.163  10.040  22.852  0.00  0.00    +0.000 C 
ATOM     13  C   UNL     1      -1.400  10.953  23.079  0.00  0.00    +0.000 C 
ENDBRANCH   1  11
BRANCH   6  14
ATOM     14  N   UNL     1       0.277  10.379  18.643  0.00  0.00    +0.000 N 
ATOM     15  C   UNL     1      -1.075  10.293  18.365  0.00  0.00    +0.000 C 
ATOM     16  O   UNL     1      -1.787   9.332  18.654  0.00  0.00    +0.000 OA
ATOM     17  H   UNL     1       0.844  11.087  18.191  0.00  0.00    +0.000 HD
BRANCH  15  18
ATOM     18  C   UNL     1      -1.631  11.498  17.618  0.00  0.00    +0.000 C 
BRANCH  18  19
ATOM     19  C   UNL     1      -3.089  11.732  17.927  0.00  0.00    +0.000 A 
ATOM     20  C   UNL     1      -3.504  12.164  19.194  0.00  0.00    +0.000 A 
ATOM     21  C   UNL     1      -4.858  12.414  19.442  0.00  0.00    +0.000 A 
ATOM     22  C   UNL     1      -5.803  12.243  18.430  0.00  0.00    +0.000 A 
ATOM     23  C   UNL     1      -5.398  11.794  17.175  0.00  0.00    +0.000 A 
ATOM     24  C   UNL     1      -4.056  11.530  16.942  0.00  0.00    +0.000 A 
ATOM     25  F   UNL     1      -3.691  11.070  15.736  0.00  0.00    +0.000 F 
ENDBRANCH  18  19
ENDBRANCH  15  18
ENDBRANCH   6  14
BRANCH   4  26
ATOM     26  S   UNL     1       2.513   5.779  18.186  0.00  0.00    +0.000 S 
ATOM     27  O   UNL     1       1.319   5.432  17.443  0.00  0.00    +0.000 OA
ATOM     28  O   UNL     1       3.744   6.086  17.498  0.00  0.00    +0.000 OA
BRANCH  26  29
ATOM     29  N   UNL     1       2.812   4.539  19.279  0.00  0.00    +0.000 NA
ATOM     30  C   UNL     1       4.065   3.758  19.191  0.00  0.00    +0.000 C 
ATOM     31  C   UNL     1       3.844   2.477  18.379  0.00  0.00    +0.000 C 
ATOM     32  O   UNL     1       2.762   1.693  18.905  0.00  0.00    +0.000 OA
ATOM     33  C   UNL     1       1.534   2.436  18.966  0.00  0.00    +0.000 C 
ATOM     34  C   UNL     1       1.691   3.713  19.792  0.00  0.00    +0.000 C 
ENDBRANCH  26  29
ENDBRANCH   4  26
TORSDOF 6
ENDMDL
