MODEL 1
REMARK VINA RESULT:      -8.5      0.000      0.000
REMARK  Name = 
REMARK  2 active torsions:
REMARK  status: ('A' for Active; 'I' for Inactive)
REMARK    1  A    between atoms: N_3  and  C_4
REMARK    2  A    between atoms: C_17  and  C_18
REMARK                            x       y       z     vdW  Elec       q    Type
REMARK                         _______ _______ _______ _____ _____    ______ ____
ROOT
ATOM      1  O   UNL     1       3.906   6.325  19.661  0.00  0.00    +0.000 OA
ATOM      2  C   UNL     1       2.803   5.892  19.335  0.00  0.00    +0.000 C 
ATOM      3  N   UNL     1       1.611   6.544  19.564  0.00  0.00    +0.000 N 
ATOM      4  N   UNL     1       2.665   4.639  18.761  0.00  0.00    +0.000 N 
ATOM      5  C   UNL     1       1.469   3.987  18.257  0.00  0.00    +0.000 C 
ATOM      6  C   UNL     1       1.654   2.546  18.690  0.00  0.00    +0.000 C 
ATOM      7  C   UNL     1       3.154   2.317  18.538  0.00  0.00    +0.000 C 
ATOM      8  C   UNL     1       3.794   3.702  18.774  0.00  0.00    +0.000 C 
ATOM      9  H   UNL     1       0.801   5.956  19.620  0.00  0.00    +0.000 HD
ENDROOT
BRANCH   8  10
ATOM     10  C   UNL     1       4.860   4.011  17.738  0.00  0.00    +0.000 A 
ATOM     11  C   UNL     1       6.144   4.416  18.139  0.00  0.00    +0.000 A 
ATOM     12  C   UNL     1       7.138   4.690  17.193  0.00  0.00    +0.000 A 
ATOM     13  C   UNL     1       6.855   4.568  15.835  0.00  0.00    +0.000 A 
ATOM     14  C   UNL     1       5.593   4.138  15.422  0.00  0.00    +0.000 A 
ATOM     15  C   UNL     1       4.600   3.880  16.364  0.00  0.00    +0.000 A 
ATOM     16  O   UNL     1       5.248   3.952  14.107  0.00  0.00    +0.000 OA
ATOM     17  C   UNL     1       6.401   3.949  13.260  0.00  0.00    +0.000 C 
ATOM     18  C   UNL     1       7.348   5.077  13.636  0.00  0.00    +0.000 C 
ATOM     19  O   UNL     1       7.864   4.880  14.958  0.00  0.00    +0.000 OA
ENDBRANCH   8  10
BRANCH   3  20
ATOM     20  C   UNL     1       1.448   7.819  20.152  0.00  0.00    +0.000 A 
ATOM     21  C   UNL     1       1.319   8.019  21.539  0.00  0.00    +0.000 A 
ATOM     22  C   UNL     1       1.084   9.295  22.062  0.00  0.00    +0.000 A 
ATOM     23  C   UNL     1       0.984  10.342  21.177  0.00  0.00    +0.000 A 
ATOM     24  C   UNL     1       1.145  10.164  19.825  0.00  0.00    +0.000 A 
ATOM     25  C   UNL     1       1.397   8.921  19.284  0.00  0.00    +0.000 A 
ATOM     26  O   UNL     1       1.004  11.323  19.126  0.00  0.00    +0.000 OA
ATOM     27  C   UNL     1       0.646  12.232  20.188  0.00  0.00    +0.000 C 
ATOM     28  O   UNL     1       0.718  11.637  21.499  0.00  0.00    +0.000 OA
ENDBRANCH   3  20
TORSDOF 2
ENDMDL
MODEL 2
REMARK VINA RESULT:      -8.0      2.245      8.595
REMARK  Name = 
REMARK  2 active torsions:
REMARK  status: ('A' for Active; 'I' for Inactive)
REMARK    1  A    between atoms: N_3  and  C_4
REMARK    2  A    between atoms: C_17  and  C_18
REMARK                            x       y       z     vdW  Elec       q    Type
REMARK                         _______ _______ _______ _____ _____    ______ ____
ROOT
ATOM      1  O   UNL     1       2.182   8.790  17.721  0.00  0.00    +0.000 OA
ATOM      2  C   UNL     1       2.085   8.201  18.795  0.00  0.00    +0.000 C 
ATOM      3  N   UNL     1       2.577   6.937  19.038  0.00  0.00    +0.000 N 
ATOM      4  N   UNL     1       1.383   8.752  19.854  0.00  0.00    +0.000 N 
ATOM      5  C   UNL     1       1.211   8.245  21.204  0.00  0.00    +0.000 C 
ATOM      6  C   UNL     1      -0.233   8.582  21.517  0.00  0.00    +0.000 C 
ATOM      7  C   UNL     1      -0.441   9.930  20.836  0.00  0.00    +0.000 C 
ATOM      8  C   UNL     1       0.524   9.920  19.631  0.00  0.00    +0.000 C 
ATOM      9  H   UNL     1       2.117   6.429  19.769  0.00  0.00    +0.000 HD
ENDROOT
BRANCH   8  10
ATOM     10  C   UNL     1       1.286  11.229  19.514  0.00  0.00    +0.000 A 
ATOM     11  C   UNL     1       1.781  11.653  18.268  0.00  0.00    +0.000 A 
ATOM     12  C   UNL     1       2.472  12.863  18.146  0.00  0.00    +0.000 A 
ATOM     13  C   UNL     1       2.683  13.658  19.270  0.00  0.00    +0.000 A 
ATOM     14  C   UNL     1       2.172  13.264  20.507  0.00  0.00    +0.000 A 
ATOM     15  C   UNL     1       1.496  12.053  20.632  0.00  0.00    +0.000 A 
ATOM     16  O   UNL     1       2.299  14.010  21.652  0.00  0.00    +0.000 OA
ATOM     17  C   UNL     1       2.729  15.344  21.362  0.00  0.00    +0.000 C 
ATOM     18  C   UNL     1       3.856  15.336  20.342  0.00  0.00    +0.000 C 
ATOM     19  O   UNL     1       3.394  14.818  19.088  0.00  0.00    +0.000 OA
ENDBRANCH   8  10
BRANCH   3  20
ATOM     20  C   UNL     1       3.310   6.131  18.138  0.00  0.00    +0.000 A 
ATOM     21  C   UNL     1       2.957   4.806  17.825  0.00  0.00    +0.000 A 
ATOM     22  C   UNL     1       3.761   4.027  16.984  0.00  0.00    +0.000 A 
ATOM     23  C   UNL     1       4.902   4.601  16.478  0.00  0.00    +0.000 A 
ATOM     24  C   UNL     1       5.237   5.905  16.747  0.00  0.00    +0.000 A 
ATOM     25  C   UNL     1       4.454   6.701  17.555  0.00  0.00    +0.000 A 
ATOM     26  O   UNL     1       6.404   6.277  16.155  0.00  0.00    +0.000 OA
ATOM     27  C   UNL     1       6.809   5.027  15.557  0.00  0.00    +0.000 C 
ATOM     28  O   UNL     1       5.820   3.986  15.683  0.00  0.00    +0.000 OA
ENDBRANCH   3  20
TORSDOF 2
ENDMDL
MODEL 3
REMARK VINA RESULT:      -7.9      2.783      8.805
REMARK  Name = 
REMARK  2 active torsions:
REMARK  status: ('A' for Active; 'I' for Inactive)
REMARK    1  A    between atoms: N_3  and  C_4
REMARK    2  A    between atoms: C_17  and  C_18
REMARK                            x       y       z     vdW  Elec       q    Type
REMARK                         _______ _______ _______ _____ _____    ______ ____
ROOT
ATOM      1  O   UNL     1       1.037   8.973  18.871  0.00  0.00    +0.000 OA
ATOM      2  C   UNL     1       1.304   8.671  20.032  0.00  0.00    +0.000 C 
ATOM      3  N   UNL     1       1.966   7.521  20.404  0.00  0.00    +0.000 N 
ATOM      4  N   UNL     1       0.878   9.452  21.093  0.00  0.00    +0.000 N 
ATOM      5  C   UNL     1       1.144   9.295  22.512  0.00  0.00    +0.000 C 
ATOM      6  C   UNL     1      -0.179   9.664  23.153  0.00  0.00    +0.000 C 
ATOM      7  C   UNL     1      -0.702  10.793  22.271  0.00  0.00    +0.000 C 
ATOM      8  C   UNL     1      -0.118  10.505  20.870  0.00  0.00    +0.000 C 
ATOM      9  H   UNL     1       1.782   7.201  21.336  0.00  0.00    +0.000 HD
ENDROOT
BRANCH   8  10
ATOM     10  C   UNL     1       0.448  11.761  20.231  0.00  0.00    +0.000 A 
ATOM     11  C   UNL     1      -0.214  12.367  19.149  0.00  0.00    +0.000 A 
ATOM     12  C   UNL     1       0.291  13.531  18.561  0.00  0.00    +0.000 A 
ATOM     13  C   UNL     1       1.468  14.098  19.044  0.00  0.00    +0.000 A 
ATOM     14  C   UNL     1       2.120  13.524  20.136  0.00  0.00    +0.000 A 
ATOM     15  C   UNL     1       1.625  12.356  20.712  0.00  0.00    +0.000 A 
ATOM     16  O   UNL     1       3.260  14.044  20.697  0.00  0.00    +0.000 OA
ATOM     17  C   UNL     1       3.507  15.376  20.239  0.00  0.00    +0.000 C 
ATOM     18  C   UNL     1       3.297  15.477  18.737  0.00  0.00    +0.000 C 
ATOM     19  O   UNL     1       1.927  15.223  18.404  0.00  0.00    +0.000 OA
ENDBRANCH   8  10
BRANCH   3  20
ATOM     20  C   UNL     1       2.491   6.534  19.540  0.00  0.00    +0.000 A 
ATOM     21  C   UNL     1       3.307   6.831  18.433  0.00  0.00    +0.000 A 
ATOM     22  C   UNL     1       3.738   5.820  17.566  0.00  0.00    +0.000 A 
ATOM     23  C   UNL     1       3.338   4.532  17.834  0.00  0.00    +0.000 A 
ATOM     24  C   UNL     1       2.572   4.227  18.932  0.00  0.00    +0.000 A 
ATOM     25  C   UNL     1       2.150   5.199  19.813  0.00  0.00    +0.000 A 
ATOM     26  O   UNL     1       2.282   2.900  19.011  0.00  0.00    +0.000 OA
ATOM     27  C   UNL     1       2.878   2.423  17.787  0.00  0.00    +0.000 C 
ATOM     28  O   UNL     1       3.624   3.435  17.081  0.00  0.00    +0.000 OA
ENDBRANCH   3  20
TORSDOF 2
ENDMDL
MODEL 4
REMARK VINA RESULT:      -7.8      2.298      8.736
REMARK  Name = 
REMARK  2 active torsions:
REMARK  status: ('A' for Active; 'I' for Inactive)
REMARK    1  A    between atoms: N_3  and  C_4
REMARK    2  A    between atoms: C_17  and  C_18
REMARK                            x       y       z     vdW  Elec       q    Type
REMARK                         _______ _______ _______ _____ _____    ______ ____
ROOT
ATOM      1  O   UNL     1       1.007   9.065  18.703  0.00  0.00    +0.000 OA
ATOM      2  C   UNL     1       1.349   8.717  19.831  0.00  0.00    +0.000 C 
ATOM      3  N   UNL     1       2.076   7.580  20.108  0.00  0.00    +0.000 N 
ATOM      4  N   UNL     1       0.952   9.426  20.952  0.00  0.00    +0.000 N 
ATOM      5  C   UNL     1       1.301   9.212  22.345  0.00  0.00    +0.000 C 
ATOM      6  C   UNL     1       0.002   9.492  23.073  0.00  0.00    +0.000 C 
ATOM      7  C   UNL     1      -0.613  10.640  22.278  0.00  0.00    +0.000 C 
ATOM      8  C   UNL     1      -0.096  10.446  20.836  0.00  0.00    +0.000 C 
ATOM      9  H   UNL     1       1.957   7.207  21.031  0.00  0.00    +0.000 HD
ENDROOT
BRANCH   8  10
ATOM     10  C   UNL     1       0.383  11.755  20.233  0.00  0.00    +0.000 A 
ATOM     11  C   UNL     1      -0.367  12.390  19.229  0.00  0.00    +0.000 A 
ATOM     12  C   UNL     1       0.059  13.603  18.675  0.00  0.00    +0.000 A 
ATOM     13  C   UNL     1       1.243  14.189  19.116  0.00  0.00    +0.000 A 
ATOM     14  C   UNL     1       1.983  13.584  20.133  0.00  0.00    +0.000 A 
ATOM     15  C   UNL     1       1.567  12.369  20.673  0.00  0.00    +0.000 A 
ATOM     16  O   UNL     1       3.136  14.117  20.651  0.00  0.00    +0.000 OA
ATOM     17  C   UNL     1       3.307  15.481  20.253  0.00  0.00    +0.000 C 
ATOM     18  C   UNL     1       2.999  15.651  18.774  0.00  0.00    +0.000 C 
ATOM     19  O   UNL     1       1.620  15.362  18.512  0.00  0.00    +0.000 OA
ENDBRANCH   8  10
BRANCH   3  20
ATOM     20  C   UNL     1       2.592   6.659  19.168  0.00  0.00    +0.000 A 
ATOM     21  C   UNL     1       2.246   5.295  19.153  0.00  0.00    +0.000 A 
ATOM     22  C   UNL     1       2.844   4.412  18.247  0.00  0.00    +0.000 A 
ATOM     23  C   UNL     1       3.777   4.922  17.375  0.00  0.00    +0.000 A 
ATOM     24  C   UNL     1       4.094   6.259  17.357  0.00  0.00    +0.000 A 
ATOM     25  C   UNL     1       3.506   7.154  18.224  0.00  0.00    +0.000 A 
ATOM     26  O   UNL     1       5.041   6.556  16.426  0.00  0.00    +0.000 OA
ATOM     27  C   UNL     1       5.346   5.237  15.925  0.00  0.00    +0.000 C 
ATOM     28  O   UNL     1       4.487   4.210  16.459  0.00  0.00    +0.000 OA
ENDBRANCH   3  20
TORSDOF 2
ENDMDL
MODEL 5
REMARK VINA RESULT:      -7.7      1.146      1.681
REMARK  Name = 
REMARK  2 active torsions:
REMARK  status: ('A' for Active; 'I' for Inactive)
REMARK    1  A    between atoms: N_3  and  C_4
REMARK    2  A    between atoms: C_17  and  C_18
REMARK                            x       y       z     vdW  Elec       q    Type
REMARK                         _______ _______ _______ _____ _____    ______ ____
ROOT
ATOM      1  O   UNL     1       4.175   6.975  18.317  0.00  0.00    +0.000 OA
ATOM      2  C   UNL     1       3.111   6.389  18.130  0.00  0.00    +0.000 C 
ATOM      3  N   UNL     1       1.868   6.956  18.314  0.00  0.00    +0.000 N 
ATOM      4  N   UNL     1       3.081   5.050  17.782  0.00  0.00    +0.000 N 
ATOM      5  C   UNL     1       1.940   4.211  17.461  0.00  0.00    +0.000 C 
ATOM      6  C   UNL     1       2.289   2.889  18.116  0.00  0.00    +0.000 C 
ATOM      7  C   UNL     1       3.797   2.781  17.921  0.00  0.00    +0.000 C 
ATOM      8  C   UNL     1       4.299   4.240  17.887  0.00  0.00    +0.000 C 
ATOM      9  H   UNL     1       1.126   6.311  18.512  0.00  0.00    +0.000 HD
ENDROOT
BRANCH   8  10
ATOM     10  C   UNL     1       5.287   4.466  16.756  0.00  0.00    +0.000 A 
ATOM     11  C   UNL     1       6.524   5.085  17.006  0.00  0.00    +0.000 A 
ATOM     12  C   UNL     1       7.446   5.286  15.973  0.00  0.00    +0.000 A 
ATOM     13  C   UNL     1       7.138   4.878  14.678  0.00  0.00    +0.000 A 
ATOM     14  C   UNL     1       5.926   4.236  14.420  0.00  0.00    +0.000 A 
ATOM     15  C   UNL     1       5.002   4.049  15.446  0.00  0.00    +0.000 A 
ATOM     16  O   UNL     1       5.565   3.766  13.182  0.00  0.00    +0.000 OA
ATOM     17  C   UNL     1       6.683   3.735  12.289  0.00  0.00    +0.000 C 
ATOM     18  C   UNL     1       7.496   5.014  12.400  0.00  0.00    +0.000 C 
ATOM     19  O   UNL     1       8.073   5.131  13.706  0.00  0.00    +0.000 OA
ENDBRANCH   8  10
BRANCH   3  20
ATOM     20  C   UNL     1       1.597   8.290  18.690  0.00  0.00    +0.000 A 
ATOM     21  C   UNL     1       1.793   9.389  17.832  0.00  0.00    +0.000 A 
ATOM     22  C   UNL     1       1.581  10.698  18.281  0.00  0.00    +0.000 A 
ATOM     23  C   UNL     1       1.175  10.871  19.583  0.00  0.00    +0.000 A 
ATOM     24  C   UNL     1       0.945   9.804  20.417  0.00  0.00    +0.000 A 
ATOM     25  C   UNL     1       1.127   8.504  19.996  0.00  0.00    +0.000 A 
ATOM     26  O   UNL     1       0.556  10.190  21.662  0.00  0.00    +0.000 OA
ATOM     27  C   UNL     1       0.656  11.625  21.539  0.00  0.00    +0.000 C 
ATOM     28  O   UNL     1       0.962  12.065  20.200  0.00  0.00    +0.000 OA
ENDBRANCH   3  20
TORSDOF 2
ENDMDL
MODEL 6
REMARK VINA RESULT:      -7.7      1.661      2.518
REMARK  Name = 
REMARK  2 active torsions:
REMARK  status: ('A' for Active; 'I' for Inactive)
REMARK    1  A    between atoms: N_3  and  C_4
REMARK    2  A    between atoms: C_17  and  C_18
REMARK                            x       y       z     vdW  Elec       q    Type
REMARK                         _______ _______ _______ _____ _____    ______ ____
ROOT
ATOM      1  O   UNL     1       2.966   7.030  20.072  0.00  0.00    +0.000 OA
ATOM      2  C   UNL     1       1.972   6.382  20.391  0.00  0.00    +0.000 C 
ATOM      3  N   UNL     1       0.792   6.936  20.837  0.00  0.00    +0.000 N 
ATOM      4  N   UNL     1       1.990   4.998  20.398  0.00  0.00    +0.000 N 
ATOM      5  C   UNL     1       0.911   4.068  20.680  0.00  0.00    +0.000 C 
ATOM      6  C   UNL     1       1.597   2.974  21.474  0.00  0.00    +0.000 C 
ATOM      7  C   UNL     1       2.972   2.867  20.822  0.00  0.00    +0.000 C 
ATOM      8  C   UNL     1       3.266   4.284  20.281  0.00  0.00    +0.000 C 
ATOM      9  H   UNL     1       0.228   6.342  21.415  0.00  0.00    +0.000 HD
ENDROOT
BRANCH   8  10
ATOM     10  C   UNL     1       3.818   4.239  18.867  0.00  0.00    +0.000 A 
ATOM     11  C   UNL     1       2.996   3.852  17.796  0.00  0.00    +0.000 A 
ATOM     12  C   UNL     1       3.491   3.820  16.487  0.00  0.00    +0.000 A 
ATOM     13  C   UNL     1       4.816   4.168  16.238  0.00  0.00    +0.000 A 
ATOM     14  C   UNL     1       5.636   4.583  17.288  0.00  0.00    +0.000 A 
ATOM     15  C   UNL     1       5.147   4.601  18.593  0.00  0.00    +0.000 A 
ATOM     16  O   UNL     1       6.939   4.982  17.121  0.00  0.00    +0.000 OA
ATOM     17  C   UNL     1       7.241   5.214  15.742  0.00  0.00    +0.000 C 
ATOM     18  C   UNL     1       6.679   4.101  14.873  0.00  0.00    +0.000 C 
ATOM     19  O   UNL     1       5.248   4.087  14.938  0.00  0.00    +0.000 OA
ENDBRANCH   8  10
BRANCH   3  20
ATOM     20  C   UNL     1       0.499   8.313  20.956  0.00  0.00    +0.000 A 
ATOM     21  C   UNL     1       0.993   9.287  20.069  0.00  0.00    +0.000 A 
ATOM     22  C   UNL     1       0.734  10.647  20.277  0.00  0.00    +0.000 A 
ATOM     23  C   UNL     1      -0.018  10.995  21.374  0.00  0.00    +0.000 A 
ATOM     24  C   UNL     1      -0.536  10.050  22.225  0.00  0.00    +0.000 A 
ATOM     25  C   UNL     1      -0.313   8.703  22.033  0.00  0.00    +0.000 A 
ATOM     26  O   UNL     1      -1.243  10.602  23.248  0.00  0.00    +0.000 OA
ATOM     27  C   UNL     1      -1.033  12.007  22.990  0.00  0.00    +0.000 C 
ATOM     28  O   UNL     1      -0.333  12.263  21.756  0.00  0.00    +0.000 OA
ENDBRANCH   3  20
TORSDOF 2
ENDMDL
MODEL 7
REMARK VINA RESULT:      -7.6      0.958      1.529
REMARK  Name = 
REMARK  2 active torsions:
REMARK  status: ('A' for Active; 'I' for Inactive)
REMARK    1  A    between atoms: N_3  and  C_4
REMARK    2  A    between atoms: C_17  and  C_18
REMARK                            x       y       z     vdW  Elec       q    Type
REMARK                         _______ _______ _______ _____ _____    ______ ____
ROOT
ATOM      1  O   UNL     1       3.906   6.684  19.673  0.00  0.00    +0.000 OA
ATOM      2  C   UNL     1       2.927   5.950  19.572  0.00  0.00    +0.000 C 
ATOM      3  N   UNL     1       1.627   6.350  19.797  0.00  0.00    +0.000 N 
ATOM      4  N   UNL     1       3.067   4.602  19.288  0.00  0.00    +0.000 N 
ATOM      5  C   UNL     1       2.040   3.598  19.070  0.00  0.00    +0.000 C 
ATOM      6  C   UNL     1       2.601   2.374  19.766  0.00  0.00    +0.000 C 
ATOM      7  C   UNL     1       4.099   2.463  19.494  0.00  0.00    +0.000 C 
ATOM      8  C   UNL     1       4.390   3.974  19.365  0.00  0.00    +0.000 C 
ATOM      9  H   UNL     1       0.993   5.621  20.065  0.00  0.00    +0.000 HD
ENDROOT
BRANCH   8  10
ATOM     10  C   UNL     1       5.282   4.272  18.172  0.00  0.00    +0.000 A 
ATOM     11  C   UNL     1       6.553   4.840  18.360  0.00  0.00    +0.000 A 
ATOM     12  C   UNL     1       7.387   5.107  17.269  0.00  0.00    +0.000 A 
ATOM     13  C   UNL     1       6.956   4.814  15.977  0.00  0.00    +0.000 A 
ATOM     14  C   UNL     1       5.708   4.223  15.778  0.00  0.00    +0.000 A 
ATOM     15  C   UNL     1       4.871   3.971  16.863  0.00  0.00    +0.000 A 
ATOM     16  O   UNL     1       5.227   3.865  14.543  0.00  0.00    +0.000 OA
ATOM     17  C   UNL     1       6.261   3.884  13.554  0.00  0.00    +0.000 C 
ATOM     18  C   UNL     1       7.117   5.132  13.695  0.00  0.00    +0.000 C 
ATOM     19  O   UNL     1       7.809   5.127  14.949  0.00  0.00    +0.000 OA
ENDBRANCH   8  10
BRANCH   3  20
ATOM     20  C   UNL     1       1.191   7.653  20.124  0.00  0.00    +0.000 A 
ATOM     21  C   UNL     1       1.454   8.779  19.322  0.00  0.00    +0.000 A 
ATOM     22  C   UNL     1       1.064  10.059  19.732  0.00  0.00    +0.000 A 
ATOM     23  C   UNL     1       0.417  10.177  20.939  0.00  0.00    +0.000 A 
ATOM     24  C   UNL     1       0.122   9.080  21.711  0.00  0.00    +0.000 A 
ATOM     25  C   UNL     1       0.477   7.806  21.324  0.00  0.00    +0.000 A 
ATOM     26  O   UNL     1      -0.515   9.412  22.867  0.00  0.00    +0.000 OA
ATOM     27  C   UNL     1      -0.505  10.852  22.772  0.00  0.00    +0.000 C 
ATOM     28  O   UNL     1       0.004  11.339  21.514  0.00  0.00    +0.000 OA
ENDBRANCH   3  20
TORSDOF 2
ENDMDL
MODEL 8
REMARK VINA RESULT:      -7.6      2.328      8.642
REMARK  Name = 
REMARK  2 active torsions:
REMARK  status: ('A' for Active; 'I' for Inactive)
REMARK    1  A    between atoms: N_3  and  C_4
REMARK    2  A    between atoms: C_17  and  C_18
REMARK                            x       y       z     vdW  Elec       q    Type
REMARK                         _______ _______ _______ _____ _____    ______ ____
ROOT
ATOM      1  O   UNL     1       1.972   8.701  17.412  0.00  0.00    +0.000 OA
ATOM      2  C   UNL     1       2.031   8.244  18.551  0.00  0.00    +0.000 C 
ATOM      3  N   UNL     1       2.668   7.068  18.886  0.00  0.00    +0.000 N 
ATOM      4  N   UNL     1       1.376   8.858  19.605  0.00  0.00    +0.000 N 
ATOM      5  C   UNL     1       1.378   8.509  21.015  0.00  0.00    +0.000 C 
ATOM      6  C   UNL     1      -0.058   8.753  21.433  0.00  0.00    +0.000 C 
ATOM      7  C   UNL     1      -0.461   9.982  20.626  0.00  0.00    +0.000 C 
ATOM      8  C   UNL     1       0.388   9.908  19.338  0.00  0.00    +0.000 C 
ATOM      9  H   UNL     1       2.329   6.616  19.714  0.00  0.00    +0.000 HD
ENDROOT
BRANCH   8  10
ATOM     10  C   UNL     1       1.001  11.255  18.994  0.00  0.00    +0.000 A 
ATOM     11  C   UNL     1       2.210  11.323  18.281  0.00  0.00    +0.000 A 
ATOM     12  C   UNL     1       2.777  12.558  17.947  0.00  0.00    +0.000 A 
ATOM     13  C   UNL     1       2.144  13.738  18.330  0.00  0.00    +0.000 A 
ATOM     14  C   UNL     1       0.928  13.686  19.013  0.00  0.00    +0.000 A 
ATOM     15  C   UNL     1       0.371  12.456  19.358  0.00  0.00    +0.000 A 
ATOM     16  O   UNL     1       0.221  14.801  19.389  0.00  0.00    +0.000 OA
ATOM     17  C   UNL     1       0.712  15.975  18.735  0.00  0.00    +0.000 C 
ATOM     18  C   UNL     1       2.231  16.007  18.755  0.00  0.00    +0.000 C 
ATOM     19  O   UNL     1       2.767  14.915  17.998  0.00  0.00    +0.000 OA
ENDBRANCH   8  10
BRANCH   3  20
ATOM     20  C   UNL     1       3.394   6.225  18.016  0.00  0.00    +0.000 A 
ATOM     21  C   UNL     1       3.039   4.887  17.762  0.00  0.00    +0.000 A 
ATOM     22  C   UNL     1       3.836   4.074  16.949  0.00  0.00    +0.000 A 
ATOM     23  C   UNL     1       4.973   4.626  16.408  0.00  0.00    +0.000 A 
ATOM     24  C   UNL     1       5.309   5.941  16.619  0.00  0.00    +0.000 A 
ATOM     25  C   UNL     1       4.532   6.771  17.399  0.00  0.00    +0.000 A 
ATOM     26  O   UNL     1       6.471   6.287  16.002  0.00  0.00    +0.000 OA
ATOM     27  C   UNL     1       6.872   5.014  15.455  0.00  0.00    +0.000 C 
ATOM     28  O   UNL     1       5.884   3.978  15.633  0.00  0.00    +0.000 OA
ENDBRANCH   3  20
TORSDOF 2
ENDMDL
MODEL 9
REMARK VINA RESULT:      -7.6      1.075      1.228
REMARK  Name = 
REMARK  2 active torsions:
REMARK  status: ('A' for Active; 'I' for Inactive)
REMARK    1  A    between atoms: N_3  and  C_4
REMARK    2  A    between atoms: C_17  and  C_18
REMARK                            x       y       z     vdW  Elec       q    Type
REMARK                         _______ _______ _______ _____ _____    ______ ____
ROOT
ATOM      1  O   UNL     1       4.024   7.146  18.773  0.00  0.00    +0.000 OA
ATOM      2  C   UNL     1       2.924   6.665  18.509  0.00  0.00    +0.000 C 
ATOM      3  N   UNL     1       1.727   7.333  18.656  0.00  0.00    +0.000 N 
ATOM      4  N   UNL     1       2.795   5.348  18.104  0.00  0.00    +0.000 N 
ATOM      5  C   UNL     1       1.604   4.626  17.694  0.00  0.00    +0.000 C 
ATOM      6  C   UNL     1       1.802   3.255  18.310  0.00  0.00    +0.000 C 
ATOM      7  C   UNL     1       3.303   3.020  18.185  0.00  0.00    +0.000 C 
ATOM      8  C   UNL     1       3.932   4.430  18.236  0.00  0.00    +0.000 C 
ATOM      9  H   UNL     1       0.923   6.750  18.790  0.00  0.00    +0.000 HD
ENDROOT
BRANCH   8  10
ATOM     10  C   UNL     1       4.993   4.608  17.164  0.00  0.00    +0.000 A 
ATOM     11  C   UNL     1       6.249   5.147  17.492  0.00  0.00    +0.000 A 
ATOM     12  C   UNL     1       7.238   5.304  16.515  0.00  0.00    +0.000 A 
ATOM     13  C   UNL     1       6.979   4.931  15.198  0.00  0.00    +0.000 A 
ATOM     14  C   UNL     1       5.747   4.368  14.864  0.00  0.00    +0.000 A 
ATOM     15  C   UNL     1       4.757   4.225  15.834  0.00  0.00    +0.000 A 
ATOM     16  O   UNL     1       5.428   3.936  13.601  0.00  0.00    +0.000 OA
ATOM     17  C   UNL     1       6.590   3.847  12.771  0.00  0.00    +0.000 C 
ATOM     18  C   UNL     1       7.471   5.073  12.945  0.00  0.00    +0.000 C 
ATOM     19  O   UNL     1       7.981   5.138  14.283  0.00  0.00    +0.000 OA
ENDBRANCH   8  10
BRANCH   3  20
ATOM     20  C   UNL     1       1.555   8.672  19.073  0.00  0.00    +0.000 A 
ATOM     21  C   UNL     1       0.975   9.029  20.305  0.00  0.00    +0.000 A 
ATOM     22  C   UNL     1       0.759  10.371  20.635  0.00  0.00    +0.000 A 
ATOM     23  C   UNL     1       1.133  11.325  19.718  0.00  0.00    +0.000 A 
ATOM     24  C   UNL     1       1.733  10.989  18.530  0.00  0.00    +0.000 A 
ATOM     25  C   UNL     1       1.976   9.677  18.187  0.00  0.00    +0.000 A 
ATOM     26  O   UNL     1       2.018  12.078  17.765  0.00  0.00    +0.000 OA
ATOM     27  C   UNL     1       1.445  13.129  18.572  0.00  0.00    +0.000 C 
ATOM     28  O   UNL     1       0.962  12.669  19.850  0.00  0.00    +0.000 OA
ENDBRANCH   3  20
TORSDOF 2
ENDMDL
