MODEL 1
REMARK VINA RESULT:      -6.8      0.000      0.000
REMARK  Name = 
REMARK  11 active torsions:
REMARK  status: ('A' for Active; 'I' for Inactive)
REMARK    1  A    between atoms: C_1  and  O_2
REMARK    2  A    between atoms: O_2  and  C_3
REMARK    3  A    between atoms: C_5  and  C_6
REMARK    4  A    between atoms: N_9  and  C_10
REMARK    5  A    between atoms: C_10  and  C_11
REMARK    6  A    between atoms: C_11  and  O_13
REMARK    7  A    between atoms: C_15  and  C_16
REMARK    8  A    between atoms: C_24  and  O_25
REMARK    9  A    between atoms: O_25  and  C_26
REMARK   10  A    between atoms: C_27  and  O_28
REMARK   11  A    between atoms: O_28  and  C_29
REMARK                            x       y       z     vdW  Elec       q    Type
REMARK                         _______ _______ _______ _____ _____    ______ ____
ROOT
ATOM      1  C   UNL     1      -0.709  11.947  18.622  0.00  0.00    +0.000 C 
ATOM      2  C   UNL     1      -0.002  10.891  19.080  0.00  0.00    +0.000 C 
ATOM      3  C   UNL     1      -0.589   9.664  19.730  0.00  0.00    +0.000 C 
ATOM      4  N   UNL     1       0.386   8.968  20.614  0.00  0.00    +0.000 N 
ATOM      5  C   UNL     1       1.433   8.514  19.741  0.00  0.00    +0.000 A 
ATOM      6  C   UNL     1       1.844   7.170  19.760  0.00  0.00    +0.000 A 
ATOM      7  C   UNL     1       1.392   6.196  20.813  0.00  0.00    +0.000 C 
ATOM      8  C   UNL     1       2.723   6.720  18.758  0.00  0.00    +0.000 A 
ATOM      9  C   UNL     1       3.197   7.585  17.765  0.00  0.00    +0.000 A 
ATOM     10  C   UNL     1       2.838   8.930  17.776  0.00  0.00    +0.000 A 
ATOM     11  C   UNL     1       1.959   9.386  18.758  0.00  0.00    +0.000 A 
ATOM     12  C   UNL     1       1.438  10.775  18.702  0.00  0.00    +0.000 C 
ATOM     13  O   UNL     1       2.111  11.706  18.287  0.00  0.00    +0.000 OA
ENDROOT
BRANCH   1  16
ATOM     14  C   UNL     1      -4.402  12.220  19.167  0.00  0.00    +0.000 A 
ATOM     15  C   UNL     1      -3.024  12.141  19.364  0.00  0.00    +0.000 A 
ATOM     16  C   UNL     1      -2.145  11.765  18.342  0.00  0.00    +0.000 A 
ATOM     17  C   UNL     1      -2.676  11.257  17.163  0.00  0.00    +0.000 A 
ATOM     18  C   UNL     1      -4.066  11.237  16.972  0.00  0.00    +0.000 A 
ATOM     19  C   UNL     1      -4.946  11.751  17.959  0.00  0.00    +0.000 A 
BRANCH  14  21
ATOM     20  C   UNL     1      -4.680  12.643  21.485  0.00  0.00    +0.000 C 
ATOM     21  O   UNL     1      -5.217  12.701  20.163  0.00  0.00    +0.000 OA
ENDBRANCH  14  21
BRANCH  18  22
ATOM     22  O   UNL     1      -4.443  10.633  15.800  0.00  0.00    +0.000 OA
ATOM     23  C   UNL     1      -3.397  10.379  14.865  0.00  0.00    +0.000 C 
ENDBRANCH  18  22
BRANCH  19  24
ATOM     24  O   UNL     1      -6.293  11.688  17.705  0.00  0.00    +0.000 OA
ATOM     25  C   UNL     1      -6.889  12.825  17.079  0.00  0.00    +0.000 C 
ENDBRANCH  19  24
ENDBRANCH   1  16
BRANCH   4  26
ATOM     26  C   UNL     1       0.984   9.776  21.731  0.00  0.00    +0.000 C 
BRANCH  26  27
ATOM     27  C   UNL     1      -0.076  10.194  22.745  0.00  0.00    +0.000 C 
ATOM     28  O   UNL     1      -0.376  11.350  23.002  0.00  0.00    +0.000 OA
BRANCH  27  29
ATOM     29  O   UNL     1      -0.621   9.129  23.388  0.00  0.00    +0.000 OA
ATOM     30  H   UNL     1      -1.601   9.198  23.312  0.00  0.00    +0.000 HD
ENDBRANCH  27  29
ENDBRANCH  26  27
ENDBRANCH   4  26
TORSDOF 7
ENDMDL
MODEL 2
REMARK VINA RESULT:      -6.8      0.295      2.452
REMARK  Name = 
REMARK  11 active torsions:
REMARK  status: ('A' for Active; 'I' for Inactive)
REMARK    1  A    between atoms: C_1  and  O_2
REMARK    2  A    between atoms: O_2  and  C_3
REMARK    3  A    between atoms: C_5  and  C_6
REMARK    4  A    between atoms: N_9  and  C_10
REMARK    5  A    between atoms: C_10  and  C_11
REMARK    6  A    between atoms: C_11  and  O_13
REMARK    7  A    between atoms: C_15  and  C_16
REMARK    8  A    between atoms: C_24  and  O_25
REMARK    9  A    between atoms: O_25  and  C_26
REMARK   10  A    between atoms: C_27  and  O_28
REMARK   11  A    between atoms: O_28  and  C_29
REMARK                            x       y       z     vdW  Elec       q    Type
REMARK                         _______ _______ _______ _____ _____    ______ ____
ROOT
ATOM      1  C   UNL     1      -0.656  12.086  18.782  0.00  0.00    +0.000 C 
ATOM      2  C   UNL     1       0.031  11.000  19.200  0.00  0.00    +0.000 C 
ATOM      3  C   UNL     1      -0.571   9.795  19.878  0.00  0.00    +0.000 C 
ATOM      4  N   UNL     1       0.421   9.057  20.709  0.00  0.00    +0.000 N 
ATOM      5  C   UNL     1       1.401   8.565  19.781  0.00  0.00    +0.000 A 
ATOM      6  C   UNL     1       1.759   7.206  19.776  0.00  0.00    +0.000 A 
ATOM      7  C   UNL     1       1.323   6.246  20.849  0.00  0.00    +0.000 C 
ATOM      8  C   UNL     1       2.565   6.724  18.729  0.00  0.00    +0.000 A 
ATOM      9  C   UNL     1       3.021   7.573  17.714  0.00  0.00    +0.000 A 
ATOM     10  C   UNL     1       2.717   8.932  17.747  0.00  0.00    +0.000 A 
ATOM     11  C   UNL     1       1.910   9.419  18.774  0.00  0.00    +0.000 A 
ATOM     12  C   UNL     1       1.443  10.828  18.748  0.00  0.00    +0.000 C 
ATOM     13  O   UNL     1       2.130  11.733  18.300  0.00  0.00    +0.000 OA
ENDROOT
BRANCH   1  16
ATOM     14  C   UNL     1      -3.839  11.202  17.022  0.00  0.00    +0.000 A 
ATOM     15  C   UNL     1      -2.521  11.559  17.301  0.00  0.00    +0.000 A 
ATOM     16  C   UNL     1      -2.111  11.962  18.577  0.00  0.00    +0.000 A 
ATOM     17  C   UNL     1      -3.082  12.212  19.538  0.00  0.00    +0.000 A 
ATOM     18  C   UNL     1      -4.432  11.951  19.256  0.00  0.00    +0.000 A 
ATOM     19  C   UNL     1      -4.824  11.408  18.003  0.00  0.00    +0.000 A 
BRANCH  14  21
ATOM     20  C   UNL     1      -3.080  10.389  14.927  0.00  0.00    +0.000 C 
ATOM     21  O   UNL     1      -4.175  10.706  15.786  0.00  0.00    +0.000 OA
ENDBRANCH  14  21
BRANCH  18  22
ATOM     22  O   UNL     1      -5.280  12.323  20.267  0.00  0.00    +0.000 OA
ATOM     23  C   UNL     1      -4.669  12.945  21.395  0.00  0.00    +0.000 C 
ENDBRANCH  18  22
BRANCH  19  24
ATOM     24  O   UNL     1      -6.162  11.188  17.797  0.00  0.00    +0.000 OA
ATOM     25  C   UNL     1      -6.958  12.317  17.437  0.00  0.00    +0.000 C 
ENDBRANCH  19  24
ENDBRANCH   1  16
BRANCH   4  26
ATOM     26  C   UNL     1       1.108   9.836  21.794  0.00  0.00    +0.000 C 
BRANCH  26  27
ATOM     27  C   UNL     1       0.124  10.271  22.877  0.00  0.00    +0.000 C 
ATOM     28  O   UNL     1      -0.408  11.368  22.933  0.00  0.00    +0.000 OA
BRANCH  27  29
ATOM     29  O   UNL     1      -0.057   9.311  23.821  0.00  0.00    +0.000 OA
ATOM     30  H   UNL     1       0.762   8.766  23.860  0.00  0.00    +0.000 HD
ENDBRANCH  27  29
ENDBRANCH  26  27
ENDBRANCH   4  26
TORSDOF 7
ENDMDL
MODEL 3
REMARK VINA RESULT:      -6.3      2.294      4.400
REMARK  Name = 
REMARK  11 active torsions:
REMARK  status: ('A' for Active; 'I' for Inactive)
REMARK    1  A    between atoms: C_1  and  O_2
REMARK    2  A    between atoms: O_2  and  C_3
REMARK    3  A    between atoms: C_5  and  C_6
REMARK    4  A    between atoms: N_9  and  C_10
REMARK    5  A    between atoms: C_10  and  C_11
REMARK    6  A    between atoms: C_11  and  O_13
REMARK    7  A    between atoms: C_15  and  C_16
REMARK    8  A    between atoms: C_24  and  O_25
REMARK    9  A    between atoms: O_25  and  C_26
REMARK   10  A    between atoms: C_27  and  O_28
REMARK   11  A    between atoms: O_28  and  C_29
REMARK                            x       y       z     vdW  Elec       q    Type
REMARK                         _______ _______ _______ _____ _____    ______ ____
ROOT
ATOM      1  C   UNL     1      -1.809  13.207  22.470  0.00  0.00    +0.000 C 
ATOM      2  C   UNL     1      -0.871  12.598  21.712  0.00  0.00    +0.000 C 
ATOM      3  C   UNL     1      -1.116  11.426  20.796  0.00  0.00    +0.000 C 
ATOM      4  N   UNL     1       0.119  10.631  20.549  0.00  0.00    +0.000 N 
ATOM      5  C   UNL     1       1.011  11.520  19.857  0.00  0.00    +0.000 A 
ATOM      6  C   UNL     1       1.612  11.127  18.649  0.00  0.00    +0.000 A 
ATOM      7  C   UNL     1       1.546   9.718  18.127  0.00  0.00    +0.000 C 
ATOM      8  C   UNL     1       2.314  12.091  17.901  0.00  0.00    +0.000 A 
ATOM      9  C   UNL     1       2.430  13.412  18.345  0.00  0.00    +0.000 A 
ATOM     10  C   UNL     1       1.884  13.791  19.569  0.00  0.00    +0.000 A 
ATOM     11  C   UNL     1       1.178  12.849  20.314  0.00  0.00    +0.000 A 
ATOM     12  C   UNL     1       0.455  13.262  21.544  0.00  0.00    +0.000 C 
ATOM     13  O   UNL     1       0.877  14.139  22.282  0.00  0.00    +0.000 OA
ENDROOT
BRANCH   1  16
ATOM     14  C   UNL     1      -4.786  12.764  20.245  0.00  0.00    +0.000 A 
ATOM     15  C   UNL     1      -3.534  13.114  20.748  0.00  0.00    +0.000 A 
ATOM     16  C   UNL     1      -3.228  13.029  22.112  0.00  0.00    +0.000 A 
ATOM     17  C   UNL     1      -4.260  12.788  23.010  0.00  0.00    +0.000 A 
ATOM     18  C   UNL     1      -5.554  12.524  22.536  0.00  0.00    +0.000 A 
ATOM     19  C   UNL     1      -5.826  12.474  21.144  0.00  0.00    +0.000 A 
BRANCH  14  21
ATOM     20  C   UNL     1      -4.509  11.617  18.186  0.00  0.00    +0.000 C 
ATOM     21  O   UNL     1      -5.009  12.755  18.889  0.00  0.00    +0.000 OA
ENDBRANCH  14  21
BRANCH  18  22
ATOM     22  O   UNL     1      -6.481  12.388  23.538  0.00  0.00    +0.000 OA
ATOM     23  C   UNL     1      -7.084  13.596  23.996  0.00  0.00    +0.000 C 
ENDBRANCH  18  22
BRANCH  19  24
ATOM     24  O   UNL     1      -7.117  12.219  20.757  0.00  0.00    +0.000 OA
ATOM     25  C   UNL     1      -7.469  10.854  20.527  0.00  0.00    +0.000 C 
ENDBRANCH  19  24
ENDBRANCH   1  16
BRANCH   4  26
ATOM     26  C   UNL     1       0.814  10.068  21.756  0.00  0.00    +0.000 C 
BRANCH  26  27
ATOM     27  C   UNL     1      -0.118   9.175  22.570  0.00  0.00    +0.000 C 
ATOM     28  O   UNL     1      -0.742   8.227  22.120  0.00  0.00    +0.000 OA
BRANCH  27  29
ATOM     29  O   UNL     1      -0.229   9.588  23.859  0.00  0.00    +0.000 OA
ATOM     30  H   UNL     1      -1.129   9.970  23.979  0.00  0.00    +0.000 HD
ENDBRANCH  27  29
ENDBRANCH  26  27
ENDBRANCH   4  26
TORSDOF 7
ENDMDL
MODEL 4
REMARK VINA RESULT:      -6.1      4.163      6.939
REMARK  Name = 
REMARK  11 active torsions:
REMARK  status: ('A' for Active; 'I' for Inactive)
REMARK    1  A    between atoms: C_1  and  O_2
REMARK    2  A    between atoms: O_2  and  C_3
REMARK    3  A    between atoms: C_5  and  C_6
REMARK    4  A    between atoms: N_9  and  C_10
REMARK    5  A    between atoms: C_10  and  C_11
REMARK    6  A    between atoms: C_11  and  O_13
REMARK    7  A    between atoms: C_15  and  C_16
REMARK    8  A    between atoms: C_24  and  O_25
REMARK    9  A    between atoms: O_25  and  C_26
REMARK   10  A    between atoms: C_27  and  O_28
REMARK   11  A    between atoms: O_28  and  C_29
REMARK                            x       y       z     vdW  Elec       q    Type
REMARK                         _______ _______ _______ _____ _____    ______ ____
ROOT
ATOM      1  C   UNL     1       3.262   6.010  20.094  0.00  0.00    +0.000 C 
ATOM      2  C   UNL     1       3.782   5.390  19.012  0.00  0.00    +0.000 C 
ATOM      3  C   UNL     1       3.219   5.454  17.616  0.00  0.00    +0.000 C 
ATOM      4  N   UNL     1       3.618   4.282  16.788  0.00  0.00    +0.000 N 
ATOM      5  C   UNL     1       5.046   4.373  16.665  0.00  0.00    +0.000 A 
ATOM      6  C   UNL     1       5.657   4.319  15.400  0.00  0.00    +0.000 A 
ATOM      7  C   UNL     1       4.908   3.951  14.150  0.00  0.00    +0.000 C 
ATOM      8  C   UNL     1       7.030   4.614  15.301  0.00  0.00    +0.000 A 
ATOM      9  C   UNL     1       7.786   4.941  16.432  0.00  0.00    +0.000 A 
ATOM     10  C   UNL     1       7.197   4.939  17.694  0.00  0.00    +0.000 A 
ATOM     11  C   UNL     1       5.836   4.660  17.804  0.00  0.00    +0.000 A 
ATOM     12  C   UNL     1       5.151   4.803  19.113  0.00  0.00    +0.000 C 
ATOM     13  O   UNL     1       5.709   4.553  20.171  0.00  0.00    +0.000 OA
ENDROOT
BRANCH   1  16
ATOM     14  C   UNL     1       0.536   8.452  20.882  0.00  0.00    +0.000 A 
ATOM     15  C   UNL     1       1.338   7.313  20.838  0.00  0.00    +0.000 A 
ATOM     16  C   UNL     1       2.347   7.147  19.882  0.00  0.00    +0.000 A 
ATOM     17  C   UNL     1       2.413   8.044  18.824  0.00  0.00    +0.000 A 
ATOM     18  C   UNL     1       1.554   9.154  18.791  0.00  0.00    +0.000 A 
ATOM     19  C   UNL     1       0.626   9.390  19.840  0.00  0.00    +0.000 A 
BRANCH  14  21
ATOM     20  C   UNL     1       0.076   9.439  22.989  0.00  0.00    +0.000 C 
ATOM     21  O   UNL     1      -0.366   8.624  21.903  0.00  0.00    +0.000 OA
ENDBRANCH  14  21
BRANCH  18  22
ATOM     22  O   UNL     1       1.678   9.902  17.649  0.00  0.00    +0.000 OA
ATOM     23  C   UNL     1       2.350  11.151  17.793  0.00  0.00    +0.000 C 
ENDBRANCH  18  22
BRANCH  19  24
ATOM     24  O   UNL     1      -0.186  10.490  19.734  0.00  0.00    +0.000 OA
ATOM     25  C   UNL     1      -1.362  10.354  18.935  0.00  0.00    +0.000 C 
ENDBRANCH  19  24
ENDBRANCH   1  16
BRANCH   4  26
ATOM     26  C   UNL     1       3.249   2.924  17.316  0.00  0.00    +0.000 C 
BRANCH  26  27
ATOM     27  C   UNL     1       1.803   2.889  17.801  0.00  0.00    +0.000 C 
ATOM     28  O   UNL     1       0.953   3.717  17.516  0.00  0.00    +0.000 OA
BRANCH  27  29
ATOM     29  O   UNL     1       1.571   1.852  18.647  0.00  0.00    +0.000 OA
ATOM     30  H   UNL     1       2.438   1.446  18.875  0.00  0.00    +0.000 HD
ENDBRANCH  27  29
ENDBRANCH  26  27
ENDBRANCH   4  26
TORSDOF 7
ENDMDL
MODEL 5
REMARK VINA RESULT:      -5.9      3.252      7.801
REMARK  Name = 
REMARK  11 active torsions:
REMARK  status: ('A' for Active; 'I' for Inactive)
REMARK    1  A    between atoms: C_1  and  O_2
REMARK    2  A    between atoms: O_2  and  C_3
REMARK    3  A    between atoms: C_5  and  C_6
REMARK    4  A    between atoms: N_9  and  C_10
REMARK    5  A    between atoms: C_10  and  C_11
REMARK    6  A    between atoms: C_11  and  O_13
REMARK    7  A    between atoms: C_15  and  C_16
REMARK    8  A    between atoms: C_24  and  O_25
REMARK    9  A    between atoms: O_25  and  C_26
REMARK   10  A    between atoms: C_27  and  O_28
REMARK   11  A    between atoms: O_28  and  C_29
REMARK                            x       y       z     vdW  Elec       q    Type
REMARK                         _______ _______ _______ _____ _____    ______ ____
ROOT
ATOM      1  C   UNL     1       1.678   8.277  21.455  0.00  0.00    +0.000 C 
ATOM      2  C   UNL     1       1.134   9.424  20.994  0.00  0.00    +0.000 C 
ATOM      3  C   UNL     1       0.969   9.789  19.541  0.00  0.00    +0.000 C 
ATOM      4  N   UNL     1       0.889  11.262  19.331  0.00  0.00    +0.000 N 
ATOM      5  C   UNL     1      -0.311  11.676  20.002  0.00  0.00    +0.000 A 
ATOM      6  C   UNL     1      -1.273  12.448  19.328  0.00  0.00    +0.000 A 
ATOM      7  C   UNL     1      -1.025  13.062  17.978  0.00  0.00    +0.000 C 
ATOM      8  C   UNL     1      -2.519  12.663  19.947  0.00  0.00    +0.000 A 
ATOM      9  C   UNL     1      -2.801  12.137  21.213  0.00  0.00    +0.000 A 
ATOM     10  C   UNL     1      -1.830  11.421  21.908  0.00  0.00    +0.000 A 
ATOM     11  C   UNL     1      -0.596  11.193  21.301  0.00  0.00    +0.000 A 
ATOM     12  C   UNL     1       0.399  10.303  21.951  0.00  0.00    +0.000 C 
ATOM     13  O   UNL     1       0.519  10.239  23.165  0.00  0.00    +0.000 OA
ENDROOT
BRANCH   1  16
ATOM     14  C   UNL     1       2.743   6.274  18.478  0.00  0.00    +0.000 A 
ATOM     15  C   UNL     1       2.419   7.324  19.336  0.00  0.00    +0.000 A 
ATOM     16  C   UNL     1       1.749   7.117  20.547  0.00  0.00    +0.000 A 
ATOM     17  C   UNL     1       1.209   5.863  20.801  0.00  0.00    +0.000 A 
ATOM     18  C   UNL     1       1.439   4.806  19.907  0.00  0.00    +0.000 A 
ATOM     19  C   UNL     1       2.240   4.991  18.749  0.00  0.00    +0.000 A 
BRANCH  14  21
ATOM     20  C   UNL     1       4.914   6.431  17.533  0.00  0.00    +0.000 C 
ATOM     21  O   UNL     1       3.499   6.507  17.355  0.00  0.00    +0.000 OA
ENDBRANCH  14  21
BRANCH  18  22
ATOM     22  O   UNL     1       0.777   3.654  20.246  0.00  0.00    +0.000 OA
ATOM     23  C   UNL     1       1.366   2.882  21.289  0.00  0.00    +0.000 C 
ENDBRANCH  18  22
BRANCH  19  24
ATOM     24  O   UNL     1       2.413   3.914  17.917  0.00  0.00    +0.000 OA
ATOM     25  C   UNL     1       3.517   3.052  18.192  0.00  0.00    +0.000 C 
ENDBRANCH  19  24
ENDBRANCH   1  16
BRANCH   4  26
ATOM     26  C   UNL     1       2.048  12.079  19.829  0.00  0.00    +0.000 C 
BRANCH  26  27
ATOM     27  C   UNL     1       2.576  13.015  18.746  0.00  0.00    +0.000 C 
ATOM     28  O   UNL     1       2.955  14.159  18.941  0.00  0.00    +0.000 OA
BRANCH  27  29
ATOM     29  O   UNL     1       2.526  12.453  17.511  0.00  0.00    +0.000 OA
ATOM     30  H   UNL     1       3.446  12.229  17.242  0.00  0.00    +0.000 HD
ENDBRANCH  27  29
ENDBRANCH  26  27
ENDBRANCH   4  26
TORSDOF 7
ENDMDL
MODEL 6
REMARK VINA RESULT:      -5.8      2.962      7.819
REMARK  Name = 
REMARK  11 active torsions:
REMARK  status: ('A' for Active; 'I' for Inactive)
REMARK    1  A    between atoms: C_1  and  O_2
REMARK    2  A    between atoms: O_2  and  C_3
REMARK    3  A    between atoms: C_5  and  C_6
REMARK    4  A    between atoms: N_9  and  C_10
REMARK    5  A    between atoms: C_10  and  C_11
REMARK    6  A    between atoms: C_11  and  O_13
REMARK    7  A    between atoms: C_15  and  C_16
REMARK    8  A    between atoms: C_24  and  O_25
REMARK    9  A    between atoms: O_25  and  C_26
REMARK   10  A    between atoms: C_27  and  O_28
REMARK   11  A    between atoms: O_28  and  C_29
REMARK                            x       y       z     vdW  Elec       q    Type
REMARK                         _______ _______ _______ _____ _____    ______ ____
ROOT
ATOM      1  C   UNL     1       2.616   9.291  17.700  0.00  0.00    +0.000 C 
ATOM      2  C   UNL     1       1.700  10.058  18.331  0.00  0.00    +0.000 C 
ATOM      3  C   UNL     1       0.595   9.546  19.219  0.00  0.00    +0.000 C 
ATOM      4  N   UNL     1      -0.551  10.494  19.303  0.00  0.00    +0.000 N 
ATOM      5  C   UNL     1      -0.024  11.671  19.934  0.00  0.00    +0.000 A 
ATOM      6  C   UNL     1      -0.664  12.226  21.056  0.00  0.00    +0.000 A 
ATOM      7  C   UNL     1      -2.020  11.776  21.523  0.00  0.00    +0.000 C 
ATOM      8  C   UNL     1      -0.012  13.251  21.766  0.00  0.00    +0.000 A 
ATOM      9  C   UNL     1       1.241  13.729  21.366  0.00  0.00    +0.000 A 
ATOM     10  C   UNL     1       1.852  13.222  20.222  0.00  0.00    +0.000 A 
ATOM     11  C   UNL     1       1.222  12.199  19.516  0.00  0.00    +0.000 A 
ATOM     12  C   UNL     1       1.920  11.534  18.387  0.00  0.00    +0.000 C 
ATOM     13  O   UNL     1       2.679  12.139  17.645  0.00  0.00    +0.000 OA
ENDROOT
BRANCH   1  16
ATOM     14  C   UNL     1       4.259   5.937  17.961  0.00  0.00    +0.000 A 
ATOM     15  C   UNL     1       3.787   7.161  17.489  0.00  0.00    +0.000 A 
ATOM     16  C   UNL     1       2.849   7.922  18.197  0.00  0.00    +0.000 A 
ATOM     17  C   UNL     1       2.217   7.346  19.291  0.00  0.00    +0.000 A 
ATOM     18  C   UNL     1       2.605   6.072  19.735  0.00  0.00    +0.000 A 
ATOM     19  C   UNL     1       3.657   5.365  19.095  0.00  0.00    +0.000 A 
BRANCH  14  21
ATOM     20  C   UNL     1       6.459   6.025  17.078  0.00  0.00    +0.000 C 
ATOM     21  O   UNL     1       5.261   5.278  17.292  0.00  0.00    +0.000 OA
ENDBRANCH  14  21
BRANCH  18  22
ATOM     22  O   UNL     1       1.839   5.601  20.770  0.00  0.00    +0.000 OA
ATOM     23  C   UNL     1       0.883   4.600  20.431  0.00  0.00    +0.000 C 
ENDBRANCH  18  22
BRANCH  19  24
ATOM     24  O   UNL     1       3.975   4.122  19.579  0.00  0.00    +0.000 OA
ATOM     25  C   UNL     1       3.573   2.998  18.797  0.00  0.00    +0.000 C 
ENDBRANCH  19  24
ENDBRANCH   1  16
BRANCH   4  26
ATOM     26  C   UNL     1      -1.210  10.874  18.008  0.00  0.00    +0.000 C 
BRANCH  26  27
ATOM     27  C   UNL     1      -2.724  10.702  18.081  0.00  0.00    +0.000 C 
ATOM     28  O   UNL     1      -3.312   9.644  17.926  0.00  0.00    +0.000 OA
BRANCH  27  29
ATOM     29  O   UNL     1      -3.366  11.882  18.282  0.00  0.00    +0.000 OA
ATOM     30  H   UNL     1      -3.261  12.127  19.230  0.00  0.00    +0.000 HD
ENDBRANCH  27  29
ENDBRANCH  26  27
ENDBRANCH   4  26
TORSDOF 7
ENDMDL
MODEL 7
REMARK VINA RESULT:      -5.7      4.052      6.903
REMARK  Name = 
REMARK  11 active torsions:
REMARK  status: ('A' for Active; 'I' for Inactive)
REMARK    1  A    between atoms: C_1  and  O_2
REMARK    2  A    between atoms: O_2  and  C_3
REMARK    3  A    between atoms: C_5  and  C_6
REMARK    4  A    between atoms: N_9  and  C_10
REMARK    5  A    between atoms: C_10  and  C_11
REMARK    6  A    between atoms: C_11  and  O_13
REMARK    7  A    between atoms: C_15  and  C_16
REMARK    8  A    between atoms: C_24  and  O_25
REMARK    9  A    between atoms: O_25  and  C_26
REMARK   10  A    between atoms: C_27  and  O_28
REMARK   11  A    between atoms: O_28  and  C_29
REMARK                            x       y       z     vdW  Elec       q    Type
REMARK                         _______ _______ _______ _____ _____    ______ ____
ROOT
ATOM      1  C   UNL     1       1.272   7.748  18.080  0.00  0.00    +0.000 C 
ATOM      2  C   UNL     1       2.321   6.896  18.088  0.00  0.00    +0.000 C 
ATOM      3  C   UNL     1       3.699   7.215  18.609  0.00  0.00    +0.000 C 
ATOM      4  N   UNL     1       4.750   6.354  17.998  0.00  0.00    +0.000 N 
ATOM      5  C   UNL     1       4.443   5.018  18.427  0.00  0.00    +0.000 A 
ATOM      6  C   UNL     1       5.429   4.220  19.032  0.00  0.00    +0.000 A 
ATOM      7  C   UNL     1       6.881   4.610  19.069  0.00  0.00    +0.000 C 
ATOM      8  C   UNL     1       5.043   3.001  19.619  0.00  0.00    +0.000 A 
ATOM      9  C   UNL     1       3.711   2.573  19.595  0.00  0.00    +0.000 A 
ATOM     10  C   UNL     1       2.741   3.333  18.947  0.00  0.00    +0.000 A 
ATOM     11  C   UNL     1       3.109   4.548  18.371  0.00  0.00    +0.000 A 
ATOM     12  C   UNL     1       2.071   5.451  17.811  0.00  0.00    +0.000 C 
ATOM     13  O   UNL     1       1.064   5.025  17.266  0.00  0.00    +0.000 OA
ENDROOT
BRANCH   1  16
ATOM     14  C   UNL     1       1.303  11.355  19.077  0.00  0.00    +0.000 A 
ATOM     15  C   UNL     1       1.462  10.162  18.376  0.00  0.00    +0.000 A 
ATOM     16  C   UNL     1       1.303   8.911  18.985  0.00  0.00    +0.000 A 
ATOM     17  C   UNL     1       1.188   8.857  20.368  0.00  0.00    +0.000 A 
ATOM     18  C   UNL     1       1.119  10.044  21.113  0.00  0.00    +0.000 A 
ATOM     19  C   UNL     1       1.141  11.311  20.472  0.00  0.00    +0.000 A 
BRANCH  14  21
ATOM     20  C   UNL     1       2.667  13.093  18.210  0.00  0.00    +0.000 C 
ATOM     21  O   UNL     1       1.359  12.558  18.417  0.00  0.00    +0.000 OA
ENDBRANCH  14  21
BRANCH  18  22
ATOM     22  O   UNL     1       1.091   9.834  22.468  0.00  0.00    +0.000 OA
ATOM     23  C   UNL     1      -0.192   9.571  23.031  0.00  0.00    +0.000 C 
ENDBRANCH  18  22
BRANCH  19  24
ATOM     24  O   UNL     1       1.079  12.427  21.267  0.00  0.00    +0.000 OA
ATOM     25  C   UNL     1      -0.213  12.988  21.498  0.00  0.00    +0.000 C 
ENDBRANCH  19  24
ENDBRANCH   1  16
BRANCH   4  26
ATOM     26  C   UNL     1       4.861   6.384  16.500  0.00  0.00    +0.000 C 
BRANCH  26  27
ATOM     27  C   UNL     1       6.186   5.794  16.027  0.00  0.00    +0.000 C 
ATOM     28  O   UNL     1       6.309   4.711  15.478  0.00  0.00    +0.000 OA
BRANCH  27  29
ATOM     29  O   UNL     1       7.243   6.589  16.339  0.00  0.00    +0.000 OA
ATOM     30  H   UNL     1       7.252   6.712  17.316  0.00  0.00    +0.000 HD
ENDBRANCH  27  29
ENDBRANCH  26  27
ENDBRANCH   4  26
TORSDOF 7
ENDMDL
MODEL 8
REMARK VINA RESULT:      -5.6      3.129      4.472
REMARK  Name = 
REMARK  11 active torsions:
REMARK  status: ('A' for Active; 'I' for Inactive)
REMARK    1  A    between atoms: C_1  and  O_2
REMARK    2  A    between atoms: O_2  and  C_3
REMARK    3  A    between atoms: C_5  and  C_6
REMARK    4  A    between atoms: N_9  and  C_10
REMARK    5  A    between atoms: C_10  and  C_11
REMARK    6  A    between atoms: C_11  and  O_13
REMARK    7  A    between atoms: C_15  and  C_16
REMARK    8  A    between atoms: C_24  and  O_25
REMARK    9  A    between atoms: O_25  and  C_26
REMARK   10  A    between atoms: C_27  and  O_28
REMARK   11  A    between atoms: O_28  and  C_29
REMARK                            x       y       z     vdW  Elec       q    Type
REMARK                         _______ _______ _______ _____ _____    ______ ____
ROOT
ATOM      1  C   UNL     1      -1.187  13.864  22.535  0.00  0.00    +0.000 C 
ATOM      2  C   UNL     1      -0.440  13.059  21.748  0.00  0.00    +0.000 C 
ATOM      3  C   UNL     1      -0.972  11.935  20.897  0.00  0.00    +0.000 C 
ATOM      4  N   UNL     1       0.063  10.902  20.609  0.00  0.00    +0.000 N 
ATOM      5  C   UNL     1       1.065  11.576  19.831  0.00  0.00    +0.000 A 
ATOM      6  C   UNL     1       1.496  11.037  18.606  0.00  0.00    +0.000 A 
ATOM      7  C   UNL     1       1.119   9.656  18.146  0.00  0.00    +0.000 C 
ATOM      8  C   UNL     1       2.324  11.820  17.779  0.00  0.00    +0.000 A 
ATOM      9  C   UNL     1       2.728  13.104  18.163  0.00  0.00    +0.000 A 
ATOM     10  C   UNL     1       2.350  13.618  19.401  0.00  0.00    +0.000 A 
ATOM     11  C   UNL     1       1.522  12.856  20.223  0.00  0.00    +0.000 A 
ATOM     12  C   UNL     1       0.977  13.440  21.476  0.00  0.00    +0.000 C 
ATOM     13  O   UNL     1       1.612  14.235  22.152  0.00  0.00    +0.000 OA
ENDROOT
BRANCH   1  16
ATOM     14  C   UNL     1      -4.347  15.211  21.048  0.00  0.00    +0.000 A 
ATOM     15  C   UNL     1      -3.052  15.088  21.549  0.00  0.00    +0.000 A 
ATOM     16  C   UNL     1      -2.634  13.963  22.269  0.00  0.00    +0.000 A 
ATOM     17  C   UNL     1      -3.590  13.040  22.672  0.00  0.00    +0.000 A 
ATOM     18  C   UNL     1      -4.924  13.187  22.261  0.00  0.00    +0.000 A 
ATOM     19  C   UNL     1      -5.313  14.258  21.413  0.00  0.00    +0.000 A 
BRANCH  14  21
ATOM     20  C   UNL     1      -3.663  17.262  20.071  0.00  0.00    +0.000 C 
ATOM     21  O   UNL     1      -4.683  16.279  20.253  0.00  0.00    +0.000 OA
ENDBRANCH  14  21
BRANCH  18  22
ATOM     22  O   UNL     1      -5.766  12.250  22.804  0.00  0.00    +0.000 OA
ATOM     23  C   UNL     1      -6.433  12.633  24.003  0.00  0.00    +0.000 C 
ENDBRANCH  18  22
BRANCH  19  24
ATOM     24  O   UNL     1      -6.636  14.341  21.060  0.00  0.00    +0.000 OA
ATOM     25  C   UNL     1      -7.033  13.664  19.868  0.00  0.00    +0.000 C 
ENDBRANCH  19  24
ENDBRANCH   1  16
BRANCH   4  26
ATOM     26  C   UNL     1       0.710  10.246  21.795  0.00  0.00    +0.000 C 
BRANCH  26  27
ATOM     27  C   UNL     1      -0.259   9.314  22.516  0.00  0.00    +0.000 C 
ATOM     28  O   UNL     1      -0.774   8.326  22.017  0.00  0.00    +0.000 OA
BRANCH  27  29
ATOM     29  O   UNL     1      -0.542   9.740  23.774  0.00  0.00    +0.000 OA
ATOM     30  H   UNL     1      -1.067  10.570  23.703  0.00  0.00    +0.000 HD
ENDBRANCH  27  29
ENDBRANCH  26  27
ENDBRANCH   4  26
TORSDOF 7
ENDMDL
MODEL 9
REMARK VINA RESULT:      -5.6      2.273      3.756
REMARK  Name = 
REMARK  11 active torsions:
REMARK  status: ('A' for Active; 'I' for Inactive)
REMARK    1  A    between atoms: C_1  and  O_2
REMARK    2  A    between atoms: O_2  and  C_3
REMARK    3  A    between atoms: C_5  and  C_6
REMARK    4  A    between atoms: N_9  and  C_10
REMARK    5  A    between atoms: C_10  and  C_11
REMARK    6  A    between atoms: C_11  and  O_13
REMARK    7  A    between atoms: C_15  and  C_16
REMARK    8  A    between atoms: C_24  and  O_25
REMARK    9  A    between atoms: O_25  and  C_26
REMARK   10  A    between atoms: C_27  and  O_28
REMARK   11  A    between atoms: O_28  and  C_29
REMARK                            x       y       z     vdW  Elec       q    Type
REMARK                         _______ _______ _______ _____ _____    ______ ____
ROOT
ATOM      1  C   UNL     1      -1.963  13.164  22.157  0.00  0.00    +0.000 C 
ATOM      2  C   UNL     1      -0.954  12.599  21.458  0.00  0.00    +0.000 C 
ATOM      3  C   UNL     1      -1.104  11.482  20.458  0.00  0.00    +0.000 C 
ATOM      4  N   UNL     1       0.153  10.702  20.285  0.00  0.00    +0.000 N 
ATOM      5  C   UNL     1       1.102  11.628  19.734  0.00  0.00    +0.000 A 
ATOM      6  C   UNL     1       1.819  11.305  18.569  0.00  0.00    +0.000 A 
ATOM      7  C   UNL     1       1.810   9.929  17.964  0.00  0.00    +0.000 C 
ATOM      8  C   UNL     1       2.584  12.310  17.948  0.00  0.00    +0.000 A 
ATOM      9  C   UNL     1       2.651  13.603  18.477  0.00  0.00    +0.000 A 
ATOM     10  C   UNL     1       1.988  13.912  19.662  0.00  0.00    +0.000 A 
ATOM     11  C   UNL     1       1.219  12.928  20.281  0.00  0.00    +0.000 A 
ATOM     12  C   UNL     1       0.379  13.271  21.457  0.00  0.00    +0.000 C 
ATOM     13  O   UNL     1       0.724  14.104  22.282  0.00  0.00    +0.000 OA
ENDROOT
BRANCH   1  16
ATOM     14  C   UNL     1      -5.705  13.232  22.238  0.00  0.00    +0.000 A 
ATOM     15  C   UNL     1      -4.362  13.148  22.601  0.00  0.00    +0.000 A 
ATOM     16  C   UNL     1      -3.341  13.007  21.654  0.00  0.00    +0.000 A 
ATOM     17  C   UNL     1      -3.690  12.735  20.337  0.00  0.00    +0.000 A 
ATOM     18  C   UNL     1      -5.041  12.719  19.959  0.00  0.00    +0.000 A 
ATOM     19  C   UNL     1      -6.066  13.002  20.900  0.00  0.00    +0.000 A 
BRANCH  14  21
ATOM     20  C   UNL     1      -6.669  14.803  23.732  0.00  0.00    +0.000 C 
ATOM     21  O   UNL     1      -6.664  13.482  23.189  0.00  0.00    +0.000 OA
ENDBRANCH  14  21
BRANCH  18  22
ATOM     22  O   UNL     1      -5.234  12.356  18.651  0.00  0.00    +0.000 OA
ATOM     23  C   UNL     1      -4.179  11.608  18.050  0.00  0.00    +0.000 C 
ENDBRANCH  18  22
BRANCH  19  24
ATOM     24  O   UNL     1      -7.364  12.960  20.458  0.00  0.00    +0.000 OA
ATOM     25  C   UNL     1      -7.915  14.173  19.945  0.00  0.00    +0.000 C 
ENDBRANCH  19  24
ENDBRANCH   1  16
BRANCH   4  26
ATOM     26  C   UNL     1       0.731  10.070  21.520  0.00  0.00    +0.000 C 
BRANCH  26  27
ATOM     27  C   UNL     1       0.438   8.574  21.570  0.00  0.00    +0.000 C 
ATOM     28  O   UNL     1      -0.648   8.087  21.841  0.00  0.00    +0.000 OA
BRANCH  27  29
ATOM     29  O   UNL     1       1.546   7.824  21.335  0.00  0.00    +0.000 OA
ATOM     30  H   UNL     1       1.742   7.868  20.371  0.00  0.00    +0.000 HD
ENDBRANCH  27  29
ENDBRANCH  26  27
ENDBRANCH   4  26
TORSDOF 7
ENDMDL
