MODEL 1
REMARK VINA RESULT:      -7.0      0.000      0.000
REMARK  Name = 
REMARK  7 active torsions:
REMARK  status: ('A' for Active; 'I' for Inactive)
REMARK    1  A    between atoms: C_1  and  C_2
REMARK    2  A    between atoms: C_2  and  C_3
REMARK    3  A    between atoms: C_6  and  N_7
REMARK    4  A    between atoms: C_9  and  C_10
REMARK    5  A    between atoms: C_12  and  C_13
REMARK    6  A    between atoms: N_18  and  C_19
REMARK    7  A    between atoms: C_28  and  C_29
REMARK                            x       y       z     vdW  Elec       q    Type
REMARK                         _______ _______ _______ _____ _____    ______ ____
ROOT
ATOM      1  N   UNL     1       1.853  13.917  20.044  0.00  0.00    +0.000 N 
ATOM      2  N   UNL     1       2.573  13.475  21.104  0.00  0.00    +0.000 NA
ATOM      3  C   UNL     1       3.683  14.230  21.119  0.00  0.00    +0.000 A 
ATOM      4  C   UNL     1       4.723  13.939  22.143  0.00  0.00    +0.000 C 
ATOM      5  C   UNL     1       3.671  15.223  20.097  0.00  0.00    +0.000 A 
ATOM      6  C   UNL     1       4.476  16.275  19.604  0.00  0.00    +0.000 A 
ATOM      7  C   UNL     1       4.049  16.937  18.444  0.00  0.00    +0.000 A 
ATOM      8  C   UNL     1       2.793  16.688  17.927  0.00  0.00    +0.000 A 
ATOM      9  C   UNL     1       2.265  17.492  16.778  0.00  0.00    +0.000 C 
ATOM     10  N   UNL     1       1.981  15.739  18.406  0.00  0.00    +0.000 NA
ATOM     11  C   UNL     1       2.465  15.012  19.440  0.00  0.00    +0.000 A 
ENDROOT
BRANCH   6  12
ATOM     12  C   UNL     1       5.792  16.609  20.186  0.00  0.00    +0.000 C 
ATOM     13  O   UNL     1       5.820  17.397  21.128  0.00  0.00    +0.000 OA
ATOM     14  N   UNL     1       6.942  15.971  19.726  0.00  0.00    +0.000 N 
ATOM     15  C   UNL     1       8.158  16.047  20.543  0.00  0.00    +0.000 C 
ATOM     16  C   UNL     1       8.719  14.639  20.818  0.00  0.00    +0.000 C 
ATOM     17  N   UNL     1       8.910  13.925  19.542  0.00  0.00    +0.000 N 
ATOM     18  C   UNL     1       7.726  13.852  18.669  0.00  0.00    +0.000 C 
ATOM     19  C   UNL     1       7.149  15.268  18.443  0.00  0.00    +0.000 C 
BRANCH  17  20
ATOM     20  C   UNL     1      10.055  13.199  19.282  0.00  0.00    +0.000 A 
ATOM     21  C   UNL     1      10.388  12.767  17.988  0.00  0.00    +0.000 A 
ATOM     22  C   UNL     1      11.513  11.969  17.745  0.00  0.00    +0.000 A 
ATOM     23  C   UNL     1      12.333  11.584  18.797  0.00  0.00    +0.000 A 
ATOM     24  C   UNL     1      12.039  12.010  20.087  0.00  0.00    +0.000 A 
ATOM     25  C   UNL     1      10.915  12.810  20.319  0.00  0.00    +0.000 A 
ENDBRANCH  17  20
ENDBRANCH   6  12
BRANCH   1  29
ATOM     26  C   UNL     1      -1.769  11.969  18.960  0.00  0.00    +0.000 A 
ATOM     27  C   UNL     1      -0.537  11.514  18.469  0.00  0.00    +0.000 A 
ATOM     28  C   UNL     1       0.654  12.165  18.816  0.00  0.00    +0.000 A 
ATOM     29  C   UNL     1       0.630  13.274  19.672  0.00  0.00    +0.000 A 
ATOM     30  C   UNL     1      -0.607  13.732  20.146  0.00  0.00    +0.000 A 
ATOM     31  C   UNL     1      -1.790  13.085  19.797  0.00  0.00    +0.000 A 
BRANCH  26  33
ATOM     32  C   UNL     1      -2.817  10.061  17.732  0.00  0.00    +0.000 C 
ATOM     33  C   UNL     1      -3.056  11.260  18.637  0.00  0.00    +0.000 C 
ENDBRANCH  26  33
ENDBRANCH   1  29
TORSDOF 4
ENDMDL
MODEL 2
REMARK VINA RESULT:      -6.9      4.571     10.400
REMARK  Name = 
REMARK  7 active torsions:
REMARK  status: ('A' for Active; 'I' for Inactive)
REMARK    1  A    between atoms: C_1  and  C_2
REMARK    2  A    between atoms: C_2  and  C_3
REMARK    3  A    between atoms: C_6  and  N_7
REMARK    4  A    between atoms: C_9  and  C_10
REMARK    5  A    between atoms: C_12  and  C_13
REMARK    6  A    between atoms: N_18  and  C_19
REMARK    7  A    between atoms: C_28  and  C_29
REMARK                            x       y       z     vdW  Elec       q    Type
REMARK                         _______ _______ _______ _____ _____    ______ ____
ROOT
ATOM      1  N   UNL     1       0.384  10.846  19.121  0.00  0.00    +0.000 N 
ATOM      2  N   UNL     1      -0.947  10.874  18.862  0.00  0.00    +0.000 NA
ATOM      3  C   UNL     1      -1.328  12.139  19.102  0.00  0.00    +0.000 A 
ATOM      4  C   UNL     1      -2.770  12.480  18.971  0.00  0.00    +0.000 C 
ATOM      5  C   UNL     1      -0.229  12.971  19.464  0.00  0.00    +0.000 A 
ATOM      6  C   UNL     1       0.038  14.314  19.814  0.00  0.00    +0.000 A 
ATOM      7  C   UNL     1       1.344  14.640  20.207  0.00  0.00    +0.000 A 
ATOM      8  C   UNL     1       2.360  13.717  20.067  0.00  0.00    +0.000 A 
ATOM      9  C   UNL     1       3.783  14.097  20.342  0.00  0.00    +0.000 C 
ATOM     10  N   UNL     1       2.151  12.453  19.681  0.00  0.00    +0.000 NA
ATOM     11  C   UNL     1       0.864  12.113  19.440  0.00  0.00    +0.000 A 
ENDROOT
BRANCH   6  12
ATOM     12  C   UNL     1      -1.022  15.339  19.901  0.00  0.00    +0.000 C 
ATOM     13  O   UNL     1      -1.046  16.216  19.042  0.00  0.00    +0.000 OA
ATOM     14  N   UNL     1      -2.007  15.245  20.883  0.00  0.00    +0.000 N 
ATOM     15  C   UNL     1      -3.225  16.048  20.730  0.00  0.00    +0.000 C 
ATOM     16  C   UNL     1      -4.480  15.159  20.829  0.00  0.00    +0.000 C 
ATOM     17  N   UNL     1      -4.439  14.383  22.083  0.00  0.00    +0.000 N 
ATOM     18  C   UNL     1      -3.219  13.587  22.299  0.00  0.00    +0.000 C 
ATOM     19  C   UNL     1      -1.969  14.485  22.149  0.00  0.00    +0.000 C 
BRANCH  17  20
ATOM     20  C   UNL     1      -5.551  14.251  22.890  0.00  0.00    +0.000 A 
ATOM     21  C   UNL     1      -5.791  13.093  23.647  0.00  0.00    +0.000 A 
ATOM     22  C   UNL     1      -6.957  12.938  24.406  0.00  0.00    +0.000 A 
ATOM     23  C   UNL     1      -7.915  13.944  24.423  0.00  0.00    +0.000 A 
ATOM     24  C   UNL     1      -7.698  15.110  23.696  0.00  0.00    +0.000 A 
ATOM     25  C   UNL     1      -6.528  15.256  22.945  0.00  0.00    +0.000 A 
ENDBRANCH  17  20
ENDBRANCH   6  12
BRANCH   1  29
ATOM     26  C   UNL     1       2.598   7.221  18.901  0.00  0.00    +0.000 A 
ATOM     27  C   UNL     1       2.547   8.095  17.807  0.00  0.00    +0.000 A 
ATOM     28  C   UNL     1       1.806   9.283  17.875  0.00  0.00    +0.000 A 
ATOM     29  C   UNL     1       1.117   9.619  19.048  0.00  0.00    +0.000 A 
ATOM     30  C   UNL     1       1.161   8.731  20.133  0.00  0.00    +0.000 A 
ATOM     31  C   UNL     1       1.896   7.550  20.061  0.00  0.00    +0.000 A 
BRANCH  26  33
ATOM     32  C   UNL     1       2.588   4.741  19.218  0.00  0.00    +0.000 C 
ATOM     33  C   UNL     1       3.422   5.963  18.865  0.00  0.00    +0.000 C 
ENDBRANCH  26  33
ENDBRANCH   1  29
TORSDOF 4
ENDMDL
MODEL 3
REMARK VINA RESULT:      -6.9      6.218      8.976
REMARK  Name = 
REMARK  7 active torsions:
REMARK  status: ('A' for Active; 'I' for Inactive)
REMARK    1  A    between atoms: C_1  and  C_2
REMARK    2  A    between atoms: C_2  and  C_3
REMARK    3  A    between atoms: C_6  and  N_7
REMARK    4  A    between atoms: C_9  and  C_10
REMARK    5  A    between atoms: C_12  and  C_13
REMARK    6  A    between atoms: N_18  and  C_19
REMARK    7  A    between atoms: C_28  and  C_29
REMARK                            x       y       z     vdW  Elec       q    Type
REMARK                         _______ _______ _______ _____ _____    ______ ____
ROOT
ATOM      1  N   UNL     1       0.425   9.643  19.812  0.00  0.00    +0.000 N 
ATOM      2  N   UNL     1       0.488   9.997  21.119  0.00  0.00    +0.000 NA
ATOM      3  C   UNL     1      -0.476  10.917  21.284  0.00  0.00    +0.000 A 
ATOM      4  C   UNL     1      -0.620  11.560  22.618  0.00  0.00    +0.000 C 
ATOM      5  C   UNL     1      -1.225  11.130  20.090  0.00  0.00    +0.000 A 
ATOM      6  C   UNL     1      -2.308  11.906  19.619  0.00  0.00    +0.000 A 
ATOM      7  C   UNL     1      -2.624  11.828  18.256  0.00  0.00    +0.000 A 
ATOM      8  C   UNL     1      -2.016  10.881  17.457  0.00  0.00    +0.000 A 
ATOM      9  C   UNL     1      -2.449  10.687  16.035  0.00  0.00    +0.000 C 
ATOM     10  N   UNL     1      -1.028  10.089  17.886  0.00  0.00    +0.000 NA
ATOM     11  C   UNL     1      -0.636  10.273  19.168  0.00  0.00    +0.000 A 
ENDROOT
BRANCH   6  12
ATOM     12  C   UNL     1      -3.023  12.876  20.475  0.00  0.00    +0.000 C 
ATOM     13  O   UNL     1      -4.170  12.602  20.818  0.00  0.00    +0.000 OA
ATOM     14  N   UNL     1      -2.367  14.014  20.940  0.00  0.00    +0.000 N 
ATOM     15  C   UNL     1      -2.965  14.758  22.055  0.00  0.00    +0.000 C 
ATOM     16  C   UNL     1      -1.942  14.950  23.192  0.00  0.00    +0.000 C 
ATOM     17  N   UNL     1      -0.718  15.572  22.656  0.00  0.00    +0.000 N 
ATOM     18  C   UNL     1      -0.100  14.881  21.512  0.00  0.00    +0.000 C 
ATOM     19  C   UNL     1      -1.151  14.655  20.401  0.00  0.00    +0.000 C 
BRANCH  17  20
ATOM     20  C   UNL     1      -0.084  16.608  23.313  0.00  0.00    +0.000 A 
ATOM     21  C   UNL     1       1.074  17.218  22.805  0.00  0.00    +0.000 A 
ATOM     22  C   UNL     1       1.751  18.218  23.514  0.00  0.00    +0.000 A 
ATOM     23  C   UNL     1       1.281  18.631  24.754  0.00  0.00    +0.000 A 
ATOM     24  C   UNL     1       0.128  18.057  25.276  0.00  0.00    +0.000 A 
ATOM     25  C   UNL     1      -0.543  17.062  24.558  0.00  0.00    +0.000 A 
ENDBRANCH  17  20
ENDBRANCH   6  12
BRANCH   1  29
ATOM     26  C   UNL     1       3.279   6.954  18.165  0.00  0.00    +0.000 A 
ATOM     27  C   UNL     1       2.902   8.111  17.469  0.00  0.00    +0.000 A 
ATOM     28  C   UNL     1       1.952   8.989  18.006  0.00  0.00    +0.000 A 
ATOM     29  C   UNL     1       1.375   8.728  19.257  0.00  0.00    +0.000 A 
ATOM     30  C   UNL     1       1.746   7.560  19.939  0.00  0.00    +0.000 A 
ATOM     31  C   UNL     1       2.689   6.687  19.401  0.00  0.00    +0.000 A 
BRANCH  26  33
ATOM     32  C   UNL     1       5.076   6.638  16.456  0.00  0.00    +0.000 C 
ATOM     33  C   UNL     1       4.330   6.020  17.628  0.00  0.00    +0.000 C 
ENDBRANCH  26  33
ENDBRANCH   1  29
TORSDOF 4
ENDMDL
MODEL 4
REMARK VINA RESULT:      -6.9      1.743      2.533
REMARK  Name = 
REMARK  7 active torsions:
REMARK  status: ('A' for Active; 'I' for Inactive)
REMARK    1  A    between atoms: C_1  and  C_2
REMARK    2  A    between atoms: C_2  and  C_3
REMARK    3  A    between atoms: C_6  and  N_7
REMARK    4  A    between atoms: C_9  and  C_10
REMARK    5  A    between atoms: C_12  and  C_13
REMARK    6  A    between atoms: N_18  and  C_19
REMARK    7  A    between atoms: C_28  and  C_29
REMARK                            x       y       z     vdW  Elec       q    Type
REMARK                         _______ _______ _______ _____ _____    ______ ____
ROOT
ATOM      1  N   UNL     1       0.191  13.801  19.566  0.00  0.00    +0.000 N 
ATOM      2  N   UNL     1       1.168  13.273  20.344  0.00  0.00    +0.000 NA
ATOM      3  C   UNL     1       2.095  14.238  20.454  0.00  0.00    +0.000 A 
ATOM      4  C   UNL     1       3.344  13.938  21.205  0.00  0.00    +0.000 C 
ATOM      5  C   UNL     1       1.701  15.438  19.794  0.00  0.00    +0.000 A 
ATOM      6  C   UNL     1       2.182  16.745  19.552  0.00  0.00    +0.000 A 
ATOM      7  C   UNL     1       1.427  17.574  18.711  0.00  0.00    +0.000 A 
ATOM      8  C   UNL     1       0.169  17.182  18.300  0.00  0.00    +0.000 A 
ATOM      9  C   UNL     1      -0.709  18.118  17.525  0.00  0.00    +0.000 C 
ATOM     10  N   UNL     1      -0.342  15.974  18.561  0.00  0.00    +0.000 NA
ATOM     11  C   UNL     1       0.457  15.131  19.256  0.00  0.00    +0.000 A 
ENDROOT
BRANCH   6  12
ATOM     12  C   UNL     1       3.495  17.213  20.044  0.00  0.00    +0.000 C 
ATOM     13  O   UNL     1       3.513  17.916  21.050  0.00  0.00    +0.000 OA
ATOM     14  N   UNL     1       4.666  16.784  19.423  0.00  0.00    +0.000 N 
ATOM     15  C   UNL     1       5.938  16.964  20.132  0.00  0.00    +0.000 C 
ATOM     16  C   UNL     1       6.707  15.632  20.219  0.00  0.00    +0.000 C 
ATOM     17  N   UNL     1       6.860  15.060  18.869  0.00  0.00    +0.000 N 
ATOM     18  C   UNL     1       5.614  14.892  18.103  0.00  0.00    +0.000 C 
ATOM     19  C   UNL     1       4.833  16.226  18.066  0.00  0.00    +0.000 C 
BRANCH  17  20
ATOM     20  C   UNL     1       8.059  14.528  18.439  0.00  0.00    +0.000 A 
ATOM     21  C   UNL     1       9.221  15.307  18.316  0.00  0.00    +0.000 A 
ATOM     22  C   UNL     1      10.413  14.777  17.809  0.00  0.00    +0.000 A 
ATOM     23  C   UNL     1      10.470  13.447  17.412  0.00  0.00    +0.000 A 
ATOM     24  C   UNL     1       9.340  12.646  17.537  0.00  0.00    +0.000 A 
ATOM     25  C   UNL     1       8.155  13.185  18.047  0.00  0.00    +0.000 A 
ENDBRANCH  17  20
ENDBRANCH   6  12
BRANCH   1  29
ATOM     26  C   UNL     1      -3.172  11.486  18.377  0.00  0.00    +0.000 A 
ATOM     27  C   UNL     1      -3.200  12.230  19.564  0.00  0.00    +0.000 A 
ATOM     28  C   UNL     1      -2.086  12.982  19.962  0.00  0.00    +0.000 A 
ATOM     29  C   UNL     1      -0.932  13.010  19.168  0.00  0.00    +0.000 A 
ATOM     30  C   UNL     1      -0.907  12.250  17.989  0.00  0.00    +0.000 A 
ATOM     31  C   UNL     1      -2.015  11.501  17.598  0.00  0.00    +0.000 A 
BRANCH  26  33
ATOM     32  C   UNL     1      -5.610  11.586  17.831  0.00  0.00    +0.000 C 
ATOM     33  C   UNL     1      -4.371  10.707  17.908  0.00  0.00    +0.000 C 
ENDBRANCH  26  33
ENDBRANCH   1  29
TORSDOF 4
ENDMDL
MODEL 5
REMARK VINA RESULT:      -6.8      1.590      2.042
REMARK  Name = 
REMARK  7 active torsions:
REMARK  status: ('A' for Active; 'I' for Inactive)
REMARK    1  A    between atoms: C_1  and  C_2
REMARK    2  A    between atoms: C_2  and  C_3
REMARK    3  A    between atoms: C_6  and  N_7
REMARK    4  A    between atoms: C_9  and  C_10
REMARK    5  A    between atoms: C_12  and  C_13
REMARK    6  A    between atoms: N_18  and  C_19
REMARK    7  A    between atoms: C_28  and  C_29
REMARK                            x       y       z     vdW  Elec       q    Type
REMARK                         _______ _______ _______ _____ _____    ______ ____
ROOT
ATOM      1  N   UNL     1       0.388  13.929  19.684  0.00  0.00    +0.000 N 
ATOM      2  N   UNL     1       1.319  13.371  20.497  0.00  0.00    +0.000 NA
ATOM      3  C   UNL     1       2.316  14.268  20.563  0.00  0.00    +0.000 A 
ATOM      4  C   UNL     1       3.536  13.914  21.338  0.00  0.00    +0.000 C 
ATOM      5  C   UNL     1       2.017  15.457  19.838  0.00  0.00    +0.000 A 
ATOM      6  C   UNL     1       2.597  16.708  19.530  0.00  0.00    +0.000 A 
ATOM      7  C   UNL     1       1.911  17.547  18.641  0.00  0.00    +0.000 A 
ATOM      8  C   UNL     1       0.628  17.230  18.241  0.00  0.00    +0.000 A 
ATOM      9  C   UNL     1      -0.173  18.187  17.411  0.00  0.00    +0.000 C 
ATOM     10  N   UNL     1       0.026  16.080  18.562  0.00  0.00    +0.000 NA
ATOM     11  C   UNL     1       0.756  15.217  19.306  0.00  0.00    +0.000 A 
ENDROOT
BRANCH   6  12
ATOM     12  C   UNL     1       3.940  17.101  20.006  0.00  0.00    +0.000 C 
ATOM     13  O   UNL     1       4.012  17.779  21.028  0.00  0.00    +0.000 OA
ATOM     14  N   UNL     1       5.078  16.632  19.354  0.00  0.00    +0.000 N 
ATOM     15  C   UNL     1       6.370  16.733  20.042  0.00  0.00    +0.000 C 
ATOM     16  C   UNL     1       7.074  15.364  20.084  0.00  0.00    +0.000 C 
ATOM     17  N   UNL     1       7.175  14.817  18.718  0.00  0.00    +0.000 N 
ATOM     18  C   UNL     1       5.908  14.727  17.973  0.00  0.00    +0.000 C 
ATOM     19  C   UNL     1       5.192  16.098  17.981  0.00  0.00    +0.000 C 
BRANCH  17  20
ATOM     20  C   UNL     1       8.339  14.238  18.253  0.00  0.00    +0.000 A 
ATOM     21  C   UNL     1       8.459  12.852  18.062  0.00  0.00    +0.000 A 
ATOM     22  C   UNL     1       9.666  12.266  17.660  0.00  0.00    +0.000 A 
ATOM     23  C   UNL     1      10.785  13.059  17.441  0.00  0.00    +0.000 A 
ATOM     24  C   UNL     1      10.692  14.436  17.607  0.00  0.00    +0.000 A 
ATOM     25  C   UNL     1       9.481  15.012  18.004  0.00  0.00    +0.000 A 
ENDBRANCH  17  20
ENDBRANCH   6  12
BRANCH   1  29
ATOM     26  C   UNL     1      -3.094  11.741  18.601  0.00  0.00    +0.000 A 
ATOM     27  C   UNL     1      -1.991  11.803  17.738  0.00  0.00    +0.000 A 
ATOM     28  C   UNL     1      -0.850  12.536  18.090  0.00  0.00    +0.000 A 
ATOM     29  C   UNL     1      -0.791  13.205  19.320  0.00  0.00    +0.000 A 
ATOM     30  C   UNL     1      -1.904  13.150  20.170  0.00  0.00    +0.000 A 
ATOM     31  C   UNL     1      -3.039  12.424  19.816  0.00  0.00    +0.000 A 
BRANCH  26  33
ATOM     32  C   UNL     1      -4.720  11.110  16.810  0.00  0.00    +0.000 C 
ATOM     33  C   UNL     1      -4.312  10.925  18.263  0.00  0.00    +0.000 C 
ENDBRANCH  26  33
ENDBRANCH   1  29
TORSDOF 4
ENDMDL
MODEL 6
REMARK VINA RESULT:      -6.8      1.488      2.152
REMARK  Name = 
REMARK  7 active torsions:
REMARK  status: ('A' for Active; 'I' for Inactive)
REMARK    1  A    between atoms: C_1  and  C_2
REMARK    2  A    between atoms: C_2  and  C_3
REMARK    3  A    between atoms: C_6  and  N_7
REMARK    4  A    between atoms: C_9  and  C_10
REMARK    5  A    between atoms: C_12  and  C_13
REMARK    6  A    between atoms: N_18  and  C_19
REMARK    7  A    between atoms: C_28  and  C_29
REMARK                            x       y       z     vdW  Elec       q    Type
REMARK                         _______ _______ _______ _____ _____    ______ ____
ROOT
ATOM      1  N   UNL     1       0.978  13.483  19.738  0.00  0.00    +0.000 N 
ATOM      2  N   UNL     1       1.958  13.109  20.597  0.00  0.00    +0.000 NA
ATOM      3  C   UNL     1       2.721  14.202  20.761  0.00  0.00    +0.000 A 
ATOM      4  C   UNL     1       3.939  14.094  21.610  0.00  0.00    +0.000 C 
ATOM      5  C   UNL     1       2.208  15.327  20.053  0.00  0.00    +0.000 A 
ATOM      6  C   UNL     1       2.509  16.689  19.826  0.00  0.00    +0.000 A 
ATOM      7  C   UNL     1       1.708  17.393  18.916  0.00  0.00    +0.000 A 
ATOM      8  C   UNL     1       0.557  16.817  18.417  0.00  0.00    +0.000 A 
ATOM      9  C   UNL     1      -0.386  17.608  17.562  0.00  0.00    +0.000 C 
ATOM     10  N   UNL     1       0.210  15.548  18.659  0.00  0.00    +0.000 NA
ATOM     11  C   UNL     1       1.068  14.836  19.426  0.00  0.00    +0.000 A 
ENDROOT
BRANCH   6  12
ATOM     12  C   UNL     1       3.696  17.348  20.408  0.00  0.00    +0.000 C 
ATOM     13  O   UNL     1       3.522  18.116  21.350  0.00  0.00    +0.000 OA
ATOM     14  N   UNL     1       4.971  17.027  19.946  0.00  0.00    +0.000 N 
ATOM     15  C   UNL     1       6.128  17.411  20.763  0.00  0.00    +0.000 C 
ATOM     16  C   UNL     1       7.031  16.193  21.036  0.00  0.00    +0.000 C 
ATOM     17  N   UNL     1       7.398  15.553  19.759  0.00  0.00    +0.000 N 
ATOM     18  C   UNL     1       6.271  15.181  18.887  0.00  0.00    +0.000 C 
ATOM     19  C   UNL     1       5.350  16.402  18.663  0.00  0.00    +0.000 C 
BRANCH  17  20
ATOM     20  C   UNL     1       8.690  15.146  19.497  0.00  0.00    +0.000 A 
ATOM     21  C   UNL     1       9.261  15.249  18.219  0.00  0.00    +0.000 A 
ATOM     22  C   UNL     1      10.547  14.765  17.946  0.00  0.00    +0.000 A 
ATOM     23  C   UNL     1      11.293  14.165  18.952  0.00  0.00    +0.000 A 
ATOM     24  C   UNL     1      10.760  14.063  20.232  0.00  0.00    +0.000 A 
ATOM     25  C   UNL     1       9.477  14.552  20.496  0.00  0.00    +0.000 A 
ENDBRANCH  17  20
ENDBRANCH   6  12
BRANCH   1  29
ATOM     26  C   UNL     1      -1.892  10.686  18.313  0.00  0.00    +0.000 A 
ATOM     27  C   UNL     1      -2.299  11.875  18.933  0.00  0.00    +0.000 A 
ATOM     28  C   UNL     1      -1.353  12.790  19.415  0.00  0.00    +0.000 A 
ATOM     29  C   UNL     1       0.017  12.532  19.269  0.00  0.00    +0.000 A 
ATOM     30  C   UNL     1       0.416  11.333  18.661  0.00  0.00    +0.000 A 
ATOM     31  C   UNL     1      -0.528  10.424  18.186  0.00  0.00    +0.000 A 
BRANCH  26  33
ATOM     32  C   UNL     1      -2.980   9.820  16.236  0.00  0.00    +0.000 C 
ATOM     33  C   UNL     1      -2.890   9.711  17.750  0.00  0.00    +0.000 C 
ENDBRANCH  26  33
ENDBRANCH   1  29
TORSDOF 4
ENDMDL
MODEL 7
REMARK VINA RESULT:      -6.7      1.708      9.343
REMARK  Name = 
REMARK  7 active torsions:
REMARK  status: ('A' for Active; 'I' for Inactive)
REMARK    1  A    between atoms: C_1  and  C_2
REMARK    2  A    between atoms: C_2  and  C_3
REMARK    3  A    between atoms: C_6  and  N_7
REMARK    4  A    between atoms: C_9  and  C_10
REMARK    5  A    between atoms: C_12  and  C_13
REMARK    6  A    between atoms: N_18  and  C_19
REMARK    7  A    between atoms: C_28  and  C_29
REMARK                            x       y       z     vdW  Elec       q    Type
REMARK                         _______ _______ _______ _____ _____    ______ ____
ROOT
ATOM      1  N   UNL     1       6.514  14.994  18.826  0.00  0.00    +0.000 N 
ATOM      2  N   UNL     1       5.714  15.426  17.820  0.00  0.00    +0.000 NA
ATOM      3  C   UNL     1       4.495  15.557  18.369  0.00  0.00    +0.000 A 
ATOM      4  C   UNL     1       3.363  15.957  17.490  0.00  0.00    +0.000 C 
ATOM      5  C   UNL     1       4.501  15.269  19.764  0.00  0.00    +0.000 A 
ATOM      6  C   UNL     1       3.611  15.227  20.861  0.00  0.00    +0.000 A 
ATOM      7  C   UNL     1       4.105  14.758  22.087  0.00  0.00    +0.000 A 
ATOM      8  C   UNL     1       5.457  14.531  22.247  0.00  0.00    +0.000 A 
ATOM      9  C   UNL     1       6.019  14.172  23.589  0.00  0.00    +0.000 C 
ATOM     10  N   UNL     1       6.336  14.618  21.244  0.00  0.00    +0.000 NA
ATOM     11  C   UNL     1       5.823  14.936  20.032  0.00  0.00    +0.000 A 
ENDROOT
BRANCH   6  12
ATOM     12  C   UNL     1       2.172  15.536  20.730  0.00  0.00    +0.000 C 
ATOM     13  O   UNL     1       1.832  16.716  20.772  0.00  0.00    +0.000 OA
ATOM     14  N   UNL     1       1.258  14.515  20.479  0.00  0.00    +0.000 N 
ATOM     15  C   UNL     1      -0.082  14.878  20.002  0.00  0.00    +0.000 C 
ATOM     16  C   UNL     1      -0.425  14.117  18.707  0.00  0.00    +0.000 C 
ATOM     17  N   UNL     1      -0.248  12.669  18.923  0.00  0.00    +0.000 N 
ATOM     18  C   UNL     1       1.070  12.257  19.435  0.00  0.00    +0.000 C 
ATOM     19  C   UNL     1       1.419  13.065  20.707  0.00  0.00    +0.000 C 
BRANCH  17  20
ATOM     20  C   UNL     1      -1.178  11.751  18.479  0.00  0.00    +0.000 A 
ATOM     21  C   UNL     1      -0.806  10.570  17.818  0.00  0.00    +0.000 A 
ATOM     22  C   UNL     1      -1.759   9.681  17.306  0.00  0.00    +0.000 A 
ATOM     23  C   UNL     1      -3.113   9.956  17.445  0.00  0.00    +0.000 A 
ATOM     24  C   UNL     1      -3.513  11.110  18.110  0.00  0.00    +0.000 A 
ATOM     25  C   UNL     1      -2.553  11.990  18.621  0.00  0.00    +0.000 A 
ENDBRANCH  17  20
ENDBRANCH   6  12
BRANCH   1  29
ATOM     26  C   UNL     1      10.597  14.027  18.130  0.00  0.00    +0.000 A 
ATOM     27  C   UNL     1      10.212  15.346  18.408  0.00  0.00    +0.000 A 
ATOM     28  C   UNL     1       8.865  15.666  18.623  0.00  0.00    +0.000 A 
ATOM     29  C   UNL     1       7.885  14.665  18.578  0.00  0.00    +0.000 A 
ATOM     30  C   UNL     1       8.277  13.351  18.285  0.00  0.00    +0.000 A 
ATOM     31  C   UNL     1       9.617  13.037  18.068  0.00  0.00    +0.000 A 
BRANCH  26  33
ATOM     32  C   UNL     1      12.333  13.279  16.495  0.00  0.00    +0.000 C 
ATOM     33  C   UNL     1      12.042  13.654  17.939  0.00  0.00    +0.000 C 
ENDBRANCH  26  33
ENDBRANCH   1  29
TORSDOF 4
ENDMDL
MODEL 8
REMARK VINA RESULT:      -6.6      0.725      1.121
REMARK  Name = 
REMARK  7 active torsions:
REMARK  status: ('A' for Active; 'I' for Inactive)
REMARK    1  A    between atoms: C_1  and  C_2
REMARK    2  A    between atoms: C_2  and  C_3
REMARK    3  A    between atoms: C_6  and  N_7
REMARK    4  A    between atoms: C_9  and  C_10
REMARK    5  A    between atoms: C_12  and  C_13
REMARK    6  A    between atoms: N_18  and  C_19
REMARK    7  A    between atoms: C_28  and  C_29
REMARK                            x       y       z     vdW  Elec       q    Type
REMARK                         _______ _______ _______ _____ _____    ______ ____
ROOT
ATOM      1  N   UNL     1       1.497  14.035  20.121  0.00  0.00    +0.000 N 
ATOM      2  N   UNL     1       2.293  13.536  21.098  0.00  0.00    +0.000 NA
ATOM      3  C   UNL     1       3.385  14.319  21.100  0.00  0.00    +0.000 A 
ATOM      4  C   UNL     1       4.495  13.982  22.032  0.00  0.00    +0.000 C 
ATOM      5  C   UNL     1       3.284  15.383  20.158  0.00  0.00    +0.000 A 
ATOM      6  C   UNL     1       4.032  16.489  19.695  0.00  0.00    +0.000 A 
ATOM      7  C   UNL     1       3.517  17.222  18.617  0.00  0.00    +0.000 A 
ATOM      8  C   UNL     1       2.236  16.977  18.162  0.00  0.00    +0.000 A 
ATOM      9  C   UNL     1       1.618  17.849  17.111  0.00  0.00    +0.000 C 
ATOM     10  N   UNL     1       1.478  15.975  18.618  0.00  0.00    +0.000 NA
ATOM     11  C   UNL     1       2.043  15.187  19.563  0.00  0.00    +0.000 A 
ENDROOT
BRANCH   6  12
ATOM     12  C   UNL     1       5.375  16.815  20.217  0.00  0.00    +0.000 C 
ATOM     13  O   UNL     1       5.450  17.596  21.162  0.00  0.00    +0.000 OA
ATOM     14  N   UNL     1       6.500  16.178  19.698  0.00  0.00    +0.000 N 
ATOM     15  C   UNL     1       7.754  16.245  20.458  0.00  0.00    +0.000 C 
ATOM     16  C   UNL     1       8.323  14.832  20.695  0.00  0.00    +0.000 C 
ATOM     17  N   UNL     1       8.452  14.128  19.406  0.00  0.00    +0.000 N 
ATOM     18  C   UNL     1       7.228  14.065  18.590  0.00  0.00    +0.000 C 
ATOM     19  C   UNL     1       6.645  15.484  18.402  0.00  0.00    +0.000 C 
BRANCH  17  20
ATOM     20  C   UNL     1       9.581  13.401  19.087  0.00  0.00    +0.000 A 
ATOM     21  C   UNL     1       9.575  12.409  18.093  0.00  0.00    +0.000 A 
ATOM     22  C   UNL     1      10.706  11.627  17.827  0.00  0.00    +0.000 A 
ATOM     23  C   UNL     1      11.873  11.821  18.554  0.00  0.00    +0.000 A 
ATOM     24  C   UNL     1      11.915  12.807  19.533  0.00  0.00    +0.000 A 
ATOM     25  C   UNL     1      10.781  13.586  19.789  0.00  0.00    +0.000 A 
ENDBRANCH  17  20
ENDBRANCH   6  12
BRANCH   1  29
ATOM     26  C   UNL     1      -2.180  12.149  19.115  0.00  0.00    +0.000 A 
ATOM     27  C   UNL     1      -1.928  12.569  20.428  0.00  0.00    +0.000 A 
ATOM     28  C   UNL     1      -0.710  13.179  20.762  0.00  0.00    +0.000 A 
ATOM     29  C   UNL     1       0.267  13.388  19.779  0.00  0.00    +0.000 A 
ATOM     30  C   UNL     1       0.013  12.950  18.472  0.00  0.00    +0.000 A 
ATOM     31  C   UNL     1      -1.197  12.342  18.144  0.00  0.00    +0.000 A 
BRANCH  26  33
ATOM     32  C   UNL     1      -4.665  12.273  19.356  0.00  0.00    +0.000 C 
ATOM     33  C   UNL     1      -3.496  11.532  18.726  0.00  0.00    +0.000 C 
ENDBRANCH  26  33
ENDBRANCH   1  29
TORSDOF 4
ENDMDL
MODEL 9
REMARK VINA RESULT:      -6.6      6.139      8.909
REMARK  Name = 
REMARK  7 active torsions:
REMARK  status: ('A' for Active; 'I' for Inactive)
REMARK    1  A    between atoms: C_1  and  C_2
REMARK    2  A    between atoms: C_2  and  C_3
REMARK    3  A    between atoms: C_6  and  N_7
REMARK    4  A    between atoms: C_9  and  C_10
REMARK    5  A    between atoms: C_12  and  C_13
REMARK    6  A    between atoms: N_18  and  C_19
REMARK    7  A    between atoms: C_28  and  C_29
REMARK                            x       y       z     vdW  Elec       q    Type
REMARK                         _______ _______ _______ _____ _____    ______ ____
ROOT
ATOM      1  N   UNL     1       0.587   9.409  19.763  0.00  0.00    +0.000 N 
ATOM      2  N   UNL     1       0.690   9.786  21.062  0.00  0.00    +0.000 NA
ATOM      3  C   UNL     1      -0.263  10.716  21.237  0.00  0.00    +0.000 A 
ATOM      4  C   UNL     1      -0.364  11.384  22.563  0.00  0.00    +0.000 C 
ATOM      5  C   UNL     1      -1.044  10.913  20.062  0.00  0.00    +0.000 A 
ATOM      6  C   UNL     1      -2.135  11.689  19.608  0.00  0.00    +0.000 A 
ATOM      7  C   UNL     1      -2.491  11.589  18.256  0.00  0.00    +0.000 A 
ATOM      8  C   UNL     1      -1.912  10.623  17.457  0.00  0.00    +0.000 A 
ATOM      9  C   UNL     1      -2.387  10.406  16.052  0.00  0.00    +0.000 C 
ATOM     10  N   UNL     1      -0.917   9.832  17.872  0.00  0.00    +0.000 NA
ATOM     11  C   UNL     1      -0.488  10.035  19.139  0.00  0.00    +0.000 A 
ENDROOT
BRANCH   6  12
ATOM     12  C   UNL     1      -2.818  12.678  20.467  0.00  0.00    +0.000 C 
ATOM     13  O   UNL     1      -3.961  12.425  20.838  0.00  0.00    +0.000 OA
ATOM     14  N   UNL     1      -2.138  13.813  20.902  0.00  0.00    +0.000 N 
ATOM     15  C   UNL     1      -2.701  14.580  22.020  0.00  0.00    +0.000 C 
ATOM     16  C   UNL     1      -1.652  14.773  23.132  0.00  0.00    +0.000 C 
ATOM     17  N   UNL     1      -0.431  15.372  22.562  0.00  0.00    +0.000 N 
ATOM     18  C   UNL     1       0.153  14.659  21.413  0.00  0.00    +0.000 C 
ATOM     19  C   UNL     1      -0.926  14.432  20.329  0.00  0.00    +0.000 C 
BRANCH  17  20
ATOM     20  C   UNL     1       0.229  16.408  23.191  0.00  0.00    +0.000 A 
ATOM     21  C   UNL     1      -0.268  17.012  24.357  0.00  0.00    +0.000 A 
ATOM     22  C   UNL     1       0.370  18.110  24.947  0.00  0.00    +0.000 A 
ATOM     23  C   UNL     1       1.526  18.631  24.379  0.00  0.00    +0.000 A 
ATOM     24  C   UNL     1       2.051  18.044  23.234  0.00  0.00    +0.000 A 
ATOM     25  C   UNL     1       1.408  16.945  22.654  0.00  0.00    +0.000 A 
ENDBRANCH  17  20
ENDBRANCH   6  12
BRANCH   1  29
ATOM     26  C   UNL     1       3.310   6.614  18.073  0.00  0.00    +0.000 A 
ATOM     27  C   UNL     1       2.545   6.276  19.197  0.00  0.00    +0.000 A 
ATOM     28  C   UNL     1       1.658   7.202  19.762  0.00  0.00    +0.000 A 
ATOM     29  C   UNL     1       1.514   8.477  19.198  0.00  0.00    +0.000 A 
ATOM     30  C   UNL     1       2.295   8.812  18.083  0.00  0.00    +0.000 A 
ATOM     31  C   UNL     1       3.178   7.890  17.525  0.00  0.00    +0.000 A 
BRANCH  26  33
ATOM     32  C   UNL     1       5.053   6.265  16.315  0.00  0.00    +0.000 C 
ATOM     33  C   UNL     1       4.236   5.621  17.424  0.00  0.00    +0.000 C 
ENDBRANCH  26  33
ENDBRANCH   1  29
TORSDOF 4
ENDMDL
