MODEL 1
REMARK VINA RESULT:      -7.3      0.000      0.000
REMARK  Name = 
REMARK  7 active torsions:
REMARK  status: ('A' for Active; 'I' for Inactive)
REMARK    1  A    between atoms: C_1  and  C_2
REMARK    2  A    between atoms: C_2  and  O_3
REMARK    3  A    between atoms: O_3  and  C_4
REMARK    4  A    between atoms: C_4  and  C_6
REMARK    5  A    between atoms: C_6  and  C_7
REMARK    6  A    between atoms: C_8  and  C_9
REMARK    7  A    between atoms: N_11  and  C_12
REMARK                            x       y       z     vdW  Elec       q    Type
REMARK                         _______ _______ _______ _____ _____    ______ ____
ROOT
ATOM      1  C   UNL     1       6.050   4.653  17.352  0.00  0.00    +0.000 A 
ATOM      2  C   UNL     1       6.415   5.350  18.441  0.00  0.00    +0.000 A 
ATOM      3  C   UNL     1       7.657   6.162  18.598  0.00  0.00    +0.000 C 
ATOM      4  N   UNL     1       5.511   5.205  19.490  0.00  0.00    +0.000 N 
ATOM      5  N   UNL     1       4.581   4.235  19.072  0.00  0.00    +0.000 N 
ATOM      6  C   UNL     1       4.855   3.878  17.753  0.00  0.00    +0.000 A 
ATOM      7  O   UNL     1       4.286   3.112  16.992  0.00  0.00    +0.000 OA
ATOM      8  H   UNL     1       5.979   4.965  20.366  0.00  0.00    +0.000 HD
ENDROOT
BRANCH   5   9
ATOM      9  C   UNL     1       3.447   3.902  19.837  0.00  0.00    +0.000 A 
ATOM     10  C   UNL     1       3.465   2.779  20.678  0.00  0.00    +0.000 A 
ATOM     11  C   UNL     1       2.330   2.386  21.387  0.00  0.00    +0.000 A 
ATOM     12  C   UNL     1       1.155   3.119  21.273  0.00  0.00    +0.000 A 
ATOM     13  C   UNL     1       1.125   4.258  20.466  0.00  0.00    +0.000 A 
ATOM     14  C   UNL     1       2.267   4.655  19.760  0.00  0.00    +0.000 A 
ENDBRANCH   5   9
BRANCH   1  15
ATOM     15  C   UNL     1       6.598   4.526  15.988  0.00  0.00    +0.000 C 
BRANCH  15  16
ATOM     16  C   UNL     1       5.779   5.341  15.020  0.00  0.00    +0.000 C 
ATOM     17  O   UNL     1       5.455   6.512  15.179  0.00  0.00    +0.000 OA
BRANCH  16  18
ATOM     18  O   UNL     1       5.308   4.521  14.037  0.00  0.00    +0.000 OA
BRANCH  18  20
ATOM     19  C   UNL     1       5.693   3.183  12.106  0.00  0.00    +0.000 C 
ATOM     20  C   UNL     1       6.294   3.701  13.402  0.00  0.00    +0.000 C 
ENDBRANCH  18  20
ENDBRANCH  16  18
ENDBRANCH  15  16
ENDBRANCH   1  15
TORSDOF 5
ENDMDL
MODEL 2
REMARK VINA RESULT:      -7.3      1.064      1.567
REMARK  Name = 
REMARK  7 active torsions:
REMARK  status: ('A' for Active; 'I' for Inactive)
REMARK    1  A    between atoms: C_1  and  C_2
REMARK    2  A    between atoms: C_2  and  O_3
REMARK    3  A    between atoms: O_3  and  C_4
REMARK    4  A    between atoms: C_4  and  C_6
REMARK    5  A    between atoms: C_6  and  C_7
REMARK    6  A    between atoms: C_8  and  C_9
REMARK    7  A    between atoms: N_11  and  C_12
REMARK                            x       y       z     vdW  Elec       q    Type
REMARK                         _______ _______ _______ _____ _____    ______ ____
ROOT
ATOM      1  C   UNL     1       5.182   5.367  16.632  0.00  0.00    +0.000 A 
ATOM      2  C   UNL     1       5.740   5.919  17.721  0.00  0.00    +0.000 A 
ATOM      3  C   UNL     1       6.944   6.800  17.749  0.00  0.00    +0.000 C 
ATOM      4  N   UNL     1       5.096   5.541  18.896  0.00  0.00    +0.000 N 
ATOM      5  N   UNL     1       4.147   4.570  18.525  0.00  0.00    +0.000 N 
ATOM      6  C   UNL     1       4.143   4.441  17.137  0.00  0.00    +0.000 A 
ATOM      7  O   UNL     1       3.460   3.754  16.395  0.00  0.00    +0.000 OA
ATOM      8  H   UNL     1       5.755   5.211  19.603  0.00  0.00    +0.000 HD
ENDROOT
BRANCH   5   9
ATOM      9  C   UNL     1       3.226   4.030  19.443  0.00  0.00    +0.000 A 
ATOM     10  C   UNL     1       1.937   4.572  19.553  0.00  0.00    +0.000 A 
ATOM     11  C   UNL     1       1.033   4.105  20.507  0.00  0.00    +0.000 A 
ATOM     12  C   UNL     1       1.403   3.076  21.365  0.00  0.00    +0.000 A 
ATOM     13  C   UNL     1       2.670   2.502  21.252  0.00  0.00    +0.000 A 
ATOM     14  C   UNL     1       3.575   2.968  20.289  0.00  0.00    +0.000 A 
ENDBRANCH   5   9
BRANCH   1  15
ATOM     15  C   UNL     1       5.423   5.495  15.182  0.00  0.00    +0.000 C 
BRANCH  15  16
ATOM     16  C   UNL     1       6.609   4.656  14.776  0.00  0.00    +0.000 C 
ATOM     17  O   UNL     1       7.783   4.972  14.927  0.00  0.00    +0.000 OA
BRANCH  16  18
ATOM     18  O   UNL     1       6.169   3.584  14.056  0.00  0.00    +0.000 OA
BRANCH  18  20
ATOM     19  C   UNL     1       5.116   3.176  11.961  0.00  0.00    +0.000 C 
ATOM     20  C   UNL     1       6.380   3.670  12.643  0.00  0.00    +0.000 C 
ENDBRANCH  18  20
ENDBRANCH  16  18
ENDBRANCH  15  16
ENDBRANCH   1  15
TORSDOF 5
ENDMDL
MODEL 3
REMARK VINA RESULT:      -7.3      1.973      3.853
REMARK  Name = 
REMARK  7 active torsions:
REMARK  status: ('A' for Active; 'I' for Inactive)
REMARK    1  A    between atoms: C_1  and  C_2
REMARK    2  A    between atoms: C_2  and  O_3
REMARK    3  A    between atoms: O_3  and  C_4
REMARK    4  A    between atoms: C_4  and  C_6
REMARK    5  A    between atoms: C_6  and  C_7
REMARK    6  A    between atoms: C_8  and  C_9
REMARK    7  A    between atoms: N_11  and  C_12
REMARK                            x       y       z     vdW  Elec       q    Type
REMARK                         _______ _______ _______ _____ _____    ______ ____
ROOT
ATOM      1  C   UNL     1       6.254   4.745  17.670  0.00  0.00    +0.000 A 
ATOM      2  C   UNL     1       5.603   4.007  16.756  0.00  0.00    +0.000 A 
ATOM      3  C   UNL     1       6.002   3.804  15.333  0.00  0.00    +0.000 C 
ATOM      4  N   UNL     1       4.428   3.455  17.260  0.00  0.00    +0.000 N 
ATOM      5  N   UNL     1       4.262   4.001  18.547  0.00  0.00    +0.000 N 
ATOM      6  C   UNL     1       5.372   4.785  18.858  0.00  0.00    +0.000 A 
ATOM      7  O   UNL     1       5.663   5.404  19.868  0.00  0.00    +0.000 OA
ATOM      8  H   UNL     1       3.631   3.625  16.644  0.00  0.00    +0.000 HD
ENDROOT
BRANCH   5   9
ATOM      9  C   UNL     1       3.231   3.588  19.412  0.00  0.00    +0.000 A 
ATOM     10  C   UNL     1       1.909   4.001  19.184  0.00  0.00    +0.000 A 
ATOM     11  C   UNL     1       0.883   3.668  20.068  0.00  0.00    +0.000 A 
ATOM     12  C   UNL     1       1.163   2.905  21.195  0.00  0.00    +0.000 A 
ATOM     13  C   UNL     1       2.465   2.457  21.423  0.00  0.00    +0.000 A 
ATOM     14  C   UNL     1       3.493   2.787  20.532  0.00  0.00    +0.000 A 
ENDBRANCH   5   9
BRANCH   1  15
ATOM     15  C   UNL     1       7.543   5.463  17.674  0.00  0.00    +0.000 C 
BRANCH  15  16
ATOM     16  C   UNL     1       7.328   6.922  17.361  0.00  0.00    +0.000 C 
ATOM     17  O   UNL     1       6.553   7.356  16.518  0.00  0.00    +0.000 OA
BRANCH  16  18
ATOM     18  O   UNL     1       8.256   7.662  18.032  0.00  0.00    +0.000 OA
BRANCH  18  20
ATOM     19  C   UNL     1       8.991   9.716  18.983  0.00  0.00    +0.000 C 
ATOM     20  C   UNL     1       8.091   9.081  17.937  0.00  0.00    +0.000 C 
ENDBRANCH  18  20
ENDBRANCH  16  18
ENDBRANCH  15  16
ENDBRANCH   1  15
TORSDOF 5
ENDMDL
MODEL 4
REMARK VINA RESULT:      -7.3      1.019      1.080
REMARK  Name = 
REMARK  7 active torsions:
REMARK  status: ('A' for Active; 'I' for Inactive)
REMARK    1  A    between atoms: C_1  and  C_2
REMARK    2  A    between atoms: C_2  and  O_3
REMARK    3  A    between atoms: O_3  and  C_4
REMARK    4  A    between atoms: C_4  and  C_6
REMARK    5  A    between atoms: C_6  and  C_7
REMARK    6  A    between atoms: C_8  and  C_9
REMARK    7  A    between atoms: N_11  and  C_12
REMARK                            x       y       z     vdW  Elec       q    Type
REMARK                         _______ _______ _______ _____ _____    ______ ____
ROOT
ATOM      1  C   UNL     1       5.270   5.411  16.757  0.00  0.00    +0.000 A 
ATOM      2  C   UNL     1       5.883   5.885  17.854  0.00  0.00    +0.000 A 
ATOM      3  C   UNL     1       7.149   6.672  17.892  0.00  0.00    +0.000 C 
ATOM      4  N   UNL     1       5.228   5.517  19.027  0.00  0.00    +0.000 N 
ATOM      5  N   UNL     1       4.204   4.632  18.641  0.00  0.00    +0.000 N 
ATOM      6  C   UNL     1       4.172   4.549  17.249  0.00  0.00    +0.000 A 
ATOM      7  O   UNL     1       3.430   3.939  16.497  0.00  0.00    +0.000 OA
ATOM      8  H   UNL     1       5.870   5.117  19.713  0.00  0.00    +0.000 HD
ENDROOT
BRANCH   5   9
ATOM      9  C   UNL     1       3.257   4.133  19.555  0.00  0.00    +0.000 A 
ATOM     10  C   UNL     1       3.569   3.031  20.366  0.00  0.00    +0.000 A 
ATOM     11  C   UNL     1       2.622   2.471  21.224  0.00  0.00    +0.000 A 
ATOM     12  C   UNL     1       1.345   3.014  21.292  0.00  0.00    +0.000 A 
ATOM     13  C   UNL     1       1.024   4.130  20.518  0.00  0.00    +0.000 A 
ATOM     14  C   UNL     1       1.977   4.694  19.661  0.00  0.00    +0.000 A 
ENDBRANCH   5   9
BRANCH   1  15
ATOM     15  C   UNL     1       5.502   5.567  15.308  0.00  0.00    +0.000 C 
BRANCH  15  16
ATOM     16  C   UNL     1       6.602   4.641  14.854  0.00  0.00    +0.000 C 
ATOM     17  O   UNL     1       7.800   4.826  15.033  0.00  0.00    +0.000 OA
BRANCH  16  18
ATOM     18  O   UNL     1       6.066   3.670  14.062  0.00  0.00    +0.000 OA
BRANCH  18  20
ATOM     19  C   UNL     1       5.428   2.896  11.903  0.00  0.00    +0.000 C 
ATOM     20  C   UNL     1       6.422   3.745  12.677  0.00  0.00    +0.000 C 
ENDBRANCH  18  20
ENDBRANCH  16  18
ENDBRANCH  15  16
ENDBRANCH   1  15
TORSDOF 5
ENDMDL
MODEL 5
REMARK VINA RESULT:      -7.1      0.234      1.124
REMARK  Name = 
REMARK  7 active torsions:
REMARK  status: ('A' for Active; 'I' for Inactive)
REMARK    1  A    between atoms: C_1  and  C_2
REMARK    2  A    between atoms: C_2  and  O_3
REMARK    3  A    between atoms: O_3  and  C_4
REMARK    4  A    between atoms: C_4  and  C_6
REMARK    5  A    between atoms: C_6  and  C_7
REMARK    6  A    between atoms: C_8  and  C_9
REMARK    7  A    between atoms: N_11  and  C_12
REMARK                            x       y       z     vdW  Elec       q    Type
REMARK                         _______ _______ _______ _____ _____    ______ ____
ROOT
ATOM      1  C   UNL     1       6.073   4.571  17.360  0.00  0.00    +0.000 A 
ATOM      2  C   UNL     1       6.478   5.104  18.524  0.00  0.00    +0.000 A 
ATOM      3  C   UNL     1       7.765   5.816  18.772  0.00  0.00    +0.000 C 
ATOM      4  N   UNL     1       5.567   4.882  19.553  0.00  0.00    +0.000 N 
ATOM      5  N   UNL     1       4.581   4.027  19.024  0.00  0.00    +0.000 N 
ATOM      6  C   UNL     1       4.834   3.822  17.669  0.00  0.00    +0.000 A 
ATOM      7  O   UNL     1       4.221   3.192  16.823  0.00  0.00    +0.000 OA
ATOM      8  H   UNL     1       6.019   4.507  20.389  0.00  0.00    +0.000 HD
ENDROOT
BRANCH   5   9
ATOM      9  C   UNL     1       3.430   3.668  19.750  0.00  0.00    +0.000 A 
ATOM     10  C   UNL     1       2.217   4.339  19.530  0.00  0.00    +0.000 A 
ATOM     11  C   UNL     1       1.083   4.054  20.290  0.00  0.00    +0.000 A 
ATOM     12  C   UNL     1       1.141   3.081  21.280  0.00  0.00    +0.000 A 
ATOM     13  C   UNL     1       2.328   2.380  21.494  0.00  0.00    +0.000 A 
ATOM     14  C   UNL     1       3.465   2.663  20.727  0.00  0.00    +0.000 A 
ENDBRANCH   5   9
BRANCH   1  15
ATOM     15  C   UNL     1       6.613   4.583  15.987  0.00  0.00    +0.000 C 
BRANCH  15  16
ATOM     16  C   UNL     1       5.771   5.469  15.104  0.00  0.00    +0.000 C 
ATOM     17  O   UNL     1       5.372   6.589  15.401  0.00  0.00    +0.000 OA
BRANCH  16  18
ATOM     18  O   UNL     1       5.376   4.759  14.008  0.00  0.00    +0.000 OA
BRANCH  18  20
ATOM     19  C   UNL     1       5.883   3.277  12.216  0.00  0.00    +0.000 C 
ATOM     20  C   UNL     1       6.241   3.680  13.637  0.00  0.00    +0.000 C 
ENDBRANCH  18  20
ENDBRANCH  16  18
ENDBRANCH  15  16
ENDBRANCH   1  15
TORSDOF 5
ENDMDL
MODEL 6
REMARK VINA RESULT:      -7.1      2.435      4.243
REMARK  Name = 
REMARK  7 active torsions:
REMARK  status: ('A' for Active; 'I' for Inactive)
REMARK    1  A    between atoms: C_1  and  C_2
REMARK    2  A    between atoms: C_2  and  O_3
REMARK    3  A    between atoms: O_3  and  C_4
REMARK    4  A    between atoms: C_4  and  C_6
REMARK    5  A    between atoms: C_6  and  C_7
REMARK    6  A    between atoms: C_8  and  C_9
REMARK    7  A    between atoms: N_11  and  C_12
REMARK                            x       y       z     vdW  Elec       q    Type
REMARK                         _______ _______ _______ _____ _____    ______ ____
ROOT
ATOM      1  C   UNL     1       6.574   5.087  17.752  0.00  0.00    +0.000 A 
ATOM      2  C   UNL     1       6.362   4.451  16.588  0.00  0.00    +0.000 A 
ATOM      3  C   UNL     1       7.244   4.485  15.386  0.00  0.00    +0.000 C 
ATOM      4  N   UNL     1       5.154   3.758  16.577  0.00  0.00    +0.000 N 
ATOM      5  N   UNL     1       4.498   4.097  17.775  0.00  0.00    +0.000 N 
ATOM      6  C   UNL     1       5.340   4.896  18.547  0.00  0.00    +0.000 A 
ATOM      7  O   UNL     1       5.196   5.377  19.659  0.00  0.00    +0.000 OA
ATOM      8  H   UNL     1       4.603   3.965  15.743  0.00  0.00    +0.000 HD
ENDROOT
BRANCH   5   9
ATOM      9  C   UNL     1       3.285   3.497  18.164  0.00  0.00    +0.000 A 
ATOM     10  C   UNL     1       2.073   4.185  18.008  0.00  0.00    +0.000 A 
ATOM     11  C   UNL     1       0.868   3.644  18.456  0.00  0.00    +0.000 A 
ATOM     12  C   UNL     1       0.856   2.393  19.060  0.00  0.00    +0.000 A 
ATOM     13  C   UNL     1       2.046   1.677  19.197  0.00  0.00    +0.000 A 
ATOM     14  C   UNL     1       3.254   2.220  18.742  0.00  0.00    +0.000 A 
ENDBRANCH   5   9
BRANCH   1  15
ATOM     15  C   UNL     1       7.696   5.876  18.296  0.00  0.00    +0.000 C 
BRANCH  15  16
ATOM     16  C   UNL     1       7.597   7.308  17.832  0.00  0.00    +0.000 C 
ATOM     17  O   UNL     1       6.952   7.695  16.866  0.00  0.00    +0.000 OA
BRANCH  16  18
ATOM     18  O   UNL     1       8.478   8.067  18.545  0.00  0.00    +0.000 OA
BRANCH  18  20
ATOM     19  C   UNL     1       9.270  10.179  19.305  0.00  0.00    +0.000 C 
ATOM     20  C   UNL     1       8.485   9.461  18.220  0.00  0.00    +0.000 C 
ENDBRANCH  18  20
ENDBRANCH  16  18
ENDBRANCH  15  16
ENDBRANCH   1  15
TORSDOF 5
ENDMDL
MODEL 7
REMARK VINA RESULT:      -7.1      2.862      6.241
REMARK  Name = 
REMARK  7 active torsions:
REMARK  status: ('A' for Active; 'I' for Inactive)
REMARK    1  A    between atoms: C_1  and  C_2
REMARK    2  A    between atoms: C_2  and  O_3
REMARK    3  A    between atoms: O_3  and  C_4
REMARK    4  A    between atoms: C_4  and  C_6
REMARK    5  A    between atoms: C_6  and  C_7
REMARK    6  A    between atoms: C_8  and  C_9
REMARK    7  A    between atoms: N_11  and  C_12
REMARK                            x       y       z     vdW  Elec       q    Type
REMARK                         _______ _______ _______ _____ _____    ______ ____
ROOT
ATOM      1  C   UNL     1       2.847   3.917  17.941  0.00  0.00    +0.000 A 
ATOM      2  C   UNL     1       3.792   2.969  18.046  0.00  0.00    +0.000 A 
ATOM      3  C   UNL     1       3.566   1.495  18.104  0.00  0.00    +0.000 C 
ATOM      4  N   UNL     1       5.072   3.506  18.154  0.00  0.00    +0.000 N 
ATOM      5  N   UNL     1       4.902   4.900  18.261  0.00  0.00    +0.000 N 
ATOM      6  C   UNL     1       3.551   5.208  18.113  0.00  0.00    +0.000 A 
ATOM      7  O   UNL     1       2.967   6.279  18.097  0.00  0.00    +0.000 OA
ATOM      8  H   UNL     1       5.591   3.102  18.935  0.00  0.00    +0.000 HD
ENDROOT
BRANCH   5   9
ATOM      9  C   UNL     1       5.992   5.790  18.279  0.00  0.00    +0.000 A 
ATOM     10  C   UNL     1       6.062   6.842  17.353  0.00  0.00    +0.000 A 
ATOM     11  C   UNL     1       7.168   7.690  17.301  0.00  0.00    +0.000 A 
ATOM     12  C   UNL     1       8.223   7.505  18.186  0.00  0.00    +0.000 A 
ATOM     13  C   UNL     1       8.160   6.484  19.136  0.00  0.00    +0.000 A 
ATOM     14  C   UNL     1       7.046   5.637  19.190  0.00  0.00    +0.000 A 
ENDBRANCH   5   9
BRANCH   1  15
ATOM     15  C   UNL     1       1.387   3.887  17.734  0.00  0.00    +0.000 C 
BRANCH  15  16
ATOM     16  C   UNL     1       0.733   2.997  18.761  0.00  0.00    +0.000 C 
ATOM     17  O   UNL     1       0.155   1.945  18.518  0.00  0.00    +0.000 OA
BRANCH  16  18
ATOM     18  O   UNL     1       0.731   3.637  19.966  0.00  0.00    +0.000 OA
BRANCH  18  20
ATOM     19  C   UNL     1       2.382   3.596  21.679  0.00  0.00    +0.000 C 
ATOM     20  C   UNL     1       1.201   2.858  21.071  0.00  0.00    +0.000 C 
ENDBRANCH  18  20
ENDBRANCH  16  18
ENDBRANCH  15  16
ENDBRANCH   1  15
TORSDOF 5
ENDMDL
MODEL 8
REMARK VINA RESULT:      -7.1      2.463      4.133
REMARK  Name = 
REMARK  7 active torsions:
REMARK  status: ('A' for Active; 'I' for Inactive)
REMARK    1  A    between atoms: C_1  and  C_2
REMARK    2  A    between atoms: C_2  and  O_3
REMARK    3  A    between atoms: O_3  and  C_4
REMARK    4  A    between atoms: C_4  and  C_6
REMARK    5  A    between atoms: C_6  and  C_7
REMARK    6  A    between atoms: C_8  and  C_9
REMARK    7  A    between atoms: N_11  and  C_12
REMARK                            x       y       z     vdW  Elec       q    Type
REMARK                         _______ _______ _______ _____ _____    ______ ____
ROOT
ATOM      1  C   UNL     1       6.622   5.156  17.732  0.00  0.00    +0.000 A 
ATOM      2  C   UNL     1       6.382   4.517  16.575  0.00  0.00    +0.000 A 
ATOM      3  C   UNL     1       7.246   4.531  15.359  0.00  0.00    +0.000 C 
ATOM      4  N   UNL     1       5.165   3.840  16.587  0.00  0.00    +0.000 N 
ATOM      5  N   UNL     1       4.533   4.195  17.794  0.00  0.00    +0.000 N 
ATOM      6  C   UNL     1       5.398   4.987  18.547  0.00  0.00    +0.000 A 
ATOM      7  O   UNL     1       5.278   5.477  19.658  0.00  0.00    +0.000 OA
ATOM      8  H   UNL     1       4.604   4.051  15.760  0.00  0.00    +0.000 HD
ENDROOT
BRANCH   5   9
ATOM      9  C   UNL     1       3.318   3.615  18.205  0.00  0.00    +0.000 A 
ATOM     10  C   UNL     1       3.314   2.380  18.870  0.00  0.00    +0.000 A 
ATOM     11  C   UNL     1       2.120   1.748  19.219  0.00  0.00    +0.000 A 
ATOM     12  C   UNL     1       0.905   2.350  18.916  0.00  0.00    +0.000 A 
ATOM     13  C   UNL     1       0.887   3.594  18.282  0.00  0.00    +0.000 A 
ATOM     14  C   UNL     1       2.087   4.229  17.937  0.00  0.00    +0.000 A 
ENDBRANCH   5   9
BRANCH   1  15
ATOM     15  C   UNL     1       7.763   5.933  18.253  0.00  0.00    +0.000 C 
BRANCH  15  16
ATOM     16  C   UNL     1       7.653   7.373  17.821  0.00  0.00    +0.000 C 
ATOM     17  O   UNL     1       7.040   7.771  16.837  0.00  0.00    +0.000 OA
BRANCH  16  18
ATOM     18  O   UNL     1       8.487   8.132  18.587  0.00  0.00    +0.000 OA
BRANCH  18  20
ATOM     19  C   UNL     1       9.285  10.242  19.348  0.00  0.00    +0.000 C 
ATOM     20  C   UNL     1       8.552   9.517  18.232  0.00  0.00    +0.000 C 
ENDBRANCH  18  20
ENDBRANCH  16  18
ENDBRANCH  15  16
ENDBRANCH   1  15
TORSDOF 5
ENDMDL
MODEL 9
REMARK VINA RESULT:      -7.0      2.169      3.850
REMARK  Name = 
REMARK  7 active torsions:
REMARK  status: ('A' for Active; 'I' for Inactive)
REMARK    1  A    between atoms: C_1  and  C_2
REMARK    2  A    between atoms: C_2  and  O_3
REMARK    3  A    between atoms: O_3  and  C_4
REMARK    4  A    between atoms: C_4  and  C_6
REMARK    5  A    between atoms: C_6  and  C_7
REMARK    6  A    between atoms: C_8  and  C_9
REMARK    7  A    between atoms: N_11  and  C_12
REMARK                            x       y       z     vdW  Elec       q    Type
REMARK                         _______ _______ _______ _____ _____    ______ ____
ROOT
ATOM      1  C   UNL     1       5.243   5.449  16.931  0.00  0.00    +0.000 A 
ATOM      2  C   UNL     1       5.331   4.167  16.539  0.00  0.00    +0.000 A 
ATOM      3  C   UNL     1       6.108   3.647  15.377  0.00  0.00    +0.000 C 
ATOM      4  N   UNL     1       4.553   3.319  17.323  0.00  0.00    +0.000 N 
ATOM      5  N   UNL     1       3.815   4.153  18.185  0.00  0.00    +0.000 N 
ATOM      6  C   UNL     1       4.219   5.474  18.000  0.00  0.00    +0.000 A 
ATOM      7  O   UNL     1       3.879   6.505  18.556  0.00  0.00    +0.000 OA
ATOM      8  H   UNL     1       3.966   2.706  16.755  0.00  0.00    +0.000 HD
ENDROOT
BRANCH   5   9
ATOM      9  C   UNL     1       2.991   3.639  19.204  0.00  0.00    +0.000 A 
ATOM     10  C   UNL     1       1.603   3.838  19.160  0.00  0.00    +0.000 A 
ATOM     11  C   UNL     1       0.775   3.406  20.195  0.00  0.00    +0.000 A 
ATOM     12  C   UNL     1       1.324   2.755  21.293  0.00  0.00    +0.000 A 
ATOM     13  C   UNL     1       2.699   2.519  21.343  0.00  0.00    +0.000 A 
ATOM     14  C   UNL     1       3.529   2.949  20.299  0.00  0.00    +0.000 A 
ENDBRANCH   5   9
BRANCH   1  15
ATOM     15  C   UNL     1       5.902   6.697  16.501  0.00  0.00    +0.000 C 
BRANCH  15  16
ATOM     16  C   UNL     1       7.133   6.950  17.335  0.00  0.00    +0.000 C 
ATOM     17  O   UNL     1       7.714   6.109  18.009  0.00  0.00    +0.000 OA
BRANCH  16  18
ATOM     18  O   UNL     1       7.383   8.290  17.361  0.00  0.00    +0.000 OA
BRANCH  18  20
ATOM     19  C   UNL     1       8.727  10.157  17.971  0.00  0.00    +0.000 C 
ATOM     20  C   UNL     1       8.410   8.702  18.270  0.00  0.00    +0.000 C 
ENDBRANCH  18  20
ENDBRANCH  16  18
ENDBRANCH  15  16
ENDBRANCH   1  15
TORSDOF 5
ENDMDL
