MODEL 1
REMARK VINA RESULT:      -7.2      0.000      0.000
REMARK  Name = 
REMARK  7 active torsions:
REMARK  status: ('A' for Active; 'I' for Inactive)
REMARK    1  A    between atoms: C_1  and  O_2
REMARK    2  A    between atoms: O_2  and  C_3
REMARK    3  A    between atoms: C_7  and  C_8
REMARK    4  A    between atoms: N_11  and  C_12
REMARK    5  A    between atoms: C_12  and  C_13
REMARK    6  A    between atoms: C_16  and  C_17
REMARK    7  A    between atoms: C_20  and  O_21
REMARK                            x       y       z     vdW  Elec       q    Type
REMARK                         _______ _______ _______ _____ _____    ______ ____
ROOT
ATOM      1  C   UNL     1       5.164   5.437  18.849  0.00  0.00    +0.000 C 
ATOM      2  C   UNL     1       5.239   6.603  17.836  0.00  0.00    +0.000 C 
ATOM      3  C   UNL     1       4.635   6.232  16.483  0.00  0.00    +0.000 C 
ATOM      4  N   UNL     1       5.239   5.049  15.856  0.00  0.00    +0.000 NA
ATOM      5  C   UNL     1       5.210   3.899  16.776  0.00  0.00    +0.000 C 
ATOM      6  C   UNL     1       5.753   4.155  18.206  0.00  0.00    +0.000 C 
ENDROOT
BRANCH   1  11
ATOM      7  C   UNL     1       1.908   3.830  20.087  0.00  0.00    +0.000 A 
ATOM      8  C   UNL     1       1.187   4.930  20.539  0.00  0.00    +0.000 A 
ATOM      9  C   UNL     1       1.740   6.203  20.469  0.00  0.00    +0.000 A 
ATOM     10  C   UNL     1       3.017   6.382  19.937  0.00  0.00    +0.000 A 
ATOM     11  C   UNL     1       3.770   5.294  19.469  0.00  0.00    +0.000 A 
ATOM     12  C   UNL     1       3.183   4.013  19.541  0.00  0.00    +0.000 A 
BRANCH   7  14
ATOM     13  C   UNL     1       0.735   2.124  18.955  0.00  0.00    +0.000 C 
ATOM     14  O   UNL     1       1.259   2.633  20.176  0.00  0.00    +0.000 OA
ENDBRANCH   7  14
ENDBRANCH   1  11
BRANCH   6  15
ATOM     15  O   UNL     1       7.189   4.189  18.195  0.00  0.00    +0.000 OA
ATOM     16  H   UNL     1       7.482   4.848  17.544  0.00  0.00    +0.000 HD
ENDBRANCH   6  15
BRANCH   4  17
ATOM     17  C   UNL     1       6.594   5.259  15.320  0.00  0.00    +0.000 C 
BRANCH  17  18
ATOM     18  C   UNL     1       6.744   4.694  13.946  0.00  0.00    +0.000 A 
ATOM     19  C   UNL     1       7.612   5.045  12.933  0.00  0.00    +0.000 A 
ATOM     20  N   UNL     1       7.326   4.192  11.905  0.00  0.00    +0.000 N 
ATOM     21  C   UNL     1       6.312   3.363  12.312  0.00  0.00    +0.000 A 
ATOM     22  C   UNL     1       5.756   2.287  11.461  0.00  0.00    +0.000 C 
ATOM     23  N   UNL     1       5.941   3.651  13.540  0.00  0.00    +0.000 NA
ATOM     24  H   UNL     1       7.787   4.165  11.006  0.00  0.00    +0.000 HD
ENDBRANCH  17  18
ENDBRANCH   4  17
TORSDOF 5
ENDMDL
MODEL 2
REMARK VINA RESULT:      -7.2      2.609      7.132
REMARK  Name = 
REMARK  7 active torsions:
REMARK  status: ('A' for Active; 'I' for Inactive)
REMARK    1  A    between atoms: C_1  and  O_2
REMARK    2  A    between atoms: O_2  and  C_3
REMARK    3  A    between atoms: C_7  and  C_8
REMARK    4  A    between atoms: N_11  and  C_12
REMARK    5  A    between atoms: C_12  and  C_13
REMARK    6  A    between atoms: C_16  and  C_17
REMARK    7  A    between atoms: C_20  and  O_21
REMARK                            x       y       z     vdW  Elec       q    Type
REMARK                         _______ _______ _______ _____ _____    ______ ____
ROOT
ATOM      1  C   UNL     1       6.826   4.800  16.136  0.00  0.00    +0.000 C 
ATOM      2  C   UNL     1       5.800   3.813  16.738  0.00  0.00    +0.000 C 
ATOM      3  C   UNL     1       4.362   4.304  16.573  0.00  0.00    +0.000 C 
ATOM      4  N   UNL     1       4.107   5.630  17.151  0.00  0.00    +0.000 NA
ATOM      5  C   UNL     1       5.062   6.620  16.625  0.00  0.00    +0.000 C 
ATOM      6  C   UNL     1       6.560   6.225  16.688  0.00  0.00    +0.000 C 
ENDROOT
BRANCH   1  11
ATOM      7  C   UNL     1       6.191   3.561  12.561  0.00  0.00    +0.000 A 
ATOM      8  C   UNL     1       7.067   4.344  11.815  0.00  0.00    +0.000 A 
ATOM      9  C   UNL     1       7.863   5.292  12.446  0.00  0.00    +0.000 A 
ATOM     10  C   UNL     1       7.792   5.456  13.829  0.00  0.00    +0.000 A 
ATOM     11  C   UNL     1       6.922   4.681  14.611  0.00  0.00    +0.000 A 
ATOM     12  C   UNL     1       6.131   3.717  13.950  0.00  0.00    +0.000 A 
BRANCH   7  14
ATOM     13  C   UNL     1       4.244   3.102  11.309  0.00  0.00    +0.000 C 
ATOM     14  O   UNL     1       5.479   2.642  11.845  0.00  0.00    +0.000 OA
ENDBRANCH   7  14
ENDBRANCH   1  11
BRANCH   6  15
ATOM     15  O   UNL     1       7.056   6.365  18.029  0.00  0.00    +0.000 OA
ATOM     16  H   UNL     1       7.818   5.774  18.145  0.00  0.00    +0.000 HD
ENDBRANCH   6  15
BRANCH   4  17
ATOM     17  C   UNL     1       4.070   5.666  18.622  0.00  0.00    +0.000 C 
BRANCH  17  18
ATOM     18  C   UNL     1       2.936   4.862  19.171  0.00  0.00    +0.000 A 
ATOM     19  C   UNL     1       1.668   4.660  18.669  0.00  0.00    +0.000 A 
ATOM     20  N   UNL     1       1.056   3.831  19.564  0.00  0.00    +0.000 N 
ATOM     21  C   UNL     1       1.950   3.556  20.568  0.00  0.00    +0.000 A 
ATOM     22  C   UNL     1       1.639   2.663  21.706  0.00  0.00    +0.000 C 
ATOM     23  N   UNL     1       3.092   4.172  20.354  0.00  0.00    +0.000 NA
ATOM     24  H   UNL     1       0.114   3.470  19.497  0.00  0.00    +0.000 HD
ENDBRANCH  17  18
ENDBRANCH   4  17
TORSDOF 5
ENDMDL
MODEL 3
REMARK VINA RESULT:      -7.2      2.521      7.024
REMARK  Name = 
REMARK  7 active torsions:
REMARK  status: ('A' for Active; 'I' for Inactive)
REMARK    1  A    between atoms: C_1  and  O_2
REMARK    2  A    between atoms: O_2  and  C_3
REMARK    3  A    between atoms: C_7  and  C_8
REMARK    4  A    between atoms: N_11  and  C_12
REMARK    5  A    between atoms: C_12  and  C_13
REMARK    6  A    between atoms: C_16  and  C_17
REMARK    7  A    between atoms: C_20  and  O_21
REMARK                            x       y       z     vdW  Elec       q    Type
REMARK                         _______ _______ _______ _____ _____    ______ ____
ROOT
ATOM      1  C   UNL     1       6.599   3.869  16.126  0.00  0.00    +0.000 C 
ATOM      2  C   UNL     1       5.146   3.757  16.641  0.00  0.00    +0.000 C 
ATOM      3  C   UNL     1       4.474   5.123  16.773  0.00  0.00    +0.000 C 
ATOM      4  N   UNL     1       5.189   6.067  17.641  0.00  0.00    +0.000 NA
ATOM      5  C   UNL     1       6.590   6.212  17.211  0.00  0.00    +0.000 C 
ATOM      6  C   UNL     1       7.378   4.894  16.992  0.00  0.00    +0.000 C 
ENDROOT
BRANCH   1  11
ATOM      7  C   UNL     1       5.886   3.449  12.380  0.00  0.00    +0.000 A 
ATOM      8  C   UNL     1       6.753   4.374  11.807  0.00  0.00    +0.000 A 
ATOM      9  C   UNL     1       7.568   5.157  12.614  0.00  0.00    +0.000 A 
ATOM     10  C   UNL     1       7.526   5.014  14.000  0.00  0.00    +0.000 A 
ATOM     11  C   UNL     1       6.665   4.089  14.611  0.00  0.00    +0.000 A 
ATOM     12  C   UNL     1       5.854   3.296  13.770  0.00  0.00    +0.000 A 
BRANCH   7  14
ATOM     13  C   UNL     1       3.915   3.286  11.092  0.00  0.00    +0.000 C 
ATOM     14  O   UNL     1       5.153   2.712  11.495  0.00  0.00    +0.000 OA
ENDBRANCH   7  14
ENDBRANCH   1  11
BRANCH   6  15
ATOM     15  O   UNL     1       7.759   4.326  18.255  0.00  0.00    +0.000 OA
ATOM     16  H   UNL     1       8.629   3.905  18.159  0.00  0.00    +0.000 HD
ENDBRANCH   6  15
BRANCH   4  17
ATOM     17  C   UNL     1       5.110   5.763  19.080  0.00  0.00    +0.000 C 
BRANCH  17  18
ATOM     18  C   UNL     1       3.701   5.562  19.531  0.00  0.00    +0.000 A 
ATOM     19  C   UNL     1       2.658   6.462  19.611  0.00  0.00    +0.000 A 
ATOM     20  N   UNL     1       1.596   5.739  20.071  0.00  0.00    +0.000 N 
ATOM     21  C   UNL     1       2.012   4.445  20.256  0.00  0.00    +0.000 A 
ATOM     22  C   UNL     1       1.114   3.366  20.727  0.00  0.00    +0.000 C 
ATOM     23  N   UNL     1       3.281   4.315  19.941  0.00  0.00    +0.000 NA
ATOM     24  H   UNL     1       0.662   6.089  20.235  0.00  0.00    +0.000 HD
ENDBRANCH  17  18
ENDBRANCH   4  17
TORSDOF 5
ENDMDL
MODEL 4
REMARK VINA RESULT:      -6.9      1.111      1.979
REMARK  Name = 
REMARK  7 active torsions:
REMARK  status: ('A' for Active; 'I' for Inactive)
REMARK    1  A    between atoms: C_1  and  O_2
REMARK    2  A    between atoms: O_2  and  C_3
REMARK    3  A    between atoms: C_7  and  C_8
REMARK    4  A    between atoms: N_11  and  C_12
REMARK    5  A    between atoms: C_12  and  C_13
REMARK    6  A    between atoms: C_16  and  C_17
REMARK    7  A    between atoms: C_20  and  O_21
REMARK                            x       y       z     vdW  Elec       q    Type
REMARK                         _______ _______ _______ _____ _____    ______ ____
ROOT
ATOM      1  C   UNL     1       5.217   5.318  18.843  0.00  0.00    +0.000 C 
ATOM      2  C   UNL     1       5.207   6.515  17.865  0.00  0.00    +0.000 C 
ATOM      3  C   UNL     1       4.583   6.152  16.518  0.00  0.00    +0.000 C 
ATOM      4  N   UNL     1       5.226   5.020  15.840  0.00  0.00    +0.000 NA
ATOM      5  C   UNL     1       5.279   3.844  16.725  0.00  0.00    +0.000 C 
ATOM      6  C   UNL     1       5.850   4.085  18.147  0.00  0.00    +0.000 C 
ENDROOT
BRANCH   1  11
ATOM      7  C   UNL     1       1.837   6.051  20.504  0.00  0.00    +0.000 A 
ATOM      8  C   UNL     1       1.349   4.774  20.759  0.00  0.00    +0.000 A 
ATOM      9  C   UNL     1       2.088   3.658  20.388  0.00  0.00    +0.000 A 
ATOM     10  C   UNL     1       3.327   3.814  19.766  0.00  0.00    +0.000 A 
ATOM     11  C   UNL     1       3.850   5.089  19.496  0.00  0.00    +0.000 A 
ATOM     12  C   UNL     1       3.086   6.207  19.893  0.00  0.00    +0.000 A 
BRANCH   7  14
ATOM     13  C   UNL     1       1.460   8.380  20.553  0.00  0.00    +0.000 C 
ATOM     14  O   UNL     1       1.044   7.074  20.936  0.00  0.00    +0.000 OA
ENDBRANCH   7  14
ENDBRANCH   1  11
BRANCH   6  15
ATOM     15  O   UNL     1       7.281   4.190  18.098  0.00  0.00    +0.000 OA
ATOM     16  H   UNL     1       7.531   5.122  18.209  0.00  0.00    +0.000 HD
ENDBRANCH   6  15
BRANCH   4  17
ATOM     17  C   UNL     1       6.554   5.312  15.274  0.00  0.00    +0.000 C 
BRANCH  17  18
ATOM     18  C   UNL     1       6.726   4.713  13.916  0.00  0.00    +0.000 A 
ATOM     19  C   UNL     1       7.636   5.012  12.924  0.00  0.00    +0.000 A 
ATOM     20  N   UNL     1       7.352   4.149  11.905  0.00  0.00    +0.000 N 
ATOM     21  C   UNL     1       6.296   3.363  12.296  0.00  0.00    +0.000 A 
ATOM     22  C   UNL     1       5.729   2.290  11.450  0.00  0.00    +0.000 C 
ATOM     23  N   UNL     1       5.899   3.689  13.506  0.00  0.00    +0.000 NA
ATOM     24  H   UNL     1       7.838   4.087  11.021  0.00  0.00    +0.000 HD
ENDBRANCH  17  18
ENDBRANCH   4  17
TORSDOF 5
ENDMDL
MODEL 5
REMARK VINA RESULT:      -6.9      2.591      7.062
REMARK  Name = 
REMARK  7 active torsions:
REMARK  status: ('A' for Active; 'I' for Inactive)
REMARK    1  A    between atoms: C_1  and  O_2
REMARK    2  A    between atoms: O_2  and  C_3
REMARK    3  A    between atoms: C_7  and  C_8
REMARK    4  A    between atoms: N_11  and  C_12
REMARK    5  A    between atoms: C_12  and  C_13
REMARK    6  A    between atoms: C_16  and  C_17
REMARK    7  A    between atoms: C_20  and  O_21
REMARK                            x       y       z     vdW  Elec       q    Type
REMARK                         _______ _______ _______ _____ _____    ______ ____
ROOT
ATOM      1  C   UNL     1       5.750   5.683  15.652  0.00  0.00    +0.000 C 
ATOM      2  C   UNL     1       6.879   5.897  16.686  0.00  0.00    +0.000 C 
ATOM      3  C   UNL     1       7.281   4.595  17.377  0.00  0.00    +0.000 C 
ATOM      4  N   UNL     1       6.176   3.903  18.051  0.00  0.00    +0.000 NA
ATOM      5  C   UNL     1       5.057   3.677  17.121  0.00  0.00    +0.000 C 
ATOM      6  C   UNL     1       4.579   4.913  16.315  0.00  0.00    +0.000 C 
ENDROOT
BRANCH   1  11
ATOM      7  C   UNL     1       5.944   3.544  12.473  0.00  0.00    +0.000 A 
ATOM      8  C   UNL     1       7.168   3.925  11.933  0.00  0.00    +0.000 A 
ATOM      9  C   UNL     1       7.943   4.886  12.571  0.00  0.00    +0.000 A 
ATOM     10  C   UNL     1       7.499   5.465  13.759  0.00  0.00    +0.000 A 
ATOM     11  C   UNL     1       6.271   5.101  14.333  0.00  0.00    +0.000 A 
ATOM     12  C   UNL     1       5.507   4.115  13.673  0.00  0.00    +0.000 A 
BRANCH   7  14
ATOM     13  C   UNL     1       4.075   2.983  11.147  0.00  0.00    +0.000 C 
ATOM     14  O   UNL     1       5.281   2.572  11.781  0.00  0.00    +0.000 OA
ENDBRANCH   7  14
ENDBRANCH   1  11
BRANCH   6  15
ATOM     15  O   UNL     1       3.792   5.777  17.149  0.00  0.00    +0.000 OA
ATOM     16  H   UNL     1       4.320   6.032  17.924  0.00  0.00    +0.000 HD
ENDBRANCH   6  15
BRANCH   4  17
ATOM     17  C   UNL     1       5.707   4.547  19.290  0.00  0.00    +0.000 C 
BRANCH  17  18
ATOM     18  C   UNL     1       4.453   3.921  19.804  0.00  0.00    +0.000 A 
ATOM     19  C   UNL     1       4.236   2.658  20.314  0.00  0.00    +0.000 A 
ATOM     20  N   UNL     1       2.912   2.628  20.646  0.00  0.00    +0.000 N 
ATOM     21  C   UNL     1       2.369   3.849  20.335  0.00  0.00    +0.000 A 
ATOM     22  C   UNL     1       0.950   4.190  20.583  0.00  0.00    +0.000 C 
ATOM     23  N   UNL     1       3.280   4.645  19.820  0.00  0.00    +0.000 NA
ATOM     24  H   UNL     1       2.418   1.850  21.060  0.00  0.00    +0.000 HD
ENDBRANCH  17  18
ENDBRANCH   4  17
TORSDOF 5
ENDMDL
MODEL 6
REMARK VINA RESULT:      -6.8      2.615      6.932
REMARK  Name = 
REMARK  7 active torsions:
REMARK  status: ('A' for Active; 'I' for Inactive)
REMARK    1  A    between atoms: C_1  and  O_2
REMARK    2  A    between atoms: O_2  and  C_3
REMARK    3  A    between atoms: C_7  and  C_8
REMARK    4  A    between atoms: N_11  and  C_12
REMARK    5  A    between atoms: C_12  and  C_13
REMARK    6  A    between atoms: C_16  and  C_17
REMARK    7  A    between atoms: C_20  and  O_21
REMARK                            x       y       z     vdW  Elec       q    Type
REMARK                         _______ _______ _______ _____ _____    ______ ____
ROOT
ATOM      1  C   UNL     1       6.923   4.708  16.037  0.00  0.00    +0.000 C 
ATOM      2  C   UNL     1       5.796   3.840  16.643  0.00  0.00    +0.000 C 
ATOM      3  C   UNL     1       4.429   4.515  16.536  0.00  0.00    +0.000 C 
ATOM      4  N   UNL     1       4.361   5.843  17.158  0.00  0.00    +0.000 NA
ATOM      5  C   UNL     1       5.420   6.721  16.630  0.00  0.00    +0.000 C 
ATOM      6  C   UNL     1       6.856   6.137  16.636  0.00  0.00    +0.000 C 
ENDROOT
BRANCH   1  11
ATOM      7  C   UNL     1       6.179   3.533  12.461  0.00  0.00    +0.000 A 
ATOM      8  C   UNL     1       7.004   4.355  11.700  0.00  0.00    +0.000 A 
ATOM      9  C   UNL     1       7.799   5.310  12.321  0.00  0.00    +0.000 A 
ATOM     10  C   UNL     1       7.780   5.442  13.710  0.00  0.00    +0.000 A 
ATOM     11  C   UNL     1       6.961   4.626  14.507  0.00  0.00    +0.000 A 
ATOM     12  C   UNL     1       6.171   3.656  13.855  0.00  0.00    +0.000 A 
BRANCH   7  14
ATOM     13  C   UNL     1       4.209   3.058  11.253  0.00  0.00    +0.000 C 
ATOM     14  O   UNL     1       5.464   2.611  11.752  0.00  0.00    +0.000 OA
ENDBRANCH   7  14
ENDBRANCH   1  11
BRANCH   6  15
ATOM     15  O   UNL     1       7.403   6.171  17.964  0.00  0.00    +0.000 OA
ATOM     16  H   UNL     1       8.358   6.340  17.906  0.00  0.00    +0.000 HD
ENDBRANCH   6  15
BRANCH   4  17
ATOM     17  C   UNL     1       4.369   5.837  18.630  0.00  0.00    +0.000 C 
BRANCH  17  18
ATOM     18  C   UNL     1       3.639   4.659  19.187  0.00  0.00    +0.000 A 
ATOM     19  C   UNL     1       4.111   3.585  19.911  0.00  0.00    +0.000 A 
ATOM     20  N   UNL     1       3.012   2.819  20.174  0.00  0.00    +0.000 N 
ATOM     21  C   UNL     1       1.921   3.435  19.614  0.00  0.00    +0.000 A 
ATOM     22  C   UNL     1       0.546   2.900  19.721  0.00  0.00    +0.000 C 
ATOM     23  N   UNL     1       2.277   4.547  19.008  0.00  0.00    +0.000 NA
ATOM     24  H   UNL     1       2.997   1.956  20.700  0.00  0.00    +0.000 HD
ENDBRANCH  17  18
ENDBRANCH   4  17
TORSDOF 5
ENDMDL
MODEL 7
REMARK VINA RESULT:      -6.8      1.105      1.222
REMARK  Name = 
REMARK  7 active torsions:
REMARK  status: ('A' for Active; 'I' for Inactive)
REMARK    1  A    between atoms: C_1  and  O_2
REMARK    2  A    between atoms: O_2  and  C_3
REMARK    3  A    between atoms: C_7  and  C_8
REMARK    4  A    between atoms: N_11  and  C_12
REMARK    5  A    between atoms: C_12  and  C_13
REMARK    6  A    between atoms: C_16  and  C_17
REMARK    7  A    between atoms: C_20  and  O_21
REMARK                            x       y       z     vdW  Elec       q    Type
REMARK                         _______ _______ _______ _____ _____    ______ ____
ROOT
ATOM      1  C   UNL     1       5.022   6.463  18.217  0.00  0.00    +0.000 C 
ATOM      2  C   UNL     1       4.656   6.445  16.715  0.00  0.00    +0.000 C 
ATOM      3  C   UNL     1       4.757   5.044  16.113  0.00  0.00    +0.000 C 
ATOM      4  N   UNL     1       6.076   4.416  16.264  0.00  0.00    +0.000 NA
ATOM      5  C   UNL     1       6.492   4.410  17.677  0.00  0.00    +0.000 C 
ATOM      6  C   UNL     1       6.392   5.765  18.424  0.00  0.00    +0.000 C 
ENDROOT
BRANCH   1  11
ATOM      7  C   UNL     1       2.908   4.134  20.414  0.00  0.00    +0.000 A 
ATOM      8  C   UNL     1       1.793   4.919  20.691  0.00  0.00    +0.000 A 
ATOM      9  C   UNL     1       1.709   6.212  20.190  0.00  0.00    +0.000 A 
ATOM     10  C   UNL     1       2.739   6.725  19.402  0.00  0.00    +0.000 A 
ATOM     11  C   UNL     1       3.877   5.960  19.101  0.00  0.00    +0.000 A 
ATOM     12  C   UNL     1       3.934   4.645  19.611  0.00  0.00    +0.000 A 
BRANCH   7  14
ATOM     13  C   UNL     1       1.640   2.482  21.524  0.00  0.00    +0.000 C 
ATOM     14  O   UNL     1       2.873   2.871  20.930  0.00  0.00    +0.000 OA
ENDBRANCH   7  14
ENDBRANCH   1  11
BRANCH   6  15
ATOM     15  O   UNL     1       7.478   6.625  18.043  0.00  0.00    +0.000 OA
ATOM     16  H   UNL     1       7.528   6.657  17.074  0.00  0.00    +0.000 HD
ENDBRANCH   6  15
BRANCH   4  17
ATOM     17  C   UNL     1       7.131   4.983  15.408  0.00  0.00    +0.000 C 
BRANCH  17  18
ATOM     18  C   UNL     1       6.992   4.544  13.987  0.00  0.00    +0.000 A 
ATOM     19  C   UNL     1       7.636   4.993  12.853  0.00  0.00    +0.000 A 
ATOM     20  N   UNL     1       7.140   4.233  11.833  0.00  0.00    +0.000 N 
ATOM     21  C   UNL     1       6.224   3.360  12.364  0.00  0.00    +0.000 A 
ATOM     22  C   UNL     1       5.497   2.358  11.551  0.00  0.00    +0.000 C 
ATOM     23  N   UNL     1       6.115   3.533  13.662  0.00  0.00    +0.000 NA
ATOM     24  H   UNL     1       7.406   4.291  10.860  0.00  0.00    +0.000 HD
ENDBRANCH  17  18
ENDBRANCH   4  17
TORSDOF 5
ENDMDL
MODEL 8
REMARK VINA RESULT:      -6.8      2.686      4.692
REMARK  Name = 
REMARK  7 active torsions:
REMARK  status: ('A' for Active; 'I' for Inactive)
REMARK    1  A    between atoms: C_1  and  O_2
REMARK    2  A    between atoms: O_2  and  C_3
REMARK    3  A    between atoms: C_7  and  C_8
REMARK    4  A    between atoms: N_11  and  C_12
REMARK    5  A    between atoms: C_12  and  C_13
REMARK    6  A    between atoms: C_16  and  C_17
REMARK    7  A    between atoms: C_20  and  O_21
REMARK                            x       y       z     vdW  Elec       q    Type
REMARK                         _______ _______ _______ _____ _____    ______ ____
ROOT
ATOM      1  C   UNL     1       4.729   3.437  17.980  0.00  0.00    +0.000 C 
ATOM      2  C   UNL     1       5.539   4.422  18.854  0.00  0.00    +0.000 C 
ATOM      3  C   UNL     1       5.218   5.880  18.528  0.00  0.00    +0.000 C 
ATOM      4  N   UNL     1       5.430   6.245  17.121  0.00  0.00    +0.000 NA
ATOM      5  C   UNL     1       4.692   5.335  16.230  0.00  0.00    +0.000 C 
ATOM      6  C   UNL     1       4.891   3.818  16.485  0.00  0.00    +0.000 C 
ENDROOT
BRANCH   1  11
ATOM      7  C   UNL     1       1.447   4.116  19.848  0.00  0.00    +0.000 A 
ATOM      8  C   UNL     1       0.668   3.022  19.486  0.00  0.00    +0.000 A 
ATOM      9  C   UNL     1       1.178   2.057  18.625  0.00  0.00    +0.000 A 
ATOM     10  C   UNL     1       2.474   2.180  18.127  0.00  0.00    +0.000 A 
ATOM     11  C   UNL     1       3.288   3.269  18.474  0.00  0.00    +0.000 A 
ATOM     12  C   UNL     1       2.753   4.230  19.359  0.00  0.00    +0.000 A 
BRANCH   7  14
ATOM     13  C   UNL     1       1.470   6.267  20.817  0.00  0.00    +0.000 C 
ATOM     14  O   UNL     1       0.860   4.985  20.721  0.00  0.00    +0.000 OA
ENDBRANCH   7  14
ENDBRANCH   1  11
BRANCH   6  15
ATOM     15  O   UNL     1       6.162   3.389  15.972  0.00  0.00    +0.000 OA
ATOM     16  H   UNL     1       6.703   3.060  16.709  0.00  0.00    +0.000 HD
ENDBRANCH   6  15
BRANCH   4  17
ATOM     17  C   UNL     1       6.842   6.347  16.716  0.00  0.00    +0.000 C 
BRANCH  17  18
ATOM     18  C   UNL     1       7.608   7.283  17.593  0.00  0.00    +0.000 A 
ATOM     19  C   UNL     1       8.294   7.040  18.764  0.00  0.00    +0.000 A 
ATOM     20  N   UNL     1       8.818   8.246  19.130  0.00  0.00    +0.000 N 
ATOM     21  C   UNL     1       8.443   9.173  18.190  0.00  0.00    +0.000 A 
ATOM     22  C   UNL     1       8.854  10.594  18.248  0.00  0.00    +0.000 C 
ATOM     23  N   UNL     1       7.708   8.615  17.255  0.00  0.00    +0.000 NA
ATOM     24  H   UNL     1       9.391   8.427  19.942  0.00  0.00    +0.000 HD
ENDBRANCH  17  18
ENDBRANCH   4  17
TORSDOF 5
ENDMDL
MODEL 9
REMARK VINA RESULT:      -6.7      2.241      3.020
REMARK  Name = 
REMARK  7 active torsions:
REMARK  status: ('A' for Active; 'I' for Inactive)
REMARK    1  A    between atoms: C_1  and  O_2
REMARK    2  A    between atoms: O_2  and  C_3
REMARK    3  A    between atoms: C_7  and  C_8
REMARK    4  A    between atoms: N_11  and  C_12
REMARK    5  A    between atoms: C_12  and  C_13
REMARK    6  A    between atoms: C_16  and  C_17
REMARK    7  A    between atoms: C_20  and  O_21
REMARK                            x       y       z     vdW  Elec       q    Type
REMARK                         _______ _______ _______ _____ _____    ______ ____
ROOT
ATOM      1  C   UNL     1       4.597   5.158  18.186  0.00  0.00    +0.000 C 
ATOM      2  C   UNL     1       6.046   5.681  18.317  0.00  0.00    +0.000 C 
ATOM      3  C   UNL     1       6.416   6.642  17.187  0.00  0.00    +0.000 C 
ATOM      4  N   UNL     1       6.258   6.079  15.840  0.00  0.00    +0.000 NA
ATOM      5  C   UNL     1       4.897   5.549  15.652  0.00  0.00    +0.000 C 
ATOM      6  C   UNL     1       4.377   4.594  16.758  0.00  0.00    +0.000 C 
ENDROOT
BRANCH   1  11
ATOM      7  C   UNL     1       2.338   8.259  18.246  0.00  0.00    +0.000 A 
ATOM      8  C   UNL     1       1.718   8.150  19.486  0.00  0.00    +0.000 A 
ATOM      9  C   UNL     1       2.002   7.072  20.316  0.00  0.00    +0.000 A 
ATOM     10  C   UNL     1       2.917   6.100  19.911  0.00  0.00    +0.000 A 
ATOM     11  C   UNL     1       3.563   6.181  18.667  0.00  0.00    +0.000 A 
ATOM     12  C   UNL     1       3.266   7.290  17.847  0.00  0.00    +0.000 A 
BRANCH   7  14
ATOM     13  C   UNL     1       1.522  10.472  18.283  0.00  0.00    +0.000 C 
ATOM     14  O   UNL     1       2.009   9.370  17.526  0.00  0.00    +0.000 OA
ENDBRANCH   7  14
ENDBRANCH   1  11
BRANCH   6  15
ATOM     15  O   UNL     1       4.970   3.294  16.613  0.00  0.00    +0.000 OA
ATOM     16  H   UNL     1       5.933   3.394  16.541  0.00  0.00    +0.000 HD
ENDBRANCH   6  15
BRANCH   4  17
ATOM     17  C   UNL     1       7.269   5.074  15.469  0.00  0.00    +0.000 C 
BRANCH  17  18
ATOM     18  C   UNL     1       7.124   4.634  14.049  0.00  0.00    +0.000 A 
ATOM     19  C   UNL     1       7.772   5.074  12.914  0.00  0.00    +0.000 A 
ATOM     20  N   UNL     1       7.265   4.318  11.896  0.00  0.00    +0.000 N 
ATOM     21  C   UNL     1       6.340   3.456  12.429  0.00  0.00    +0.000 A 
ATOM     22  C   UNL     1       5.601   2.461  11.619  0.00  0.00    +0.000 C 
ATOM     23  N   UNL     1       6.234   3.632  13.727  0.00  0.00    +0.000 NA
ATOM     24  H   UNL     1       7.531   4.371  10.923  0.00  0.00    +0.000 HD
ENDBRANCH  17  18
ENDBRANCH   4  17
TORSDOF 5
ENDMDL
