MODEL 1
REMARK VINA RESULT:      -7.7      0.000      0.000
REMARK  Name = 
REMARK  7 active torsions:
REMARK  status: ('A' for Active; 'I' for Inactive)
REMARK    1  A    between atoms: P_2  and  O_3
REMARK    2  A    between atoms: P_2  and  O_4
REMARK    3  A    between atoms: P_2  and  C_5
REMARK    4  A    between atoms: C_5  and  C_6
REMARK    5  A    between atoms: C_5  and  C_14
REMARK    6  A    between atoms: C_6  and  C_7
REMARK    7  A    between atoms: C_7  and  C_8
REMARK                            x       y       z     vdW  Elec       q    Type
REMARK                         _______ _______ _______ _____ _____    ______ ____
ROOT
ATOM      1  C   UNL     1       5.358   5.507  16.063  0.00  0.00    +0.000 C 
ENDROOT
BRANCH   1   2
ATOM      2  C   UNL     1       6.478   6.025  17.004  0.00  0.00    +0.000 A 
ATOM      3  C   UNL     1       6.938   5.195  18.041  0.00  0.00    +0.000 A 
ATOM      4  C   UNL     1       7.838   5.673  18.997  0.00  0.00    +0.000 A 
ATOM      5  C   UNL     1       8.311   6.982  18.920  0.00  0.00    +0.000 A 
ATOM      6  C   UNL     1       7.870   7.817  17.898  0.00  0.00    +0.000 A 
ATOM      7  C   UNL     1       6.945   7.351  16.961  0.00  0.00    +0.000 A 
ENDBRANCH   1   2
BRANCH   1   9
ATOM      8  O   UNL     1       6.463   3.703  13.429  0.00  0.00    +0.000 OA
ATOM      9  P   UNL     1       5.957   4.530  14.636  0.00  0.00    +0.000 P 
BRANCH   9  10
ATOM     10  O   UNL     1       6.203   3.210  15.577  0.00  0.00    +0.000 OA
ATOM     11  H   UNL     1       7.090   2.858  15.364  0.00  0.00    +0.000 HD
ENDBRANCH   9  10
BRANCH   9  12
ATOM     12  O   UNL     1       7.454   5.170  14.872  0.00  0.00    +0.000 OA
ATOM     13  H   UNL     1       7.449   5.585  15.759  0.00  0.00    +0.000 HD
ENDBRANCH   9  12
ENDBRANCH   1   9
BRANCH   1  14
ATOM     14  C   UNL     1       4.314   4.672  16.861  0.00  0.00    +0.000 C 
BRANCH  14  15
ATOM     15  C   UNL     1       3.347   5.511  17.719  0.00  0.00    +0.000 C 
BRANCH  15  16
ATOM     16  C   UNL     1       2.409   4.636  18.523  0.00  0.00    +0.000 A 
ATOM     17  C   UNL     1       2.056   4.982  19.833  0.00  0.00    +0.000 A 
ATOM     18  C   UNL     1       1.200   4.161  20.578  0.00  0.00    +0.000 A 
ATOM     19  C   UNL     1       0.701   2.989  20.016  0.00  0.00    +0.000 A 
ATOM     20  C   UNL     1       1.047   2.639  18.712  0.00  0.00    +0.000 A 
ATOM     21  C   UNL     1       1.899   3.459  17.966  0.00  0.00    +0.000 A 
ENDBRANCH  15  16
ENDBRANCH  14  15
ENDBRANCH   1  14
TORSDOF 7
ENDMDL
MODEL 2
REMARK VINA RESULT:      -7.7      2.546      3.822
REMARK  Name = 
REMARK  7 active torsions:
REMARK  status: ('A' for Active; 'I' for Inactive)
REMARK    1  A    between atoms: P_2  and  O_3
REMARK    2  A    between atoms: P_2  and  O_4
REMARK    3  A    between atoms: P_2  and  C_5
REMARK    4  A    between atoms: C_5  and  C_6
REMARK    5  A    between atoms: C_5  and  C_14
REMARK    6  A    between atoms: C_6  and  C_7
REMARK    7  A    between atoms: C_7  and  C_8
REMARK                            x       y       z     vdW  Elec       q    Type
REMARK                         _______ _______ _______ _____ _____    ______ ____
ROOT
ATOM      1  C   UNL     1       5.978   4.195  16.633  0.00  0.00    +0.000 C 
ENDROOT
BRANCH   1   2
ATOM      2  C   UNL     1       6.395   4.211  15.139  0.00  0.00    +0.000 A 
ATOM      3  C   UNL     1       7.389   5.110  14.715  0.00  0.00    +0.000 A 
ATOM      4  C   UNL     1       7.691   5.260  13.359  0.00  0.00    +0.000 A 
ATOM      5  C   UNL     1       7.021   4.497  12.404  0.00  0.00    +0.000 A 
ATOM      6  C   UNL     1       6.036   3.600  12.804  0.00  0.00    +0.000 A 
ATOM      7  C   UNL     1       5.710   3.472  14.156  0.00  0.00    +0.000 A 
ENDBRANCH   1   2
BRANCH   1   9
ATOM      8  O   UNL     1       7.967   6.021  18.663  0.00  0.00    +0.000 OA
ATOM      9  P   UNL     1       7.056   5.184  17.733  0.00  0.00    +0.000 P 
BRANCH   9  10
ATOM     10  O   UNL     1       8.227   4.038  17.701  0.00  0.00    +0.000 OA
ATOM     11  H   UNL     1       7.923   3.291  18.253  0.00  0.00    +0.000 HD
ENDBRANCH   9  10
BRANCH   9  12
ATOM     12  O   UNL     1       6.256   4.553  19.024  0.00  0.00    +0.000 OA
ATOM     13  H   UNL     1       5.668   3.850  18.679  0.00  0.00    +0.000 HD
ENDBRANCH   9  12
ENDBRANCH   1   9
BRANCH   1  14
ATOM     14  C   UNL     1       4.502   4.663  16.796  0.00  0.00    +0.000 C 
BRANCH  14  15
ATOM     15  C   UNL     1       3.490   3.521  17.003  0.00  0.00    +0.000 C 
BRANCH  15  16
ATOM     16  C   UNL     1       2.625   3.753  18.224  0.00  0.00    +0.000 A 
ATOM     17  C   UNL     1       1.664   2.811  18.610  0.00  0.00    +0.000 A 
ATOM     18  C   UNL     1       0.856   3.038  19.730  0.00  0.00    +0.000 A 
ATOM     19  C   UNL     1       1.002   4.212  20.464  0.00  0.00    +0.000 A 
ATOM     20  C   UNL     1       1.958   5.154  20.087  0.00  0.00    +0.000 A 
ATOM     21  C   UNL     1       2.767   4.927  18.970  0.00  0.00    +0.000 A 
ENDBRANCH  15  16
ENDBRANCH  14  15
ENDBRANCH   1  14
TORSDOF 7
ENDMDL
MODEL 3
REMARK VINA RESULT:      -7.7      1.957      3.311
REMARK  Name = 
REMARK  7 active torsions:
REMARK  status: ('A' for Active; 'I' for Inactive)
REMARK    1  A    between atoms: P_2  and  O_3
REMARK    2  A    between atoms: P_2  and  O_4
REMARK    3  A    between atoms: P_2  and  C_5
REMARK    4  A    between atoms: C_5  and  C_6
REMARK    5  A    between atoms: C_5  and  C_14
REMARK    6  A    between atoms: C_6  and  C_7
REMARK    7  A    between atoms: C_7  and  C_8
REMARK                            x       y       z     vdW  Elec       q    Type
REMARK                         _______ _______ _______ _____ _____    ______ ____
ROOT
ATOM      1  C   UNL     1       5.409   5.424  17.450  0.00  0.00    +0.000 C 
ENDROOT
BRANCH   1   2
ATOM      2  C   UNL     1       4.959   4.044  17.998  0.00  0.00    +0.000 A 
ATOM      3  C   UNL     1       4.309   3.145  17.135  0.00  0.00    +0.000 A 
ATOM      4  C   UNL     1       3.759   1.955  17.619  0.00  0.00    +0.000 A 
ATOM      5  C   UNL     1       3.869   1.632  18.971  0.00  0.00    +0.000 A 
ATOM      6  C   UNL     1       4.511   2.509  19.840  0.00  0.00    +0.000 A 
ATOM      7  C   UNL     1       5.033   3.713  19.364  0.00  0.00    +0.000 A 
ENDBRANCH   1   2
BRANCH   1   9
ATOM      8  O   UNL     1       7.702   5.269  14.974  0.00  0.00    +0.000 OA
ATOM      9  P   UNL     1       6.651   5.340  16.109  0.00  0.00    +0.000 P 
BRANCH   9  10
ATOM     10  O   UNL     1       7.486   6.605  16.733  0.00  0.00    +0.000 OA
ATOM     11  H   UNL     1       7.517   7.303  16.049  0.00  0.00    +0.000 HD
ENDBRANCH   9  10
BRANCH   9  12
ATOM     12  O   UNL     1       5.653   6.258  15.177  0.00  0.00    +0.000 OA
ATOM     13  H   UNL     1       6.194   6.606  14.438  0.00  0.00    +0.000 HD
ENDBRANCH   9  12
ENDBRANCH   1   9
BRANCH   1  14
ATOM     14  C   UNL     1       4.181   6.250  16.968  0.00  0.00    +0.000 C 
BRANCH  14  15
ATOM     15  C   UNL     1       3.336   6.858  18.104  0.00  0.00    +0.000 C 
BRANCH  15  16
ATOM     16  C   UNL     1       2.461   5.816  18.770  0.00  0.00    +0.000 A 
ATOM     17  C   UNL     1       2.385   5.733  20.166  0.00  0.00    +0.000 A 
ATOM     18  C   UNL     1       1.588   4.758  20.777  0.00  0.00    +0.000 A 
ATOM     19  C   UNL     1       0.869   3.859  19.993  0.00  0.00    +0.000 A 
ATOM     20  C   UNL     1       0.938   3.937  18.603  0.00  0.00    +0.000 A 
ATOM     21  C   UNL     1       1.733   4.912  17.992  0.00  0.00    +0.000 A 
ENDBRANCH  15  16
ENDBRANCH  14  15
ENDBRANCH   1  14
TORSDOF 7
ENDMDL
MODEL 4
REMARK VINA RESULT:      -7.6      2.701      3.633
REMARK  Name = 
REMARK  7 active torsions:
REMARK  status: ('A' for Active; 'I' for Inactive)
REMARK    1  A    between atoms: P_2  and  O_3
REMARK    2  A    between atoms: P_2  and  O_4
REMARK    3  A    between atoms: P_2  and  C_5
REMARK    4  A    between atoms: C_5  and  C_6
REMARK    5  A    between atoms: C_5  and  C_14
REMARK    6  A    between atoms: C_6  and  C_7
REMARK    7  A    between atoms: C_7  and  C_8
REMARK                            x       y       z     vdW  Elec       q    Type
REMARK                         _______ _______ _______ _____ _____    ______ ____
ROOT
ATOM      1  C   UNL     1       5.727   4.061  16.371  0.00  0.00    +0.000 C 
ENDROOT
BRANCH   1   2
ATOM      2  C   UNL     1       6.177   4.270  14.901  0.00  0.00    +0.000 A 
ATOM      3  C   UNL     1       5.552   3.530  13.883  0.00  0.00    +0.000 A 
ATOM      4  C   UNL     1       6.022   3.578  12.568  0.00  0.00    +0.000 A 
ATOM      5  C   UNL     1       7.111   4.386  12.243  0.00  0.00    +0.000 A 
ATOM      6  C   UNL     1       7.740   5.129  13.237  0.00  0.00    +0.000 A 
ATOM      7  C   UNL     1       7.292   5.057  14.558  0.00  0.00    +0.000 A 
ENDBRANCH   1   2
BRANCH   1   9
ATOM      8  O   UNL     1       7.918   5.188  18.682  0.00  0.00    +0.000 OA
ATOM      9  P   UNL     1       6.914   4.672  17.623  0.00  0.00    +0.000 P 
BRANCH   9  10
ATOM     10  O   UNL     1       6.154   3.849  18.820  0.00  0.00    +0.000 OA
ATOM     11  H   UNL     1       6.039   2.927  18.516  0.00  0.00    +0.000 HD
ENDBRANCH   9  10
BRANCH   9  12
ATOM     12  O   UNL     1       6.004   6.034  17.770  0.00  0.00    +0.000 OA
ATOM     13  H   UNL     1       5.070   5.769  17.639  0.00  0.00    +0.000 HD
ENDBRANCH   9  12
ENDBRANCH   1   9
BRANCH   1  14
ATOM     14  C   UNL     1       4.334   4.713  16.617  0.00  0.00    +0.000 C 
BRANCH  14  15
ATOM     15  C   UNL     1       3.186   3.706  16.824  0.00  0.00    +0.000 C 
BRANCH  15  16
ATOM     16  C   UNL     1       2.470   3.938  18.137  0.00  0.00    +0.000 A 
ATOM     17  C   UNL     1       2.739   5.075  18.908  0.00  0.00    +0.000 A 
ATOM     18  C   UNL     1       2.085   5.277  20.130  0.00  0.00    +0.000 A 
ATOM     19  C   UNL     1       1.165   4.337  20.587  0.00  0.00    +0.000 A 
ATOM     20  C   UNL     1       0.890   3.203  19.825  0.00  0.00    +0.000 A 
ATOM     21  C   UNL     1       1.541   3.002  18.603  0.00  0.00    +0.000 A 
ENDBRANCH  15  16
ENDBRANCH  14  15
ENDBRANCH   1  14
TORSDOF 7
ENDMDL
MODEL 5
REMARK VINA RESULT:      -7.5      2.599      3.798
REMARK  Name = 
REMARK  7 active torsions:
REMARK  status: ('A' for Active; 'I' for Inactive)
REMARK    1  A    between atoms: P_2  and  O_3
REMARK    2  A    between atoms: P_2  and  O_4
REMARK    3  A    between atoms: P_2  and  C_5
REMARK    4  A    between atoms: C_5  and  C_6
REMARK    5  A    between atoms: C_5  and  C_14
REMARK    6  A    between atoms: C_6  and  C_7
REMARK    7  A    between atoms: C_7  and  C_8
REMARK                            x       y       z     vdW  Elec       q    Type
REMARK                         _______ _______ _______ _____ _____    ______ ____
ROOT
ATOM      1  C   UNL     1       5.883   3.901  16.235  0.00  0.00    +0.000 C 
ENDROOT
BRANCH   1   2
ATOM      2  C   UNL     1       6.290   4.195  14.767  0.00  0.00    +0.000 A 
ATOM      3  C   UNL     1       5.733   3.420  13.735  0.00  0.00    +0.000 A 
ATOM      4  C   UNL     1       6.179   3.553  12.417  0.00  0.00    +0.000 A 
ATOM      5  C   UNL     1       7.173   4.479  12.104  0.00  0.00    +0.000 A 
ATOM      6  C   UNL     1       7.733   5.258  13.112  0.00  0.00    +0.000 A 
ATOM      7  C   UNL     1       7.312   5.103  14.435  0.00  0.00    +0.000 A 
ENDBRANCH   1   2
BRANCH   1   9
ATOM      8  O   UNL     1       7.497   5.770  18.539  0.00  0.00    +0.000 OA
ATOM      9  P   UNL     1       6.757   4.914  17.483  0.00  0.00    +0.000 P 
BRANCH   9  10
ATOM     10  O   UNL     1       8.164   4.115  17.220  0.00  0.00    +0.000 OA
ATOM     11  H   UNL     1       8.073   3.629  16.377  0.00  0.00    +0.000 HD
ENDBRANCH   9  10
BRANCH   9  12
ATOM     12  O   UNL     1       6.212   3.886  18.646  0.00  0.00    +0.000 OA
ATOM     13  H   UNL     1       6.976   3.676  19.222  0.00  0.00    +0.000 HD
ENDBRANCH   9  12
ENDBRANCH   1   9
BRANCH   1  14
ATOM     14  C   UNL     1       4.345   4.063  16.421  0.00  0.00    +0.000 C 
BRANCH  14  15
ATOM     15  C   UNL     1       3.931   5.275  17.278  0.00  0.00    +0.000 C 
BRANCH  15  16
ATOM     16  C   UNL     1       2.936   4.888  18.351  0.00  0.00    +0.000 A 
ATOM     17  C   UNL     1       1.971   3.902  18.109  0.00  0.00    +0.000 A 
ATOM     18  C   UNL     1       1.043   3.558  19.099  0.00  0.00    +0.000 A 
ATOM     19  C   UNL     1       1.073   4.206  20.332  0.00  0.00    +0.000 A 
ATOM     20  C   UNL     1       2.031   5.186  20.581  0.00  0.00    +0.000 A 
ATOM     21  C   UNL     1       2.960   5.529  19.593  0.00  0.00    +0.000 A 
ENDBRANCH  15  16
ENDBRANCH  14  15
ENDBRANCH   1  14
TORSDOF 7
ENDMDL
MODEL 6
REMARK VINA RESULT:      -7.5      2.639      3.752
REMARK  Name = 
REMARK  7 active torsions:
REMARK  status: ('A' for Active; 'I' for Inactive)
REMARK    1  A    between atoms: P_2  and  O_3
REMARK    2  A    between atoms: P_2  and  O_4
REMARK    3  A    between atoms: P_2  and  C_5
REMARK    4  A    between atoms: C_5  and  C_6
REMARK    5  A    between atoms: C_5  and  C_14
REMARK    6  A    between atoms: C_6  and  C_7
REMARK    7  A    between atoms: C_7  and  C_8
REMARK                            x       y       z     vdW  Elec       q    Type
REMARK                         _______ _______ _______ _____ _____    ______ ____
ROOT
ATOM      1  C   UNL     1       5.976   4.230  16.623  0.00  0.00    +0.000 C 
ENDROOT
BRANCH   1   2
ATOM      2  C   UNL     1       6.297   4.369  15.112  0.00  0.00    +0.000 A 
ATOM      3  C   UNL     1       5.596   3.574  14.189  0.00  0.00    +0.000 A 
ATOM      4  C   UNL     1       5.952   3.560  12.837  0.00  0.00    +0.000 A 
ATOM      5  C   UNL     1       7.000   4.359  12.381  0.00  0.00    +0.000 A 
ATOM      6  C   UNL     1       7.703   5.155  13.280  0.00  0.00    +0.000 A 
ATOM      7  C   UNL     1       7.370   5.145  14.636  0.00  0.00    +0.000 A 
ENDBRANCH   1   2
BRANCH   1   9
ATOM      8  O   UNL     1       7.994   6.022  18.655  0.00  0.00    +0.000 OA
ATOM      9  P   UNL     1       7.069   5.201  17.724  0.00  0.00    +0.000 P 
BRANCH   9  10
ATOM     10  O   UNL     1       8.228   4.043  17.680  0.00  0.00    +0.000 OA
ATOM     11  H   UNL     1       8.896   4.268  18.357  0.00  0.00    +0.000 HD
ENDBRANCH   9  10
BRANCH   9  12
ATOM     12  O   UNL     1       6.269   4.570  19.016  0.00  0.00    +0.000 OA
ATOM     13  H   UNL     1       5.457   5.103  19.136  0.00  0.00    +0.000 HD
ENDBRANCH   9  12
ENDBRANCH   1   9
BRANCH   1  14
ATOM     14  C   UNL     1       4.492   4.604  16.906  0.00  0.00    +0.000 C 
BRANCH  14  15
ATOM     15  C   UNL     1       3.582   3.404  17.232  0.00  0.00    +0.000 C 
BRANCH  15  16
ATOM     16  C   UNL     1       2.959   3.531  18.606  0.00  0.00    +0.000 A 
ATOM     17  C   UNL     1       3.285   2.629  19.626  0.00  0.00    +0.000 A 
ATOM     18  C   UNL     1       2.694   2.741  20.890  0.00  0.00    +0.000 A 
ATOM     19  C   UNL     1       1.769   3.753  21.135  0.00  0.00    +0.000 A 
ATOM     20  C   UNL     1       1.441   4.656  20.126  0.00  0.00    +0.000 A 
ATOM     21  C   UNL     1       2.033   4.546  18.864  0.00  0.00    +0.000 A 
ENDBRANCH  15  16
ENDBRANCH  14  15
ENDBRANCH   1  14
TORSDOF 7
ENDMDL
MODEL 7
REMARK VINA RESULT:      -7.5      2.566      3.637
REMARK  Name = 
REMARK  7 active torsions:
REMARK  status: ('A' for Active; 'I' for Inactive)
REMARK    1  A    between atoms: P_2  and  O_3
REMARK    2  A    between atoms: P_2  and  O_4
REMARK    3  A    between atoms: P_2  and  C_5
REMARK    4  A    between atoms: C_5  and  C_6
REMARK    5  A    between atoms: C_5  and  C_14
REMARK    6  A    between atoms: C_6  and  C_7
REMARK    7  A    between atoms: C_7  and  C_8
REMARK                            x       y       z     vdW  Elec       q    Type
REMARK                         _______ _______ _______ _____ _____    ______ ____
ROOT
ATOM      1  C   UNL     1       5.793   4.026  16.196  0.00  0.00    +0.000 C 
ENDROOT
BRANCH   1   2
ATOM      2  C   UNL     1       6.247   4.260  14.731  0.00  0.00    +0.000 A 
ATOM      3  C   UNL     1       5.718   3.448  13.713  0.00  0.00    +0.000 A 
ATOM      4  C   UNL     1       6.205   3.527  12.405  0.00  0.00    +0.000 A 
ATOM      5  C   UNL     1       7.213   4.435  12.088  0.00  0.00    +0.000 A 
ATOM      6  C   UNL     1       7.747   5.250  13.081  0.00  0.00    +0.000 A 
ATOM      7  C   UNL     1       7.285   5.149  14.395  0.00  0.00    +0.000 A 
ENDBRANCH   1   2
BRANCH   1   9
ATOM      8  O   UNL     1       7.571   5.734  18.505  0.00  0.00    +0.000 OA
ATOM      9  P   UNL     1       6.756   4.951  17.446  0.00  0.00    +0.000 P 
BRANCH   9  10
ATOM     10  O   UNL     1       8.125   4.131  17.074  0.00  0.00    +0.000 OA
ATOM     11  H   UNL     1       7.868   3.215  16.851  0.00  0.00    +0.000 HD
ENDBRANCH   9  10
BRANCH   9  12
ATOM     12  O   UNL     1       6.239   3.881  18.584  0.00  0.00    +0.000 OA
ATOM     13  H   UNL     1       5.947   3.077  18.107  0.00  0.00    +0.000 HD
ENDBRANCH   9  12
ENDBRANCH   1   9
BRANCH   1  14
ATOM     14  C   UNL     1       4.280   4.353  16.360  0.00  0.00    +0.000 C 
BRANCH  14  15
ATOM     15  C   UNL     1       3.976   5.474  17.373  0.00  0.00    +0.000 C 
BRANCH  15  16
ATOM     16  C   UNL     1       2.952   5.038  18.399  0.00  0.00    +0.000 A 
ATOM     17  C   UNL     1       2.882   5.664  19.651  0.00  0.00    +0.000 A 
ATOM     18  C   UNL     1       1.944   5.247  20.602  0.00  0.00    +0.000 A 
ATOM     19  C   UNL     1       1.076   4.198  20.307  0.00  0.00    +0.000 A 
ATOM     20  C   UNL     1       1.138   3.573  19.064  0.00  0.00    +0.000 A 
ATOM     21  C   UNL     1       2.074   3.990  18.111  0.00  0.00    +0.000 A 
ENDBRANCH  15  16
ENDBRANCH  14  15
ENDBRANCH   1  14
TORSDOF 7
ENDMDL
MODEL 8
REMARK VINA RESULT:      -7.5      2.329      4.270
REMARK  Name = 
REMARK  7 active torsions:
REMARK  status: ('A' for Active; 'I' for Inactive)
REMARK    1  A    between atoms: P_2  and  O_3
REMARK    2  A    between atoms: P_2  and  O_4
REMARK    3  A    between atoms: P_2  and  C_5
REMARK    4  A    between atoms: C_5  and  C_6
REMARK    5  A    between atoms: C_5  and  C_14
REMARK    6  A    between atoms: C_6  and  C_7
REMARK    7  A    between atoms: C_7  and  C_8
REMARK                            x       y       z     vdW  Elec       q    Type
REMARK                         _______ _______ _______ _____ _____    ______ ____
ROOT
ATOM      1  C   UNL     1       5.884   5.169  17.891  0.00  0.00    +0.000 C 
ENDROOT
BRANCH   1   2
ATOM      2  C   UNL     1       4.839   4.073  18.229  0.00  0.00    +0.000 A 
ATOM      3  C   UNL     1       4.132   3.457  17.182  0.00  0.00    +0.000 A 
ATOM      4  C   UNL     1       3.083   2.572  17.447  0.00  0.00    +0.000 A 
ATOM      5  C   UNL     1       2.738   2.271  18.764  0.00  0.00    +0.000 A 
ATOM      6  C   UNL     1       3.429   2.869  19.813  0.00  0.00    +0.000 A 
ATOM      7  C   UNL     1       4.455   3.778  19.550  0.00  0.00    +0.000 A 
ENDBRANCH   1   2
BRANCH   1   9
ATOM      8  O   UNL     1       7.532   4.687  14.981  0.00  0.00    +0.000 OA
ATOM      9  P   UNL     1       6.777   4.908  16.315  0.00  0.00    +0.000 P 
BRANCH   9  10
ATOM     10  O   UNL     1       8.002   4.132  17.078  0.00  0.00    +0.000 OA
ATOM     11  H   UNL     1       8.304   3.410  16.492  0.00  0.00    +0.000 HD
ENDBRANCH   9  10
BRANCH   9  12
ATOM     12  O   UNL     1       7.424   6.412  16.473  0.00  0.00    +0.000 OA
ATOM     13  H   UNL     1       7.580   6.752  15.568  0.00  0.00    +0.000 HD
ENDBRANCH   9  12
ENDBRANCH   1   9
BRANCH   1  14
ATOM     14  C   UNL     1       5.219   6.577  17.882  0.00  0.00    +0.000 C 
BRANCH  14  15
ATOM     15  C   UNL     1       3.782   6.600  17.327  0.00  0.00    +0.000 C 
BRANCH  15  16
ATOM     16  C   UNL     1       2.854   7.409  18.209  0.00  0.00    +0.000 A 
ATOM     17  C   UNL     1       2.300   8.611  17.751  0.00  0.00    +0.000 A 
ATOM     18  C   UNL     1       1.455   9.363  18.576  0.00  0.00    +0.000 A 
ATOM     19  C   UNL     1       1.168   8.918  19.864  0.00  0.00    +0.000 A 
ATOM     20  C   UNL     1       1.714   7.721  20.325  0.00  0.00    +0.000 A 
ATOM     21  C   UNL     1       2.556   6.968  19.501  0.00  0.00    +0.000 A 
ENDBRANCH  15  16
ENDBRANCH  14  15
ENDBRANCH   1  14
TORSDOF 7
ENDMDL
MODEL 9
REMARK VINA RESULT:      -7.5      2.453      3.589
REMARK  Name = 
REMARK  7 active torsions:
REMARK  status: ('A' for Active; 'I' for Inactive)
REMARK    1  A    between atoms: P_2  and  O_3
REMARK    2  A    between atoms: P_2  and  O_4
REMARK    3  A    between atoms: P_2  and  C_5
REMARK    4  A    between atoms: C_5  and  C_6
REMARK    5  A    between atoms: C_5  and  C_14
REMARK    6  A    between atoms: C_6  and  C_7
REMARK    7  A    between atoms: C_7  and  C_8
REMARK                            x       y       z     vdW  Elec       q    Type
REMARK                         _______ _______ _______ _____ _____    ______ ____
ROOT
ATOM      1  C   UNL     1       4.554   5.308  17.174  0.00  0.00    +0.000 C 
ENDROOT
BRANCH   1   2
ATOM      2  C   UNL     1       3.714   6.382  17.913  0.00  0.00    +0.000 A 
ATOM      3  C   UNL     1       3.244   6.110  19.210  0.00  0.00    +0.000 A 
ATOM      4  C   UNL     1       2.366   6.985  19.854  0.00  0.00    +0.000 A 
ATOM      5  C   UNL     1       1.959   8.160  19.222  0.00  0.00    +0.000 A 
ATOM      6  C   UNL     1       2.416   8.448  17.940  0.00  0.00    +0.000 A 
ATOM      7  C   UNL     1       3.268   7.558  17.282  0.00  0.00    +0.000 A 
ENDBRANCH   1   2
BRANCH   1   9
ATOM      8  O   UNL     1       7.447   4.487  18.712  0.00  0.00    +0.000 OA
ATOM      9  P   UNL     1       6.121   4.863  18.007  0.00  0.00    +0.000 P 
BRANCH   9  10
ATOM     10  O   UNL     1       6.643   6.417  17.968  0.00  0.00    +0.000 OA
ATOM     11  H   UNL     1       7.579   6.406  17.688  0.00  0.00    +0.000 HD
ENDBRANCH   9  10
BRANCH   9  12
ATOM     12  O   UNL     1       6.743   4.454  16.540  0.00  0.00    +0.000 OA
ATOM     13  H   UNL     1       6.123   3.813  16.137  0.00  0.00    +0.000 HD
ENDBRANCH   9  12
ENDBRANCH   1   9
BRANCH   1  14
ATOM     14  C   UNL     1       3.711   4.021  16.934  0.00  0.00    +0.000 C 
BRANCH  14  15
ATOM     15  C   UNL     1       4.007   2.873  17.919  0.00  0.00    +0.000 C 
BRANCH  15  16
ATOM     16  C   UNL     1       3.019   2.852  19.066  0.00  0.00    +0.000 A 
ATOM     17  C   UNL     1       1.649   3.024  18.834  0.00  0.00    +0.000 A 
ATOM     18  C   UNL     1       0.741   3.019  19.900  0.00  0.00    +0.000 A 
ATOM     19  C   UNL     1       1.203   2.849  21.202  0.00  0.00    +0.000 A 
ATOM     20  C   UNL     1       2.565   2.675  21.441  0.00  0.00    +0.000 A 
ATOM     21  C   UNL     1       3.472   2.677  20.377  0.00  0.00    +0.000 A 
ENDBRANCH  15  16
ENDBRANCH  14  15
ENDBRANCH   1  14
TORSDOF 7
ENDMDL
