MODEL 1
REMARK VINA RESULT:      -8.2      0.000      0.000
REMARK  Name = 
REMARK  16 active torsions:
REMARK  status: ('A' for Active; 'I' for Inactive)
REMARK    1  A    between atoms: C_1  and  O_2
REMARK    2  A    between atoms: O_2  and  C_3
REMARK    3  A    between atoms: C_5  and  C_6
REMARK    4  A    between atoms: C_7  and  C_8
REMARK    5  A    between atoms: N_10  and  C_11
REMARK    6  A    between atoms: C_11  and  C_12
REMARK    7  A    between atoms: C_11  and  C_19
REMARK    8  A    between atoms: C_12  and  C_13
REMARK    9  A    between atoms: C_19  and  O_21
REMARK   10  A    between atoms: O_21  and  C_22
REMARK   11  A    between atoms: C_22  and  C_23
REMARK   12  A    between atoms: C_22  and  C_24
REMARK   13  A    between atoms: C_22  and  C_25
REMARK   14  A    between atoms: C_27  and  O_28
REMARK   15  A    between atoms: O_28  and  C_29
REMARK   16  A    between atoms: C_30  and  O_31
REMARK                            x       y       z     vdW  Elec       q    Type
REMARK                         _______ _______ _______ _____ _____    ______ ____
ROOT
ATOM      1  C   UNL     1       1.704   9.108  18.561  0.00  0.00    +0.000 C 
ATOM      2  O   UNL     1       1.978   9.574  17.468  0.00  0.00    +0.000 OA
ATOM      3  N   UNL     1       0.859   9.698  19.462  0.00  0.00    +0.000 N 
ATOM      4  H   UNL     1       0.663   9.253  20.354  0.00  0.00    +0.000 HD
ENDROOT
BRANCH   1   6
ATOM      5  C   UNL     1       2.489   6.791  18.180  0.00  0.00    +0.000 C 
ATOM      6  C   UNL     1       2.244   7.794  19.039  0.00  0.00    +0.000 C 
BRANCH   5   9
ATOM      7  C   UNL     1       5.225   4.216  18.764  0.00  0.00    +0.000 A 
ATOM      8  C   UNL     1       4.530   5.356  18.312  0.00  0.00    +0.000 A 
ATOM      9  C   UNL     1       3.154   5.514  18.521  0.00  0.00    +0.000 A 
ATOM     10  C   UNL     1       2.473   4.479  19.170  0.00  0.00    +0.000 A 
ATOM     11  C   UNL     1       3.135   3.329  19.631  0.00  0.00    +0.000 A 
ATOM     12  C   UNL     1       4.522   3.207  19.441  0.00  0.00    +0.000 A 
BRANCH   7  14
ATOM     13  C   UNL     1       6.979   5.034  17.331  0.00  0.00    +0.000 C 
ATOM     14  O   UNL     1       6.559   4.246  18.438  0.00  0.00    +0.000 OA
ENDBRANCH   7  14
BRANCH  11  15
ATOM     15  O   UNL     1       2.289   2.383  20.149  0.00  0.00    +0.000 OA
ATOM     16  C   UNL     1       1.291   2.789  21.075  0.00  0.00    +0.000 C 
ENDBRANCH  11  15
BRANCH  12  17
ATOM     17  O   UNL     1       5.183   2.095  19.882  0.00  0.00    +0.000 OA
ATOM     18  H   UNL     1       4.855   1.348  19.359  0.00  0.00    +0.000 HD
ENDBRANCH  12  17
ENDBRANCH   5   9
ENDBRANCH   1   6
BRANCH   3  19
ATOM     19  C   UNL     1       0.117  10.961  19.227  0.00  0.00    +0.000 C 
BRANCH  19  20
ATOM     20  C   UNL     1       0.713  12.014  20.172  0.00  0.00    +0.000 C 
ATOM     21  O   UNL     1       1.217  11.700  21.252  0.00  0.00    +0.000 OA
BRANCH  20  22
ATOM     22  O   UNL     1       0.644  13.287  19.685  0.00  0.00    +0.000 OA
BRANCH  22  23
ATOM     23  C   UNL     1       1.873  13.983  19.319  0.00  0.00    +0.000 C 
ATOM     24  C   UNL     1       2.692  13.188  18.291  0.00  0.00    +0.000 C 
ATOM     25  C   UNL     1       1.462  15.318  18.672  0.00  0.00    +0.000 C 
ATOM     26  C   UNL     1       2.699  14.313  20.569  0.00  0.00    +0.000 C 
ENDBRANCH  22  23
ENDBRANCH  20  22
ENDBRANCH  19  20
BRANCH  19  27
ATOM     27  C   UNL     1      -1.409  10.844  19.410  0.00  0.00    +0.000 C 
BRANCH  27  28
ATOM     28  C   UNL     1      -2.232  10.814  18.135  0.00  0.00    +0.000 A 
ATOM     29  C   UNL     1      -1.849  10.006  17.060  0.00  0.00    +0.000 A 
ATOM     30  C   UNL     1      -2.640   9.931  15.913  0.00  0.00    +0.000 A 
ATOM     31  C   UNL     1      -3.818  10.666  15.818  0.00  0.00    +0.000 A 
ATOM     32  C   UNL     1      -4.207  11.483  16.876  0.00  0.00    +0.000 A 
ATOM     33  C   UNL     1      -3.422  11.542  18.027  0.00  0.00    +0.000 A 
ENDBRANCH  27  28
ENDBRANCH  19  27
ENDBRANCH   3  19
TORSDOF 11
ENDMDL
MODEL 2
REMARK VINA RESULT:      -8.1      1.443      1.964
REMARK  Name = 
REMARK  16 active torsions:
REMARK  status: ('A' for Active; 'I' for Inactive)
REMARK    1  A    between atoms: C_1  and  O_2
REMARK    2  A    between atoms: O_2  and  C_3
REMARK    3  A    between atoms: C_5  and  C_6
REMARK    4  A    between atoms: C_7  and  C_8
REMARK    5  A    between atoms: N_10  and  C_11
REMARK    6  A    between atoms: C_11  and  C_12
REMARK    7  A    between atoms: C_11  and  C_19
REMARK    8  A    between atoms: C_12  and  C_13
REMARK    9  A    between atoms: C_19  and  O_21
REMARK   10  A    between atoms: O_21  and  C_22
REMARK   11  A    between atoms: C_22  and  C_23
REMARK   12  A    between atoms: C_22  and  C_24
REMARK   13  A    between atoms: C_22  and  C_25
REMARK   14  A    between atoms: C_27  and  O_28
REMARK   15  A    between atoms: O_28  and  C_29
REMARK   16  A    between atoms: C_30  and  O_31
REMARK                            x       y       z     vdW  Elec       q    Type
REMARK                         _______ _______ _______ _____ _____    ______ ____
ROOT
ATOM      1  C   UNL     1       1.926   9.272  18.170  0.00  0.00    +0.000 C 
ATOM      2  O   UNL     1       2.014  10.094  17.274  0.00  0.00    +0.000 OA
ATOM      3  N   UNL     1       1.108   9.402  19.260  0.00  0.00    +0.000 N 
ATOM      4  H   UNL     1       1.074   8.676  19.969  0.00  0.00    +0.000 HD
ENDROOT
BRANCH   1   6
ATOM      5  C   UNL     1       2.614   7.126  19.195  0.00  0.00    +0.000 C 
ATOM      6  C   UNL     1       2.692   7.984  18.164  0.00  0.00    +0.000 C 
BRANCH   5   9
ATOM      7  C   UNL     1       5.186   4.332  19.007  0.00  0.00    +0.000 A 
ATOM      8  C   UNL     1       4.540   5.574  18.843  0.00  0.00    +0.000 A 
ATOM      9  C   UNL     1       3.209   5.771  19.229  0.00  0.00    +0.000 A 
ATOM     10  C   UNL     1       2.517   4.677  19.759  0.00  0.00    +0.000 A 
ATOM     11  C   UNL     1       3.130   3.425  19.933  0.00  0.00    +0.000 A 
ATOM     12  C   UNL     1       4.478   3.259  19.570  0.00  0.00    +0.000 A 
BRANCH   7  14
ATOM     13  C   UNL     1       6.708   4.459  17.145  0.00  0.00    +0.000 C 
ATOM     14  O   UNL     1       6.479   4.343  18.543  0.00  0.00    +0.000 OA
ENDBRANCH   7  14
BRANCH  11  15
ATOM     15  O   UNL     1       2.269   2.452  20.368  0.00  0.00    +0.000 OA
ATOM     16  C   UNL     1       1.213   2.813  21.248  0.00  0.00    +0.000 C 
ENDBRANCH  11  15
BRANCH  12  17
ATOM     17  O   UNL     1       5.090   2.048  19.733  0.00  0.00    +0.000 OA
ATOM     18  H   UNL     1       5.927   2.090  19.245  0.00  0.00    +0.000 HD
ENDBRANCH  12  17
ENDBRANCH   5   9
ENDBRANCH   1   6
BRANCH   3  19
ATOM     19  C   UNL     1       0.177  10.534  19.491  0.00  0.00    +0.000 C 
BRANCH  19  20
ATOM     20  C   UNL     1       0.621  11.222  20.790  0.00  0.00    +0.000 C 
ATOM     21  O   UNL     1       1.145  10.590  21.709  0.00  0.00    +0.000 OA
BRANCH  20  22
ATOM     22  O   UNL     1       0.400  12.569  20.797  0.00  0.00    +0.000 OA
BRANCH  22  23
ATOM     23  C   UNL     1      -0.691  13.113  21.599  0.00  0.00    +0.000 C 
ATOM     24  C   UNL     1      -1.201  12.096  22.629  0.00  0.00    +0.000 C 
ATOM     25  C   UNL     1      -0.130  14.327  22.363  0.00  0.00    +0.000 C 
ATOM     26  C   UNL     1      -1.823  13.623  20.696  0.00  0.00    +0.000 C 
ENDBRANCH  22  23
ENDBRANCH  20  22
ENDBRANCH  19  20
BRANCH  19  27
ATOM     27  C   UNL     1      -1.309  10.129  19.551  0.00  0.00    +0.000 C 
BRANCH  27  28
ATOM     28  C   UNL     1      -2.118  10.376  18.291  0.00  0.00    +0.000 A 
ATOM     29  C   UNL     1      -3.221  11.235  18.311  0.00  0.00    +0.000 A 
ATOM     30  C   UNL     1      -3.926  11.510  17.139  0.00  0.00    +0.000 A 
ATOM     31  C   UNL     1      -3.548  10.928  15.933  0.00  0.00    +0.000 A 
ATOM     32  C   UNL     1      -2.458  10.062  15.900  0.00  0.00    +0.000 A 
ATOM     33  C   UNL     1      -1.746   9.803  17.070  0.00  0.00    +0.000 A 
ENDBRANCH  27  28
ENDBRANCH  19  27
ENDBRANCH   3  19
TORSDOF 11
ENDMDL
MODEL 3
REMARK VINA RESULT:      -8.1      0.503      2.478
REMARK  Name = 
REMARK  16 active torsions:
REMARK  status: ('A' for Active; 'I' for Inactive)
REMARK    1  A    between atoms: C_1  and  O_2
REMARK    2  A    between atoms: O_2  and  C_3
REMARK    3  A    between atoms: C_5  and  C_6
REMARK    4  A    between atoms: C_7  and  C_8
REMARK    5  A    between atoms: N_10  and  C_11
REMARK    6  A    between atoms: C_11  and  C_12
REMARK    7  A    between atoms: C_11  and  C_19
REMARK    8  A    between atoms: C_12  and  C_13
REMARK    9  A    between atoms: C_19  and  O_21
REMARK   10  A    between atoms: O_21  and  C_22
REMARK   11  A    between atoms: C_22  and  C_23
REMARK   12  A    between atoms: C_22  and  C_24
REMARK   13  A    between atoms: C_22  and  C_25
REMARK   14  A    between atoms: C_27  and  O_28
REMARK   15  A    between atoms: O_28  and  C_29
REMARK   16  A    between atoms: C_30  and  O_31
REMARK                            x       y       z     vdW  Elec       q    Type
REMARK                         _______ _______ _______ _____ _____    ______ ____
ROOT
ATOM      1  C   UNL     1       1.588   9.240  18.539  0.00  0.00    +0.000 C 
ATOM      2  O   UNL     1       1.957   9.730  17.486  0.00  0.00    +0.000 OA
ATOM      3  N   UNL     1       0.730   9.847  19.415  0.00  0.00    +0.000 N 
ATOM      4  H   UNL     1       0.454   9.380  20.274  0.00  0.00    +0.000 HD
ENDROOT
BRANCH   1   6
ATOM      5  C   UNL     1       2.953   7.185  18.318  0.00  0.00    +0.000 C 
ATOM      6  C   UNL     1       2.014   7.874  18.988  0.00  0.00    +0.000 C 
BRANCH   5   9
ATOM      7  C   UNL     1       3.241   3.576  19.480  0.00  0.00    +0.000 A 
ATOM      8  C   UNL     1       2.728   4.859  19.203  0.00  0.00    +0.000 A 
ATOM      9  C   UNL     1       3.548   5.902  18.753  0.00  0.00    +0.000 A 
ATOM     10  C   UNL     1       4.915   5.640  18.616  0.00  0.00    +0.000 A 
ATOM     11  C   UNL     1       5.459   4.373  18.886  0.00  0.00    +0.000 A 
ATOM     12  C   UNL     1       4.612   3.332  19.303  0.00  0.00    +0.000 A 
BRANCH   7  14
ATOM     13  C   UNL     1       1.356   2.158  18.998  0.00  0.00    +0.000 C 
ATOM     14  O   UNL     1       2.278   2.708  19.930  0.00  0.00    +0.000 OA
ENDBRANCH   7  14
BRANCH  11  15
ATOM     15  O   UNL     1       6.826   4.335  18.793  0.00  0.00    +0.000 OA
ATOM     16  C   UNL     1       7.438   4.648  17.549  0.00  0.00    +0.000 C 
ENDBRANCH  11  15
BRANCH  12  17
ATOM     17  O   UNL     1       5.124   2.093  19.569  0.00  0.00    +0.000 OA
ATOM     18  H   UNL     1       4.652   1.757  20.346  0.00  0.00    +0.000 HD
ENDBRANCH  12  17
ENDBRANCH   5   9
ENDBRANCH   1   6
BRANCH   3  19
ATOM     19  C   UNL     1       0.086  11.165  19.195  0.00  0.00    +0.000 C 
BRANCH  19  20
ATOM     20  C   UNL     1       0.746  12.155  20.167  0.00  0.00    +0.000 C 
ATOM     21  O   UNL     1       1.228  11.782  21.238  0.00  0.00    +0.000 OA
BRANCH  20  22
ATOM     22  O   UNL     1       0.757  13.441  19.711  0.00  0.00    +0.000 OA
BRANCH  22  23
ATOM     23  C   UNL     1       2.012  14.029  19.253  0.00  0.00    +0.000 C 
ATOM     24  C   UNL     1       1.803  15.435  18.673  0.00  0.00    +0.000 C 
ATOM     25  C   UNL     1       2.931  14.150  20.482  0.00  0.00    +0.000 C 
ATOM     26  C   UNL     1       2.708  13.099  18.249  0.00  0.00    +0.000 C 
ENDBRANCH  22  23
ENDBRANCH  20  22
ENDBRANCH  19  20
BRANCH  19  27
ATOM     27  C   UNL     1      -1.446  11.157  19.359  0.00  0.00    +0.000 C 
BRANCH  27  28
ATOM     28  C   UNL     1      -2.251  10.968  18.086  0.00  0.00    +0.000 A 
ATOM     29  C   UNL     1      -1.819  10.079  17.097  0.00  0.00    +0.000 A 
ATOM     30  C   UNL     1      -2.591   9.860  15.955  0.00  0.00    +0.000 A 
ATOM     31  C   UNL     1      -3.799  10.528  15.780  0.00  0.00    +0.000 A 
ATOM     32  C   UNL     1      -4.237  11.424  16.751  0.00  0.00    +0.000 A 
ATOM     33  C   UNL     1      -3.471  11.628  17.898  0.00  0.00    +0.000 A 
ENDBRANCH  27  28
ENDBRANCH  19  27
ENDBRANCH   3  19
TORSDOF 11
ENDMDL
MODEL 4
REMARK VINA RESULT:      -8.0      1.247      1.597
REMARK  Name = 
REMARK  16 active torsions:
REMARK  status: ('A' for Active; 'I' for Inactive)
REMARK    1  A    between atoms: C_1  and  O_2
REMARK    2  A    between atoms: O_2  and  C_3
REMARK    3  A    between atoms: C_5  and  C_6
REMARK    4  A    between atoms: C_7  and  C_8
REMARK    5  A    between atoms: N_10  and  C_11
REMARK    6  A    between atoms: C_11  and  C_12
REMARK    7  A    between atoms: C_11  and  C_19
REMARK    8  A    between atoms: C_12  and  C_13
REMARK    9  A    between atoms: C_19  and  O_21
REMARK   10  A    between atoms: O_21  and  C_22
REMARK   11  A    between atoms: C_22  and  C_23
REMARK   12  A    between atoms: C_22  and  C_24
REMARK   13  A    between atoms: C_22  and  C_25
REMARK   14  A    between atoms: C_27  and  O_28
REMARK   15  A    between atoms: O_28  and  C_29
REMARK   16  A    between atoms: C_30  and  O_31
REMARK                            x       y       z     vdW  Elec       q    Type
REMARK                         _______ _______ _______ _____ _____    ______ ____
ROOT
ATOM      1  C   UNL     1       1.743   9.113  18.435  0.00  0.00    +0.000 C 
ATOM      2  O   UNL     1       2.093   9.626  17.386  0.00  0.00    +0.000 OA
ATOM      3  N   UNL     1       0.805   9.644  19.279  0.00  0.00    +0.000 N 
ATOM      4  H   UNL     1       0.550   9.162  20.136  0.00  0.00    +0.000 HD
ENDROOT
BRANCH   1   6
ATOM      5  C   UNL     1       2.503   6.786  18.059  0.00  0.00    +0.000 C 
ATOM      6  C   UNL     1       2.285   7.800  18.914  0.00  0.00    +0.000 C 
BRANCH   5   9
ATOM      7  C   UNL     1       5.199   4.300  19.063  0.00  0.00    +0.000 A 
ATOM      8  C   UNL     1       4.553   5.461  18.591  0.00  0.00    +0.000 A 
ATOM      9  C   UNL     1       3.166   5.507  18.398  0.00  0.00    +0.000 A 
ATOM     10  C   UNL     1       2.434   4.345  18.659  0.00  0.00    +0.000 A 
ATOM     11  C   UNL     1       3.048   3.170  19.127  0.00  0.00    +0.000 A 
ATOM     12  C   UNL     1       4.436   3.156  19.346  0.00  0.00    +0.000 A 
BRANCH   7  14
ATOM     13  C   UNL     1       7.124   5.741  18.935  0.00  0.00    +0.000 C 
ATOM     14  O   UNL     1       6.560   4.455  19.159  0.00  0.00    +0.000 OA
ENDBRANCH   7  14
BRANCH  11  15
ATOM     15  O   UNL     1       2.188   2.108  19.227  0.00  0.00    +0.000 OA
ATOM     16  C   UNL     1       0.840   2.275  18.808  0.00  0.00    +0.000 C 
ENDBRANCH  11  15
BRANCH  12  17
ATOM     17  O   UNL     1       5.049   2.023  19.802  0.00  0.00    +0.000 OA
ATOM     18  H   UNL     1       5.445   2.245  20.659  0.00  0.00    +0.000 HD
ENDBRANCH  12  17
ENDBRANCH   5   9
ENDBRANCH   1   6
BRANCH   3  19
ATOM     19  C   UNL     1       0.045  10.892  19.023  0.00  0.00    +0.000 C 
BRANCH  19  20
ATOM     20  C   UNL     1       0.635  11.973  19.940  0.00  0.00    +0.000 C 
ATOM     21  O   UNL     1       1.820  12.302  19.870  0.00  0.00    +0.000 OA
BRANCH  20  22
ATOM     22  O   UNL     1      -0.279  12.524  20.792  0.00  0.00    +0.000 OA
BRANCH  22  23
ATOM     23  C   UNL     1      -0.749  13.884  20.557  0.00  0.00    +0.000 C 
ATOM     24  C   UNL     1      -2.257  14.017  20.817  0.00  0.00    +0.000 C 
ATOM     25  C   UNL     1      -0.011  14.797  21.554  0.00  0.00    +0.000 C 
ATOM     26  C   UNL     1      -0.374  14.349  19.143  0.00  0.00    +0.000 C 
ENDBRANCH  22  23
ENDBRANCH  20  22
ENDBRANCH  19  20
BRANCH  19  27
ATOM     27  C   UNL     1      -1.478  10.757  19.223  0.00  0.00    +0.000 C 
BRANCH  27  28
ATOM     28  C   UNL     1      -2.317  10.755  17.959  0.00  0.00    +0.000 A 
ATOM     29  C   UNL     1      -1.972   9.940  16.877  0.00  0.00    +0.000 A 
ATOM     30  C   UNL     1      -2.779   9.891  15.739  0.00  0.00    +0.000 A 
ATOM     31  C   UNL     1      -3.937  10.660  15.661  0.00  0.00    +0.000 A 
ATOM     32  C   UNL     1      -4.288  11.484  16.726  0.00  0.00    +0.000 A 
ATOM     33  C   UNL     1      -3.488  11.518  17.868  0.00  0.00    +0.000 A 
ENDBRANCH  27  28
ENDBRANCH  19  27
ENDBRANCH   3  19
TORSDOF 11
ENDMDL
MODEL 5
REMARK VINA RESULT:      -8.0      1.699      2.403
REMARK  Name = 
REMARK  16 active torsions:
REMARK  status: ('A' for Active; 'I' for Inactive)
REMARK    1  A    between atoms: C_1  and  O_2
REMARK    2  A    between atoms: O_2  and  C_3
REMARK    3  A    between atoms: C_5  and  C_6
REMARK    4  A    between atoms: C_7  and  C_8
REMARK    5  A    between atoms: N_10  and  C_11
REMARK    6  A    between atoms: C_11  and  C_12
REMARK    7  A    between atoms: C_11  and  C_19
REMARK    8  A    between atoms: C_12  and  C_13
REMARK    9  A    between atoms: C_19  and  O_21
REMARK   10  A    between atoms: O_21  and  C_22
REMARK   11  A    between atoms: C_22  and  C_23
REMARK   12  A    between atoms: C_22  and  C_24
REMARK   13  A    between atoms: C_22  and  C_25
REMARK   14  A    between atoms: C_27  and  O_28
REMARK   15  A    between atoms: O_28  and  C_29
REMARK   16  A    between atoms: C_30  and  O_31
REMARK                            x       y       z     vdW  Elec       q    Type
REMARK                         _______ _______ _______ _____ _____    ______ ____
ROOT
ATOM      1  C   UNL     1       1.881   9.727  18.131  0.00  0.00    +0.000 C 
ATOM      2  O   UNL     1       2.173  10.728  17.500  0.00  0.00    +0.000 OA
ATOM      3  N   UNL     1       0.830   9.643  19.004  0.00  0.00    +0.000 N 
ATOM      4  H   UNL     1       0.633   8.775  19.494  0.00  0.00    +0.000 HD
ENDROOT
BRANCH   1   6
ATOM      5  C   UNL     1       2.368   7.393  18.799  0.00  0.00    +0.000 C 
ATOM      6  C   UNL     1       2.632   8.436  17.995  0.00  0.00    +0.000 C 
BRANCH   5   9
ATOM      7  C   UNL     1       4.818   4.493  19.025  0.00  0.00    +0.000 A 
ATOM      8  C   UNL     1       4.279   5.796  19.000  0.00  0.00    +0.000 A 
ATOM      9  C   UNL     1       2.942   6.036  18.658  0.00  0.00    +0.000 A 
ATOM     10  C   UNL     1       2.154   4.936  18.306  0.00  0.00    +0.000 A 
ATOM     11  C   UNL     1       2.661   3.625  18.319  0.00  0.00    +0.000 A 
ATOM     12  C   UNL     1       3.995   3.404  18.698  0.00  0.00    +0.000 A 
BRANCH   7  14
ATOM     13  C   UNL     1       7.003   5.486  18.835  0.00  0.00    +0.000 C 
ATOM     14  O   UNL     1       6.149   4.479  19.361  0.00  0.00    +0.000 OA
ENDBRANCH   7  14
BRANCH  11  15
ATOM     15  O   UNL     1       1.773   2.693  17.848  0.00  0.00    +0.000 OA
ATOM     16  C   UNL     1       0.757   2.212  18.718  0.00  0.00    +0.000 C 
ENDBRANCH  11  15
BRANCH  12  17
ATOM     17  O   UNL     1       4.505   2.136  18.717  0.00  0.00    +0.000 OA
ATOM     18  H   UNL     1       4.606   1.889  19.649  0.00  0.00    +0.000 HD
ENDBRANCH  12  17
ENDBRANCH   5   9
ENDBRANCH   1   6
BRANCH   3  19
ATOM     19  C   UNL     1      -0.133  10.738  19.278  0.00  0.00    +0.000 C 
BRANCH  19  20
ATOM     20  C   UNL     1       0.291  11.388  20.603  0.00  0.00    +0.000 C 
ATOM     21  O   UNL     1       1.244  10.959  21.257  0.00  0.00    +0.000 OA
BRANCH  20  22
ATOM     22  O   UNL     1      -0.466  12.471  20.947  0.00  0.00    +0.000 OA
BRANCH  22  23
ATOM     23  C   UNL     1      -1.322  12.403  22.126  0.00  0.00    +0.000 C 
ATOM     24  C   UNL     1      -1.142  11.080  22.884  0.00  0.00    +0.000 C 
ATOM     25  C   UNL     1      -0.898  13.551  23.060  0.00  0.00    +0.000 C 
ATOM     26  C   UNL     1      -2.789  12.641  21.742  0.00  0.00    +0.000 C 
ENDBRANCH  22  23
ENDBRANCH  20  22
ENDBRANCH  19  20
BRANCH  19  27
ATOM     27  C   UNL     1      -1.607  10.289  19.321  0.00  0.00    +0.000 C 
BRANCH  27  28
ATOM     28  C   UNL     1      -2.396  10.471  18.038  0.00  0.00    +0.000 A 
ATOM     29  C   UNL     1      -3.523  11.299  18.008  0.00  0.00    +0.000 A 
ATOM     30  C   UNL     1      -4.212  11.516  16.814  0.00  0.00    +0.000 A 
ATOM     31  C   UNL     1      -3.792  10.906  15.635  0.00  0.00    +0.000 A 
ATOM     32  C   UNL     1      -2.679  10.070  15.652  0.00  0.00    +0.000 A 
ATOM     33  C   UNL     1      -1.983   9.869  16.844  0.00  0.00    +0.000 A 
ENDBRANCH  27  28
ENDBRANCH  19  27
ENDBRANCH   3  19
TORSDOF 11
ENDMDL
MODEL 6
REMARK VINA RESULT:      -8.0      5.974     10.143
REMARK  Name = 
REMARK  16 active torsions:
REMARK  status: ('A' for Active; 'I' for Inactive)
REMARK    1  A    between atoms: C_1  and  O_2
REMARK    2  A    between atoms: O_2  and  C_3
REMARK    3  A    between atoms: C_5  and  C_6
REMARK    4  A    between atoms: C_7  and  C_8
REMARK    5  A    between atoms: N_10  and  C_11
REMARK    6  A    between atoms: C_11  and  C_12
REMARK    7  A    between atoms: C_11  and  C_19
REMARK    8  A    between atoms: C_12  and  C_13
REMARK    9  A    between atoms: C_19  and  O_21
REMARK   10  A    between atoms: O_21  and  C_22
REMARK   11  A    between atoms: C_22  and  C_23
REMARK   12  A    between atoms: C_22  and  C_24
REMARK   13  A    between atoms: C_22  and  C_25
REMARK   14  A    between atoms: C_27  and  O_28
REMARK   15  A    between atoms: O_28  and  C_29
REMARK   16  A    between atoms: C_30  and  O_31
REMARK                            x       y       z     vdW  Elec       q    Type
REMARK                         _______ _______ _______ _____ _____    ______ ____
ROOT
ATOM      1  C   UNL     1       7.259   7.418  17.376  0.00  0.00    +0.000 C 
ATOM      2  O   UNL     1       7.900   6.422  17.661  0.00  0.00    +0.000 OA
ATOM      3  N   UNL     1       6.087   7.406  16.668  0.00  0.00    +0.000 N 
ATOM      4  H   UNL     1       5.594   8.272  16.470  0.00  0.00    +0.000 HD
ENDROOT
BRANCH   1   6
ATOM      5  C   UNL     1       8.761   8.989  18.561  0.00  0.00    +0.000 C 
ATOM      6  C   UNL     1       7.668   8.795  17.804  0.00  0.00    +0.000 C 
BRANCH   5   9
ATOM      7  C   UNL     1      10.247  12.470  18.197  0.00  0.00    +0.000 A 
ATOM      8  C   UNL     1       9.835  11.151  17.917  0.00  0.00    +0.000 A 
ATOM      9  C   UNL     1       9.335  10.306  18.916  0.00  0.00    +0.000 A 
ATOM     10  C   UNL     1       9.286  10.803  20.222  0.00  0.00    +0.000 A 
ATOM     11  C   UNL     1       9.691  12.111  20.535  0.00  0.00    +0.000 A 
ATOM     12  C   UNL     1      10.157  12.954  19.512  0.00  0.00    +0.000 A 
BRANCH   7  14
ATOM     13  C   UNL     1      12.131  13.235  16.908  0.00  0.00    +0.000 C 
ATOM     14  O   UNL     1      10.726  13.120  17.086  0.00  0.00    +0.000 OA
ENDBRANCH   7  14
BRANCH  11  15
ATOM     15  O   UNL     1       9.667  12.383  21.878  0.00  0.00    +0.000 OA
ATOM     16  C   UNL     1       8.505  12.050  22.625  0.00  0.00    +0.000 C 
ENDBRANCH  11  15
BRANCH  12  17
ATOM     17  O   UNL     1      10.555  14.229  19.797  0.00  0.00    +0.000 OA
ATOM     18  H   UNL     1      11.020  14.560  19.013  0.00  0.00    +0.000 HD
ENDBRANCH  12  17
ENDBRANCH   5   9
ENDBRANCH   1   6
BRANCH   3  19
ATOM     19  C   UNL     1       5.401   6.182  16.185  0.00  0.00    +0.000 C 
BRANCH  19  20
ATOM     20  C   UNL     1       4.316   5.839  17.215  0.00  0.00    +0.000 C 
ATOM     21  O   UNL     1       3.919   6.669  18.035  0.00  0.00    +0.000 OA
BRANCH  20  22
ATOM     22  O   UNL     1       3.841   4.564  17.104  0.00  0.00    +0.000 OA
BRANCH  22  23
ATOM     23  C   UNL     1       3.664   3.757  18.307  0.00  0.00    +0.000 C 
ATOM     24  C   UNL     1       2.372   4.122  19.052  0.00  0.00    +0.000 C 
ATOM     25  C   UNL     1       3.556   2.289  17.855  0.00  0.00    +0.000 C 
ATOM     26  C   UNL     1       4.895   3.868  19.217  0.00  0.00    +0.000 C 
ENDBRANCH  22  23
ENDBRANCH  20  22
ENDBRANCH  19  20
BRANCH  19  27
ATOM     27  C   UNL     1       6.341   4.984  15.941  0.00  0.00    +0.000 C 
BRANCH  27  28
ATOM     28  C   UNL     1       6.599   4.625  14.490  0.00  0.00    +0.000 A 
ATOM     29  C   UNL     1       5.813   3.665  13.844  0.00  0.00    +0.000 A 
ATOM     30  C   UNL     1       6.011   3.381  12.492  0.00  0.00    +0.000 A 
ATOM     31  C   UNL     1       6.998   4.042  11.768  0.00  0.00    +0.000 A 
ATOM     32  C   UNL     1       7.795   4.992  12.400  0.00  0.00    +0.000 A 
ATOM     33  C   UNL     1       7.584   5.286  13.746  0.00  0.00    +0.000 A 
ENDBRANCH  27  28
ENDBRANCH  19  27
ENDBRANCH   3  19
TORSDOF 11
ENDMDL
MODEL 7
REMARK VINA RESULT:      -8.0      5.899     10.311
REMARK  Name = 
REMARK  16 active torsions:
REMARK  status: ('A' for Active; 'I' for Inactive)
REMARK    1  A    between atoms: C_1  and  O_2
REMARK    2  A    between atoms: O_2  and  C_3
REMARK    3  A    between atoms: C_5  and  C_6
REMARK    4  A    between atoms: C_7  and  C_8
REMARK    5  A    between atoms: N_10  and  C_11
REMARK    6  A    between atoms: C_11  and  C_12
REMARK    7  A    between atoms: C_11  and  C_19
REMARK    8  A    between atoms: C_12  and  C_13
REMARK    9  A    between atoms: C_19  and  O_21
REMARK   10  A    between atoms: O_21  and  C_22
REMARK   11  A    between atoms: C_22  and  C_23
REMARK   12  A    between atoms: C_22  and  C_24
REMARK   13  A    between atoms: C_22  and  C_25
REMARK   14  A    between atoms: C_27  and  O_28
REMARK   15  A    between atoms: O_28  and  C_29
REMARK   16  A    between atoms: C_30  and  O_31
REMARK                            x       y       z     vdW  Elec       q    Type
REMARK                         _______ _______ _______ _____ _____    ______ ____
ROOT
ATOM      1  C   UNL     1       7.535   7.369  17.518  0.00  0.00    +0.000 C 
ATOM      2  O   UNL     1       7.857   6.381  18.155  0.00  0.00    +0.000 OA
ATOM      3  N   UNL     1       6.458   7.425  16.674  0.00  0.00    +0.000 N 
ATOM      4  H   UNL     1       6.236   8.283  16.177  0.00  0.00    +0.000 HD
ENDROOT
BRANCH   1   6
ATOM      5  C   UNL     1       8.472   9.270  18.796  0.00  0.00    +0.000 C 
ATOM      6  C   UNL     1       8.273   8.670  17.611  0.00  0.00    +0.000 C 
BRANCH   5   9
ATOM      7  C   UNL     1      10.226  12.142  20.568  0.00  0.00    +0.000 A 
ATOM      8  C   UNL     1       9.331  11.092  20.274  0.00  0.00    +0.000 A 
ATOM      9  C   UNL     1       9.307  10.472  19.019  0.00  0.00    +0.000 A 
ATOM     10  C   UNL     1      10.185  10.950  18.041  0.00  0.00    +0.000 A 
ATOM     11  C   UNL     1      11.087  11.996  18.300  0.00  0.00    +0.000 A 
ATOM     12  C   UNL     1      11.118  12.581  19.577  0.00  0.00    +0.000 A 
BRANCH   7  14
ATOM     13  C   UNL     1       9.202  13.730  22.060  0.00  0.00    +0.000 C 
ATOM     14  O   UNL     1      10.071  12.626  21.844  0.00  0.00    +0.000 OA
ENDBRANCH   7  14
BRANCH  11  15
ATOM     15  O   UNL     1      11.792  12.395  17.195  0.00  0.00    +0.000 OA
ATOM     16  C   UNL     1      11.437  13.614  16.557  0.00  0.00    +0.000 C 
ENDBRANCH  11  15
BRANCH  12  17
ATOM     17  O   UNL     1      11.989  13.598  19.848  0.00  0.00    +0.000 OA
ATOM     18  H   UNL     1      11.459  14.341  20.174  0.00  0.00    +0.000 HD
ENDBRANCH  12  17
ENDBRANCH   5   9
ENDBRANCH   1   6
BRANCH   3  19
ATOM     19  C   UNL     1       5.500   6.315  16.446  0.00  0.00    +0.000 C 
BRANCH  19  20
ATOM     20  C   UNL     1       4.582   6.255  17.675  0.00  0.00    +0.000 C 
ATOM     21  O   UNL     1       3.724   7.115  17.882  0.00  0.00    +0.000 OA
BRANCH  20  22
ATOM     22  O   UNL     1       4.802   5.166  18.468  0.00  0.00    +0.000 OA
BRANCH  22  23
ATOM     23  C   UNL     1       3.686   4.290  18.810  0.00  0.00    +0.000 C 
ATOM     24  C   UNL     1       2.793   4.006  17.594  0.00  0.00    +0.000 C 
ATOM     25  C   UNL     1       4.288   2.954  19.283  0.00  0.00    +0.000 C 
ATOM     26  C   UNL     1       2.882   4.872  19.981  0.00  0.00    +0.000 C 
ENDBRANCH  22  23
ENDBRANCH  20  22
ENDBRANCH  19  20
BRANCH  19  27
ATOM     27  C   UNL     1       6.165   4.951  16.176  0.00  0.00    +0.000 C 
BRANCH  27  28
ATOM     28  C   UNL     1       6.505   4.651  14.728  0.00  0.00    +0.000 A 
ATOM     29  C   UNL     1       5.749   3.730  13.996  0.00  0.00    +0.000 A 
ATOM     30  C   UNL     1       6.023   3.501  12.647  0.00  0.00    +0.000 A 
ATOM     31  C   UNL     1       7.058   4.180  12.011  0.00  0.00    +0.000 A 
ATOM     32  C   UNL     1       7.827   5.091  12.730  0.00  0.00    +0.000 A 
ATOM     33  C   UNL     1       7.539   5.330  14.073  0.00  0.00    +0.000 A 
ENDBRANCH  27  28
ENDBRANCH  19  27
ENDBRANCH   3  19
TORSDOF 11
ENDMDL
MODEL 8
REMARK VINA RESULT:      -7.9      1.168      2.799
REMARK  Name = 
REMARK  16 active torsions:
REMARK  status: ('A' for Active; 'I' for Inactive)
REMARK    1  A    between atoms: C_1  and  O_2
REMARK    2  A    between atoms: O_2  and  C_3
REMARK    3  A    between atoms: C_5  and  C_6
REMARK    4  A    between atoms: C_7  and  C_8
REMARK    5  A    between atoms: N_10  and  C_11
REMARK    6  A    between atoms: C_11  and  C_12
REMARK    7  A    between atoms: C_11  and  C_19
REMARK    8  A    between atoms: C_12  and  C_13
REMARK    9  A    between atoms: C_19  and  O_21
REMARK   10  A    between atoms: O_21  and  C_22
REMARK   11  A    between atoms: C_22  and  C_23
REMARK   12  A    between atoms: C_22  and  C_24
REMARK   13  A    between atoms: C_22  and  C_25
REMARK   14  A    between atoms: C_27  and  O_28
REMARK   15  A    between atoms: O_28  and  C_29
REMARK   16  A    between atoms: C_30  and  O_31
REMARK                            x       y       z     vdW  Elec       q    Type
REMARK                         _______ _______ _______ _____ _____    ______ ____
ROOT
ATOM      1  C   UNL     1       1.679   9.240  18.482  0.00  0.00    +0.000 C 
ATOM      2  O   UNL     1       2.032   9.672  17.398  0.00  0.00    +0.000 OA
ATOM      3  N   UNL     1       0.743   9.835  19.283  0.00  0.00    +0.000 N 
ATOM      4  H   UNL     1       0.485   9.420  20.173  0.00  0.00    +0.000 HD
ENDROOT
BRANCH   1   6
ATOM      5  C   UNL     1       2.555   6.934  18.267  0.00  0.00    +0.000 C 
ATOM      6  C   UNL     1       2.216   7.964  19.059  0.00  0.00    +0.000 C 
BRANCH   5   9
ATOM      7  C   UNL     1       3.071   3.326  19.351  0.00  0.00    +0.000 A 
ATOM      8  C   UNL     1       2.469   4.569  19.067  0.00  0.00    +0.000 A 
ATOM      9  C   UNL     1       3.226   5.693  18.715  0.00  0.00    +0.000 A 
ATOM     10  C   UNL     1       4.617   5.555  18.682  0.00  0.00    +0.000 A 
ATOM     11  C   UNL     1       5.249   4.331  18.961  0.00  0.00    +0.000 A 
ATOM     12  C   UNL     1       4.468   3.207  19.280  0.00  0.00    +0.000 A 
BRANCH   7  14
ATOM     13  C   UNL     1       1.012   2.171  18.875  0.00  0.00    +0.000 C 
ATOM     14  O   UNL     1       2.155   2.363  19.698  0.00  0.00    +0.000 OA
ENDBRANCH   7  14
BRANCH  11  15
ATOM     15  O   UNL     1       6.616   4.414  18.979  0.00  0.00    +0.000 OA
ATOM     16  C   UNL     1       7.303   4.703  17.768  0.00  0.00    +0.000 C 
ENDBRANCH  11  15
BRANCH  12  17
ATOM     17  O   UNL     1       5.064   2.009  19.553  0.00  0.00    +0.000 OA
ATOM     18  H   UNL     1       5.150   1.540  18.710  0.00  0.00    +0.000 HD
ENDBRANCH  12  17
ENDBRANCH   5   9
ENDBRANCH   1   6
BRANCH   3  19
ATOM     19  C   UNL     1      -0.014  11.063  18.934  0.00  0.00    +0.000 C 
BRANCH  19  20
ATOM     20  C   UNL     1       0.572  12.206  19.775  0.00  0.00    +0.000 C 
ATOM     21  O   UNL     1       1.354  13.027  19.293  0.00  0.00    +0.000 OA
BRANCH  20  22
ATOM     22  O   UNL     1       0.124  12.220  21.064  0.00  0.00    +0.000 OA
BRANCH  22  23
ATOM     23  C   UNL     1      -0.366  13.469  21.640  0.00  0.00    +0.000 C 
ATOM     24  C   UNL     1       0.779  14.451  21.925  0.00  0.00    +0.000 C 
ATOM     25  C   UNL     1      -1.300  14.112  20.598  0.00  0.00    +0.000 C 
ATOM     26  C   UNL     1      -1.202  13.192  22.897  0.00  0.00    +0.000 C 
ENDBRANCH  22  23
ENDBRANCH  20  22
ENDBRANCH  19  20
BRANCH  19  27
ATOM     27  C   UNL     1      -1.537  10.946  19.132  0.00  0.00    +0.000 C 
BRANCH  27  28
ATOM     28  C   UNL     1      -2.367  10.833  17.867  0.00  0.00    +0.000 A 
ATOM     29  C   UNL     1      -1.975   9.977  16.833  0.00  0.00    +0.000 A 
ATOM     30  C   UNL     1      -2.770   9.827  15.696  0.00  0.00    +0.000 A 
ATOM     31  C   UNL     1      -3.963  10.532  15.571  0.00  0.00    +0.000 A 
ATOM     32  C   UNL     1      -4.361  11.397  16.587  0.00  0.00    +0.000 A 
ATOM     33  C   UNL     1      -3.572  11.532  17.728  0.00  0.00    +0.000 A 
ENDBRANCH  27  28
ENDBRANCH  19  27
ENDBRANCH   3  19
TORSDOF 11
ENDMDL
MODEL 9
REMARK VINA RESULT:      -7.8      1.077      1.291
REMARK  Name = 
REMARK  16 active torsions:
REMARK  status: ('A' for Active; 'I' for Inactive)
REMARK    1  A    between atoms: C_1  and  O_2
REMARK    2  A    between atoms: O_2  and  C_3
REMARK    3  A    between atoms: C_5  and  C_6
REMARK    4  A    between atoms: C_7  and  C_8
REMARK    5  A    between atoms: N_10  and  C_11
REMARK    6  A    between atoms: C_11  and  C_12
REMARK    7  A    between atoms: C_11  and  C_19
REMARK    8  A    between atoms: C_12  and  C_13
REMARK    9  A    between atoms: C_19  and  O_21
REMARK   10  A    between atoms: O_21  and  C_22
REMARK   11  A    between atoms: C_22  and  C_23
REMARK   12  A    between atoms: C_22  and  C_24
REMARK   13  A    between atoms: C_22  and  C_25
REMARK   14  A    between atoms: C_27  and  O_28
REMARK   15  A    between atoms: O_28  and  C_29
REMARK   16  A    between atoms: C_30  and  O_31
REMARK                            x       y       z     vdW  Elec       q    Type
REMARK                         _______ _______ _______ _____ _____    ______ ____
ROOT
ATOM      1  C   UNL     1       2.073   9.685  18.050  0.00  0.00    +0.000 C 
ATOM      2  O   UNL     1       2.370  10.661  17.383  0.00  0.00    +0.000 OA
ATOM      3  N   UNL     1       1.039   9.646  18.945  0.00  0.00    +0.000 N 
ATOM      4  H   UNL     1       0.838   8.797  19.465  0.00  0.00    +0.000 HD
ENDROOT
BRANCH   1   6
ATOM      5  C   UNL     1       2.354   7.281  18.573  0.00  0.00    +0.000 C 
ATOM      6  C   UNL     1       2.801   8.379  17.940  0.00  0.00    +0.000 C 
BRANCH   5   9
ATOM      7  C   UNL     1       4.809   4.378  18.629  0.00  0.00    +0.000 A 
ATOM      8  C   UNL     1       4.273   5.682  18.617  0.00  0.00    +0.000 A 
ATOM      9  C   UNL     1       2.907   5.917  18.418  0.00  0.00    +0.000 A 
ATOM     10  C   UNL     1       2.083   4.810  18.195  0.00  0.00    +0.000 A 
ATOM     11  C   UNL     1       2.586   3.498  18.198  0.00  0.00    +0.000 A 
ATOM     12  C   UNL     1       3.954   3.282  18.434  0.00  0.00    +0.000 A 
BRANCH   7  14
ATOM     13  C   UNL     1       7.020   4.601  17.700  0.00  0.00    +0.000 C 
ATOM     14  O   UNL     1       6.170   4.368  18.815  0.00  0.00    +0.000 OA
ENDBRANCH   7  14
BRANCH  11  15
ATOM     15  O   UNL     1       1.651   2.554  17.861  0.00  0.00    +0.000 OA
ATOM     16  C   UNL     1       0.604   2.267  18.780  0.00  0.00    +0.000 C 
ENDBRANCH  11  15
BRANCH  12  17
ATOM     17  O   UNL     1       4.460   2.013  18.441  0.00  0.00    +0.000 OA
ATOM     18  H   UNL     1       3.744   1.428  18.730  0.00  0.00    +0.000 HD
ENDBRANCH  12  17
ENDBRANCH   5   9
ENDBRANCH   1   6
BRANCH   3  19
ATOM     19  C   UNL     1       0.099  10.765  19.203  0.00  0.00    +0.000 C 
BRANCH  19  20
ATOM     20  C   UNL     1       0.577  11.467  20.483  0.00  0.00    +0.000 C 
ATOM     21  O   UNL     1       0.081  11.212  21.582  0.00  0.00    +0.000 OA
BRANCH  20  22
ATOM     22  O   UNL     1       1.593  12.353  20.272  0.00  0.00    +0.000 OA
BRANCH  22  23
ATOM     23  C   UNL     1       1.280  13.750  19.991  0.00  0.00    +0.000 C 
ATOM     24  C   UNL     1       1.973  14.698  20.980  0.00  0.00    +0.000 C 
ATOM     25  C   UNL     1       1.812  14.059  18.580  0.00  0.00    +0.000 C 
ATOM     26  C   UNL     1      -0.240  13.969  19.967  0.00  0.00    +0.000 C 
ENDBRANCH  22  23
ENDBRANCH  20  22
ENDBRANCH  19  20
BRANCH  19  27
ATOM     27  C   UNL     1      -1.377  10.338  19.316  0.00  0.00    +0.000 C 
BRANCH  27  28
ATOM     28  C   UNL     1      -2.227  10.543  18.076  0.00  0.00    +0.000 A 
ATOM     29  C   UNL     1      -1.931   9.862  16.891  0.00  0.00    +0.000 A 
ATOM     30  C   UNL     1      -2.749  10.002  15.769  0.00  0.00    +0.000 A 
ATOM     31  C   UNL     1      -3.868  10.829  15.810  0.00  0.00    +0.000 A 
ATOM     32  C   UNL     1      -4.169  11.522  16.979  0.00  0.00    +0.000 A 
ATOM     33  C   UNL     1      -3.359  11.366  18.103  0.00  0.00    +0.000 A 
ENDBRANCH  27  28
ENDBRANCH  19  27
ENDBRANCH   3  19
TORSDOF 11
ENDMDL
