MODEL 1
REMARK VINA RESULT:      -6.9      0.000      0.000
REMARK  Name = 
REMARK  10 active torsions:
REMARK  status: ('A' for Active; 'I' for Inactive)
REMARK    1  A    between atoms: C_1  and  C_2
REMARK    2  A    between atoms: C_2  and  N_3
REMARK    3  A    between atoms: N_3  and  C_4
REMARK    4  A    between atoms: N_3  and  C_6
REMARK    5  A    between atoms: C_4  and  C_5
REMARK    6  A    between atoms: C_6  and  C_7
REMARK    7  A    between atoms: C_7  and  S_8
REMARK    8  A    between atoms: S_8  and  C_9
REMARK    9  A    between atoms: C_21  and  S_22
REMARK   10  A    between atoms: S_22  and  C_23
REMARK                            x       y       z     vdW  Elec       q    Type
REMARK                         _______ _______ _______ _____ _____    ______ ____
ROOT
ATOM      1  C   UNL     1       3.006   6.049  17.938  0.00  0.00    +0.000 C 
ATOM      2  C   UNL     1       2.121   4.790  17.887  0.00  0.00    +0.000 C 
ATOM      3  C   UNL     1       2.176   3.948  19.123  0.00  0.00    +0.000 A 
ATOM      4  C   UNL     1       1.018   3.752  19.902  0.00  0.00    +0.000 A 
ATOM      5  C   UNL     1       1.083   3.029  21.097  0.00  0.00    +0.000 A 
ATOM      6  C   UNL     1       2.287   2.451  21.496  0.00  0.00    +0.000 A 
ATOM      7  C   UNL     1       3.421   2.598  20.703  0.00  0.00    +0.000 A 
ATOM      8  C   UNL     1       3.385   3.357  19.528  0.00  0.00    +0.000 A 
ATOM      9  O   UNL     1       4.547   3.482  18.853  0.00  0.00    +0.000 OA
ATOM     10  C   UNL     1       5.155   4.605  18.399  0.00  0.00    +0.000 A 
ATOM     11  C   UNL     1       6.554   4.520  18.341  0.00  0.00    +0.000 A 
ATOM     12  C   UNL     1       7.334   5.615  17.984  0.00  0.00    +0.000 A 
ATOM     13  C   UNL     1       6.728   6.828  17.671  0.00  0.00    +0.000 A 
ATOM     14  C   UNL     1       5.332   6.930  17.690  0.00  0.00    +0.000 A 
ATOM     15  C   UNL     1       4.514   5.831  18.043  0.00  0.00    +0.000 A 
ENDROOT
BRANCH  13  16
ATOM     16  S   UNL     1       7.752   8.229  17.192  0.00  0.00    +0.000 S 
ATOM     17  C   UNL     1       8.609   8.397  18.791  0.00  0.00    +0.000 C 
ENDBRANCH  13  16
BRANCH   1  18
ATOM     18  S   UNL     1       2.376   7.403  19.041  0.00  0.00    +0.000 S 
BRANCH  18  19
ATOM     19  C   UNL     1       1.978   8.654  17.783  0.00  0.00    +0.000 C 
BRANCH  19  20
ATOM     20  C   UNL     1       1.450   9.950  18.387  0.00  0.00    +0.000 C 
BRANCH  20  21
ATOM     21  N   UNL     1       0.027   9.811  18.801  0.00  0.00    +0.000 NA
BRANCH  21  23
ATOM     22  C   UNL     1      -0.163   9.189  21.257  0.00  0.00    +0.000 C 
ATOM     23  C   UNL     1      -0.201  10.288  20.192  0.00  0.00    +0.000 C 
ENDBRANCH  21  23
BRANCH  21  24
ATOM     24  C   UNL     1      -0.895  10.372  17.783  0.00  0.00    +0.000 C 
ATOM     25  C   UNL     1      -2.365  10.027  18.025  0.00  0.00    +0.000 C 
ENDBRANCH  21  24
ENDBRANCH  20  21
ENDBRANCH  19  20
ENDBRANCH  18  19
ENDBRANCH   1  18
TORSDOF 7
ENDMDL
MODEL 2
REMARK VINA RESULT:      -6.7      0.433      1.347
REMARK  Name = 
REMARK  10 active torsions:
REMARK  status: ('A' for Active; 'I' for Inactive)
REMARK    1  A    between atoms: C_1  and  C_2
REMARK    2  A    between atoms: C_2  and  N_3
REMARK    3  A    between atoms: N_3  and  C_4
REMARK    4  A    between atoms: N_3  and  C_6
REMARK    5  A    between atoms: C_4  and  C_5
REMARK    6  A    between atoms: C_6  and  C_7
REMARK    7  A    between atoms: C_7  and  S_8
REMARK    8  A    between atoms: S_8  and  C_9
REMARK    9  A    between atoms: C_21  and  S_22
REMARK   10  A    between atoms: S_22  and  C_23
REMARK                            x       y       z     vdW  Elec       q    Type
REMARK                         _______ _______ _______ _____ _____    ______ ____
ROOT
ATOM      1  C   UNL     1       2.987   6.079  17.910  0.00  0.00    +0.000 C 
ATOM      2  C   UNL     1       2.106   4.817  17.863  0.00  0.00    +0.000 C 
ATOM      3  C   UNL     1       2.155   3.985  19.106  0.00  0.00    +0.000 A 
ATOM      4  C   UNL     1       0.992   3.792  19.879  0.00  0.00    +0.000 A 
ATOM      5  C   UNL     1       1.050   3.079  21.080  0.00  0.00    +0.000 A 
ATOM      6  C   UNL     1       2.254   2.508  21.492  0.00  0.00    +0.000 A 
ATOM      7  C   UNL     1       3.393   2.651  20.706  0.00  0.00    +0.000 A 
ATOM      8  C   UNL     1       3.362   3.401  19.525  0.00  0.00    +0.000 A 
ATOM      9  O   UNL     1       4.529   3.524  18.857  0.00  0.00    +0.000 OA
ATOM     10  C   UNL     1       5.137   4.645  18.398  0.00  0.00    +0.000 A 
ATOM     11  C   UNL     1       6.537   4.565  18.351  0.00  0.00    +0.000 A 
ATOM     12  C   UNL     1       7.316   5.659  17.991  0.00  0.00    +0.000 A 
ATOM     13  C   UNL     1       6.708   6.867  17.664  0.00  0.00    +0.000 A 
ATOM     14  C   UNL     1       5.311   6.965  17.672  0.00  0.00    +0.000 A 
ATOM     15  C   UNL     1       4.495   5.866  18.028  0.00  0.00    +0.000 A 
ENDROOT
BRANCH  13  16
ATOM     16  S   UNL     1       7.731   8.268  17.181  0.00  0.00    +0.000 S 
ATOM     17  C   UNL     1       8.564   8.462  18.790  0.00  0.00    +0.000 C 
ENDBRANCH  13  16
BRANCH   1  18
ATOM     18  S   UNL     1       2.344   7.440  18.998  0.00  0.00    +0.000 S 
BRANCH  18  19
ATOM     19  C   UNL     1       1.796   8.612  17.720  0.00  0.00    +0.000 C 
BRANCH  19  20
ATOM     20  C   UNL     1       1.952  10.066  18.148  0.00  0.00    +0.000 C 
BRANCH  20  21
ATOM     21  N   UNL     1       0.699  10.584  18.764  0.00  0.00    +0.000 NA
BRANCH  21  23
ATOM     22  C   UNL     1      -1.594  10.882  17.714  0.00  0.00    +0.000 C 
ATOM     23  C   UNL     1      -0.512   9.920  18.212  0.00  0.00    +0.000 C 
ENDBRANCH  21  23
BRANCH  21  24
ATOM     24  C   UNL     1       0.789  10.604  20.244  0.00  0.00    +0.000 C 
ATOM     25  C   UNL     1      -0.193   9.654  20.933  0.00  0.00    +0.000 C 
ENDBRANCH  21  24
ENDBRANCH  20  21
ENDBRANCH  19  20
ENDBRANCH  18  19
ENDBRANCH   1  18
TORSDOF 7
ENDMDL
MODEL 3
REMARK VINA RESULT:      -6.5      0.836      1.331
REMARK  Name = 
REMARK  10 active torsions:
REMARK  status: ('A' for Active; 'I' for Inactive)
REMARK    1  A    between atoms: C_1  and  C_2
REMARK    2  A    between atoms: C_2  and  N_3
REMARK    3  A    between atoms: N_3  and  C_4
REMARK    4  A    between atoms: N_3  and  C_6
REMARK    5  A    between atoms: C_4  and  C_5
REMARK    6  A    between atoms: C_6  and  C_7
REMARK    7  A    between atoms: C_7  and  S_8
REMARK    8  A    between atoms: S_8  and  C_9
REMARK    9  A    between atoms: C_21  and  S_22
REMARK   10  A    between atoms: S_22  and  C_23
REMARK                            x       y       z     vdW  Elec       q    Type
REMARK                         _______ _______ _______ _____ _____    ______ ____
ROOT
ATOM      1  C   UNL     1       2.986   6.095  17.956  0.00  0.00    +0.000 C 
ATOM      2  C   UNL     1       2.092   4.843  17.901  0.00  0.00    +0.000 C 
ATOM      3  C   UNL     1       2.156   3.986  19.127  0.00  0.00    +0.000 A 
ATOM      4  C   UNL     1       1.004   3.789  19.917  0.00  0.00    +0.000 A 
ATOM      5  C   UNL     1       1.078   3.052  21.103  0.00  0.00    +0.000 A 
ATOM      6  C   UNL     1       2.283   2.462  21.482  0.00  0.00    +0.000 A 
ATOM      7  C   UNL     1       3.409   2.610  20.678  0.00  0.00    +0.000 A 
ATOM      8  C   UNL     1       3.364   3.382  19.513  0.00  0.00    +0.000 A 
ATOM      9  O   UNL     1       4.520   3.508  18.826  0.00  0.00    +0.000 OA
ATOM     10  C   UNL     1       5.130   4.632  18.378  0.00  0.00    +0.000 A 
ATOM     11  C   UNL     1       6.528   4.539  18.303  0.00  0.00    +0.000 A 
ATOM     12  C   UNL     1       7.312   5.632  17.950  0.00  0.00    +0.000 A 
ATOM     13  C   UNL     1       6.710   6.852  17.658  0.00  0.00    +0.000 A 
ATOM     14  C   UNL     1       5.315   6.963  17.693  0.00  0.00    +0.000 A 
ATOM     15  C   UNL     1       4.494   5.866  18.043  0.00  0.00    +0.000 A 
ENDROOT
BRANCH  13  16
ATOM     16  S   UNL     1       7.738   8.252  17.183  0.00  0.00    +0.000 S 
ATOM     17  C   UNL     1       8.579   8.428  18.790  0.00  0.00    +0.000 C 
ENDBRANCH  13  16
BRANCH   1  18
ATOM     18  S   UNL     1       2.377   7.441  19.082  0.00  0.00    +0.000 S 
BRANCH  18  19
ATOM     19  C   UNL     1       1.655   8.561  17.845  0.00  0.00    +0.000 C 
BRANCH  19  20
ATOM     20  C   UNL     1       2.010  10.022  18.094  0.00  0.00    +0.000 C 
BRANCH  20  21
ATOM     21  N   UNL     1       0.808  10.810  18.482  0.00  0.00    +0.000 NA
BRANCH  21  23
ATOM     22  C   UNL     1       0.066  10.589  20.901  0.00  0.00    +0.000 C 
ATOM     23  C   UNL     1      -0.046  10.085  19.460  0.00  0.00    +0.000 C 
ENDBRANCH  21  23
BRANCH  21  24
ATOM     24  C   UNL     1       1.168  12.197  18.866  0.00  0.00    +0.000 C 
ATOM     25  C   UNL     1       2.473  12.691  18.240  0.00  0.00    +0.000 C 
ENDBRANCH  21  24
ENDBRANCH  20  21
ENDBRANCH  19  20
ENDBRANCH  18  19
ENDBRANCH   1  18
TORSDOF 7
ENDMDL
MODEL 4
REMARK VINA RESULT:      -6.3      0.783      1.312
REMARK  Name = 
REMARK  10 active torsions:
REMARK  status: ('A' for Active; 'I' for Inactive)
REMARK    1  A    between atoms: C_1  and  C_2
REMARK    2  A    between atoms: C_2  and  N_3
REMARK    3  A    between atoms: N_3  and  C_4
REMARK    4  A    between atoms: N_3  and  C_6
REMARK    5  A    between atoms: C_4  and  C_5
REMARK    6  A    between atoms: C_6  and  C_7
REMARK    7  A    between atoms: C_7  and  S_8
REMARK    8  A    between atoms: S_8  and  C_9
REMARK    9  A    between atoms: C_21  and  S_22
REMARK   10  A    between atoms: S_22  and  C_23
REMARK                            x       y       z     vdW  Elec       q    Type
REMARK                         _______ _______ _______ _____ _____    ______ ____
ROOT
ATOM      1  C   UNL     1       2.880   6.193  18.067  0.00  0.00    +0.000 C 
ATOM      2  C   UNL     1       1.963   4.959  17.984  0.00  0.00    +0.000 C 
ATOM      3  C   UNL     1       2.067   4.034  19.156  0.00  0.00    +0.000 A 
ATOM      4  C   UNL     1       0.949   3.811  19.987  0.00  0.00    +0.000 A 
ATOM      5  C   UNL     1       1.064   3.007  21.125  0.00  0.00    +0.000 A 
ATOM      6  C   UNL     1       2.274   2.379  21.416  0.00  0.00    +0.000 A 
ATOM      7  C   UNL     1       3.365   2.555  20.570  0.00  0.00    +0.000 A 
ATOM      8  C   UNL     1       3.282   3.392  19.452  0.00  0.00    +0.000 A 
ATOM      9  O   UNL     1       4.407   3.539  18.721  0.00  0.00    +0.000 OA
ATOM     10  C   UNL     1       5.016   4.677  18.308  0.00  0.00    +0.000 A 
ATOM     11  C   UNL     1       6.407   4.568  18.165  0.00  0.00    +0.000 A 
ATOM     12  C   UNL     1       7.193   5.667  17.837  0.00  0.00    +0.000 A 
ATOM     13  C   UNL     1       6.600   6.911  17.640  0.00  0.00    +0.000 A 
ATOM     14  C   UNL     1       5.209   7.040  17.745  0.00  0.00    +0.000 A 
ATOM     15  C   UNL     1       4.386   5.937  18.071  0.00  0.00    +0.000 A 
ENDROOT
BRANCH  13  16
ATOM     16  S   UNL     1       7.629   8.320  17.196  0.00  0.00    +0.000 S 
ATOM     17  C   UNL     1       8.584   8.357  18.748  0.00  0.00    +0.000 C 
ENDBRANCH  13  16
BRANCH   1  18
ATOM     18  S   UNL     1       2.346   7.482  19.292  0.00  0.00    +0.000 S 
BRANCH  18  19
ATOM     19  C   UNL     1       1.792   8.777  18.141  0.00  0.00    +0.000 C 
BRANCH  19  20
ATOM     20  C   UNL     1       1.402  10.068  18.850  0.00  0.00    +0.000 C 
BRANCH  20  21
ATOM     21  N   UNL     1       0.230  10.710  18.194  0.00  0.00    +0.000 NA
BRANCH  21  23
ATOM     22  C   UNL     1      -2.220  10.091  17.942  0.00  0.00    +0.000 C 
ATOM     23  C   UNL     1      -0.756   9.709  17.706  0.00  0.00    +0.000 C 
ENDBRANCH  21  23
BRANCH  21  24
ATOM     24  C   UNL     1      -0.336  11.796  19.033  0.00  0.00    +0.000 C 
ATOM     25  C   UNL     1      -0.330  13.166  18.352  0.00  0.00    +0.000 C 
ENDBRANCH  21  24
ENDBRANCH  20  21
ENDBRANCH  19  20
ENDBRANCH  18  19
ENDBRANCH   1  18
TORSDOF 7
ENDMDL
MODEL 5
REMARK VINA RESULT:      -6.2      2.842      6.314
REMARK  Name = 
REMARK  10 active torsions:
REMARK  status: ('A' for Active; 'I' for Inactive)
REMARK    1  A    between atoms: C_1  and  C_2
REMARK    2  A    between atoms: C_2  and  N_3
REMARK    3  A    between atoms: N_3  and  C_4
REMARK    4  A    between atoms: N_3  and  C_6
REMARK    5  A    between atoms: C_4  and  C_5
REMARK    6  A    between atoms: C_6  and  C_7
REMARK    7  A    between atoms: C_7  and  S_8
REMARK    8  A    between atoms: S_8  and  C_9
REMARK    9  A    between atoms: C_21  and  S_22
REMARK   10  A    between atoms: S_22  and  C_23
REMARK                            x       y       z     vdW  Elec       q    Type
REMARK                         _______ _______ _______ _____ _____    ______ ____
ROOT
ATOM      1  C   UNL     1       3.420   6.802  19.018  0.00  0.00    +0.000 C 
ATOM      2  C   UNL     1       3.981   5.500  19.620  0.00  0.00    +0.000 C 
ATOM      3  C   UNL     1       3.027   4.347  19.588  0.00  0.00    +0.000 A 
ATOM      4  C   UNL     1       3.336   3.189  18.844  0.00  0.00    +0.000 A 
ATOM      5  C   UNL     1       2.416   2.141  18.751  0.00  0.00    +0.000 A 
ATOM      6  C   UNL     1       1.206   2.214  19.441  0.00  0.00    +0.000 A 
ATOM      7  C   UNL     1       0.919   3.332  20.219  0.00  0.00    +0.000 A 
ATOM      8  C   UNL     1       1.809   4.410  20.286  0.00  0.00    +0.000 A 
ATOM      9  O   UNL     1       1.421   5.469  21.026  0.00  0.00    +0.000 OA
ATOM     10  C   UNL     1       1.389   6.782  20.689  0.00  0.00    +0.000 A 
ATOM     11  C   UNL     1       0.391   7.521  21.342  0.00  0.00    +0.000 A 
ATOM     12  C   UNL     1       0.165   8.860  21.042  0.00  0.00    +0.000 A 
ATOM     13  C   UNL     1       0.940   9.496  20.077  0.00  0.00    +0.000 A 
ATOM     14  C   UNL     1       1.963   8.790  19.434  0.00  0.00    +0.000 A 
ATOM     15  C   UNL     1       2.219   7.429  19.724  0.00  0.00    +0.000 A 
ENDROOT
BRANCH  13  16
ATOM     16  S   UNL     1       0.647  11.236  19.715  0.00  0.00    +0.000 S 
ATOM     17  C   UNL     1       0.125  11.697  21.398  0.00  0.00    +0.000 C 
ENDBRANCH  13  16
BRANCH   1  18
ATOM     18  S   UNL     1       3.276   6.808  17.167  0.00  0.00    +0.000 S 
BRANCH  18  19
ATOM     19  C   UNL     1       5.038   6.905  16.730  0.00  0.00    +0.000 C 
BRANCH  19  20
ATOM     20  C   UNL     1       5.367   6.164  15.440  0.00  0.00    +0.000 C 
BRANCH  20  21
ATOM     21  N   UNL     1       6.649   5.417  15.559  0.00  0.00    +0.000 NA
BRANCH  21  23
ATOM     22  C   UNL     1       7.652   4.616  17.751  0.00  0.00    +0.000 C 
ATOM     23  C   UNL     1       6.610   4.406  16.649  0.00  0.00    +0.000 C 
ENDBRANCH  21  23
BRANCH  21  24
ATOM     24  C   UNL     1       7.107   4.908  14.243  0.00  0.00    +0.000 C 
ATOM     25  C   UNL     1       6.174   3.865  13.627  0.00  0.00    +0.000 C 
ENDBRANCH  21  24
ENDBRANCH  20  21
ENDBRANCH  19  20
ENDBRANCH  18  19
ENDBRANCH   1  18
TORSDOF 7
ENDMDL
MODEL 6
REMARK VINA RESULT:      -6.2      2.659      6.121
REMARK  Name = 
REMARK  10 active torsions:
REMARK  status: ('A' for Active; 'I' for Inactive)
REMARK    1  A    between atoms: C_1  and  C_2
REMARK    2  A    between atoms: C_2  and  N_3
REMARK    3  A    between atoms: N_3  and  C_4
REMARK    4  A    between atoms: N_3  and  C_6
REMARK    5  A    between atoms: C_4  and  C_5
REMARK    6  A    between atoms: C_6  and  C_7
REMARK    7  A    between atoms: C_7  and  S_8
REMARK    8  A    between atoms: S_8  and  C_9
REMARK    9  A    between atoms: C_21  and  S_22
REMARK   10  A    between atoms: S_22  and  C_23
REMARK                            x       y       z     vdW  Elec       q    Type
REMARK                         _______ _______ _______ _____ _____    ______ ____
ROOT
ATOM      1  C   UNL     1       3.738   6.443  18.802  0.00  0.00    +0.000 C 
ATOM      2  C   UNL     1       4.229   5.247  19.638  0.00  0.00    +0.000 C 
ATOM      3  C   UNL     1       3.210   4.165  19.822  0.00  0.00    +0.000 A 
ATOM      4  C   UNL     1       3.445   2.873  19.308  0.00  0.00    +0.000 A 
ATOM      5  C   UNL     1       2.464   1.882  19.412  0.00  0.00    +0.000 A 
ATOM      6  C   UNL     1       1.267   2.153  20.073  0.00  0.00    +0.000 A 
ATOM      7  C   UNL     1       1.053   3.412  20.627  0.00  0.00    +0.000 A 
ATOM      8  C   UNL     1       2.004   4.429  20.493  0.00  0.00    +0.000 A 
ATOM      9  O   UNL     1       1.684   5.630  21.021  0.00  0.00    +0.000 OA
ATOM     10  C   UNL     1       1.725   6.855  20.444  0.00  0.00    +0.000 A 
ATOM     11  C   UNL     1       0.778   7.761  20.945  0.00  0.00    +0.000 A 
ATOM     12  C   UNL     1       0.627   9.031  20.399  0.00  0.00    +0.000 A 
ATOM     13  C   UNL     1       1.428   9.429  19.333  0.00  0.00    +0.000 A 
ATOM     14  C   UNL     1       2.403   8.556  18.835  0.00  0.00    +0.000 A 
ATOM     15  C   UNL     1       2.583   7.261  19.376  0.00  0.00    +0.000 A 
ENDROOT
BRANCH  13  16
ATOM     16  S   UNL     1       1.233  11.084  18.651  0.00  0.00    +0.000 S 
ATOM     17  C   UNL     1       1.040  11.931  20.252  0.00  0.00    +0.000 C 
ENDBRANCH  13  16
BRANCH   1  18
ATOM     18  S   UNL     1       3.578   6.111  16.982  0.00  0.00    +0.000 S 
BRANCH  18  19
ATOM     19  C   UNL     1       4.989   7.084  16.375  0.00  0.00    +0.000 C 
BRANCH  19  20
ATOM     20  C   UNL     1       6.306   6.682  17.027  0.00  0.00    +0.000 C 
BRANCH  20  21
ATOM     21  N   UNL     1       6.604   5.242  16.796  0.00  0.00    +0.000 NA
BRANCH  21  23
ATOM     22  C   UNL     1       6.098   3.927  14.683  0.00  0.00    +0.000 C 
ATOM     23  C   UNL     1       6.977   4.967  15.383  0.00  0.00    +0.000 C 
ENDBRANCH  21  23
BRANCH  21  24
ATOM     24  C   UNL     1       7.547   4.711  17.812  0.00  0.00    +0.000 C 
ATOM     25  C   UNL     1       7.836   5.687  18.953  0.00  0.00    +0.000 C 
ENDBRANCH  21  24
ENDBRANCH  20  21
ENDBRANCH  19  20
ENDBRANCH  18  19
ENDBRANCH   1  18
TORSDOF 7
ENDMDL
MODEL 7
REMARK VINA RESULT:      -6.1      0.924      1.447
REMARK  Name = 
REMARK  10 active torsions:
REMARK  status: ('A' for Active; 'I' for Inactive)
REMARK    1  A    between atoms: C_1  and  C_2
REMARK    2  A    between atoms: C_2  and  N_3
REMARK    3  A    between atoms: N_3  and  C_4
REMARK    4  A    between atoms: N_3  and  C_6
REMARK    5  A    between atoms: C_4  and  C_5
REMARK    6  A    between atoms: C_6  and  C_7
REMARK    7  A    between atoms: C_7  and  S_8
REMARK    8  A    between atoms: S_8  and  C_9
REMARK    9  A    between atoms: C_21  and  S_22
REMARK   10  A    between atoms: S_22  and  C_23
REMARK                            x       y       z     vdW  Elec       q    Type
REMARK                         _______ _______ _______ _____ _____    ______ ____
ROOT
ATOM      1  C   UNL     1       2.888   6.223  18.189  0.00  0.00    +0.000 C 
ATOM      2  C   UNL     1       1.949   5.008  18.087  0.00  0.00    +0.000 C 
ATOM      3  C   UNL     1       2.081   4.030  19.213  0.00  0.00    +0.000 A 
ATOM      4  C   UNL     1       0.991   3.787  20.075  0.00  0.00    +0.000 A 
ATOM      5  C   UNL     1       1.135   2.933  21.172  0.00  0.00    +0.000 A 
ATOM      6  C   UNL     1       2.344   2.274  21.389  0.00  0.00    +0.000 A 
ATOM      7  C   UNL     1       3.406   2.471  20.511  0.00  0.00    +0.000 A 
ATOM      8  C   UNL     1       3.295   3.358  19.434  0.00  0.00    +0.000 A 
ATOM      9  O   UNL     1       4.394   3.520  18.668  0.00  0.00    +0.000 OA
ATOM     10  C   UNL     1       5.006   4.666  18.282  0.00  0.00    +0.000 A 
ATOM     11  C   UNL     1       6.389   4.543  18.081  0.00  0.00    +0.000 A 
ATOM     12  C   UNL     1       7.180   5.644  17.772  0.00  0.00    +0.000 A 
ATOM     13  C   UNL     1       6.601   6.903  17.652  0.00  0.00    +0.000 A 
ATOM     14  C   UNL     1       5.217   7.049  17.816  0.00  0.00    +0.000 A 
ATOM     15  C   UNL     1       4.389   5.944  18.125  0.00  0.00    +0.000 A 
ENDROOT
BRANCH  13  16
ATOM     16  S   UNL     1       7.636   8.315  17.232  0.00  0.00    +0.000 S 
ATOM     17  C   UNL     1       8.608   8.307  18.773  0.00  0.00    +0.000 C 
ENDBRANCH  13  16
BRANCH   1  18
ATOM     18  S   UNL     1       2.421   7.465  19.488  0.00  0.00    +0.000 S 
BRANCH  18  19
ATOM     19  C   UNL     1       1.728   8.766  18.423  0.00  0.00    +0.000 C 
BRANCH  19  20
ATOM     20  C   UNL     1       0.675   9.609  19.133  0.00  0.00    +0.000 C 
BRANCH  20  21
ATOM     21  N   UNL     1       0.972  11.062  19.004  0.00  0.00    +0.000 NA
BRANCH  21  23
ATOM     22  C   UNL     1       2.668  12.734  18.121  0.00  0.00    +0.000 C 
ATOM     23  C   UNL     1       2.075  11.325  18.041  0.00  0.00    +0.000 C 
ENDBRANCH  21  23
BRANCH  21  24
ATOM     24  C   UNL     1      -0.264  11.851  18.778  0.00  0.00    +0.000 C 
ATOM     25  C   UNL     1      -1.334  11.106  17.978  0.00  0.00    +0.000 C 
ENDBRANCH  21  24
ENDBRANCH  20  21
ENDBRANCH  19  20
ENDBRANCH  18  19
ENDBRANCH   1  18
TORSDOF 7
ENDMDL
MODEL 8
REMARK VINA RESULT:      -6.1      1.369      1.935
REMARK  Name = 
REMARK  10 active torsions:
REMARK  status: ('A' for Active; 'I' for Inactive)
REMARK    1  A    between atoms: C_1  and  C_2
REMARK    2  A    between atoms: C_2  and  N_3
REMARK    3  A    between atoms: N_3  and  C_4
REMARK    4  A    between atoms: N_3  and  C_6
REMARK    5  A    between atoms: C_4  and  C_5
REMARK    6  A    between atoms: C_6  and  C_7
REMARK    7  A    between atoms: C_7  and  S_8
REMARK    8  A    between atoms: S_8  and  C_9
REMARK    9  A    between atoms: C_21  and  S_22
REMARK   10  A    between atoms: S_22  and  C_23
REMARK                            x       y       z     vdW  Elec       q    Type
REMARK                         _______ _______ _______ _____ _____    ______ ____
ROOT
ATOM      1  C   UNL     1       3.356   5.418  17.476  0.00  0.00    +0.000 C 
ATOM      2  C   UNL     1       2.702   4.029  17.584  0.00  0.00    +0.000 C 
ATOM      3  C   UNL     1       2.482   3.558  18.988  0.00  0.00    +0.000 A 
ATOM      4  C   UNL     1       1.175   3.324  19.463  0.00  0.00    +0.000 A 
ATOM      5  C   UNL     1       0.961   2.957  20.795  0.00  0.00    +0.000 A 
ATOM      6  C   UNL     1       2.048   2.770  21.648  0.00  0.00    +0.000 A 
ATOM      7  C   UNL     1       3.343   2.949  21.169  0.00  0.00    +0.000 A 
ATOM      8  C   UNL     1       3.572   3.360  19.852  0.00  0.00    +0.000 A 
ATOM      9  O   UNL     1       4.859   3.555  19.495  0.00  0.00    +0.000 OA
ATOM     10  C   UNL     1       5.426   4.630  18.894  0.00  0.00    +0.000 A 
ATOM     11  C   UNL     1       6.774   4.833  19.228  0.00  0.00    +0.000 A 
ATOM     12  C   UNL     1       7.476   5.942  18.770  0.00  0.00    +0.000 A 
ATOM     13  C   UNL     1       6.844   6.879  17.958  0.00  0.00    +0.000 A 
ATOM     14  C   UNL     1       5.509   6.682  17.583  0.00  0.00    +0.000 A 
ATOM     15  C   UNL     1       4.773   5.560  18.029  0.00  0.00    +0.000 A 
ENDROOT
BRANCH  13  16
ATOM     16  S   UNL     1       7.775   8.298  17.357  0.00  0.00    +0.000 S 
ATOM     17  C   UNL     1       8.677   8.608  18.909  0.00  0.00    +0.000 C 
ENDBRANCH  13  16
BRANCH   1  18
ATOM     18  S   UNL     1       2.246   6.841  17.914  0.00  0.00    +0.000 S 
BRANCH  18  19
ATOM     19  C   UNL     1       2.672   7.024  19.672  0.00  0.00    +0.000 C 
BRANCH  19  20
ATOM     20  C   UNL     1       1.445   7.119  20.569  0.00  0.00    +0.000 C 
BRANCH  20  21
ATOM     21  N   UNL     1       1.093   8.537  20.855  0.00  0.00    +0.000 NA
BRANCH  21  23
ATOM     22  C   UNL     1       0.997  10.877  19.872  0.00  0.00    +0.000 C 
ATOM     23  C   UNL     1       1.077   9.369  19.621  0.00  0.00    +0.000 C 
ENDBRANCH  21  23
BRANCH  21  24
ATOM     24  C   UNL     1      -0.122   8.638  21.700  0.00  0.00    +0.000 C 
ATOM     25  C   UNL     1       0.107   9.370  23.023  0.00  0.00    +0.000 C 
ENDBRANCH  21  24
ENDBRANCH  20  21
ENDBRANCH  19  20
ENDBRANCH  18  19
ENDBRANCH   1  18
TORSDOF 7
ENDMDL
MODEL 9
REMARK VINA RESULT:      -6.1      1.201      1.570
REMARK  Name = 
REMARK  10 active torsions:
REMARK  status: ('A' for Active; 'I' for Inactive)
REMARK    1  A    between atoms: C_1  and  C_2
REMARK    2  A    between atoms: C_2  and  N_3
REMARK    3  A    between atoms: N_3  and  C_4
REMARK    4  A    between atoms: N_3  and  C_6
REMARK    5  A    between atoms: C_4  and  C_5
REMARK    6  A    between atoms: C_6  and  C_7
REMARK    7  A    between atoms: C_7  and  S_8
REMARK    8  A    between atoms: S_8  and  C_9
REMARK    9  A    between atoms: C_21  and  S_22
REMARK   10  A    between atoms: S_22  and  C_23
REMARK                            x       y       z     vdW  Elec       q    Type
REMARK                         _______ _______ _______ _____ _____    ______ ____
ROOT
ATOM      1  C   UNL     1       3.341   5.341  17.421  0.00  0.00    +0.000 C 
ATOM      2  C   UNL     1       2.682   3.955  17.547  0.00  0.00    +0.000 C 
ATOM      3  C   UNL     1       2.444   3.512  18.957  0.00  0.00    +0.000 A 
ATOM      4  C   UNL     1       1.130   3.289  19.420  0.00  0.00    +0.000 A 
ATOM      5  C   UNL     1       0.900   2.948  20.756  0.00  0.00    +0.000 A 
ATOM      6  C   UNL     1       1.975   2.775  21.626  0.00  0.00    +0.000 A 
ATOM      7  C   UNL     1       3.276   2.942  21.160  0.00  0.00    +0.000 A 
ATOM      8  C   UNL     1       3.523   3.328  19.838  0.00  0.00    +0.000 A 
ATOM      9  O   UNL     1       4.815   3.513  19.493  0.00  0.00    +0.000 OA
ATOM     10  C   UNL     1       5.392   4.575  18.879  0.00  0.00    +0.000 A 
ATOM     11  C   UNL     1       6.735   4.782  19.226  0.00  0.00    +0.000 A 
ATOM     12  C   UNL     1       7.446   5.881  18.756  0.00  0.00    +0.000 A 
ATOM     13  C   UNL     1       6.826   6.803  17.918  0.00  0.00    +0.000 A 
ATOM     14  C   UNL     1       5.496   6.602  17.530  0.00  0.00    +0.000 A 
ATOM     15  C   UNL     1       4.751   5.490  17.989  0.00  0.00    +0.000 A 
ENDROOT
BRANCH  13  16
ATOM     16  S   UNL     1       7.767   8.209  17.302  0.00  0.00    +0.000 S 
ATOM     17  C   UNL     1       8.671   8.529  18.851  0.00  0.00    +0.000 C 
ENDBRANCH  13  16
BRANCH   1  18
ATOM     18  S   UNL     1       2.228   6.774  17.818  0.00  0.00    +0.000 S 
BRANCH  18  19
ATOM     19  C   UNL     1       2.722   7.068  19.543  0.00  0.00    +0.000 C 
BRANCH  19  20
ATOM     20  C   UNL     1       1.546   7.010  20.510  0.00  0.00    +0.000 C 
BRANCH  20  21
ATOM     21  N   UNL     1       0.978   8.366  20.750  0.00  0.00    +0.000 NA
BRANCH  21  23
ATOM     22  C   UNL     1       0.107   9.551  22.820  0.00  0.00    +0.000 C 
ATOM     23  C   UNL     1       1.282   8.866  22.118  0.00  0.00    +0.000 C 
ENDBRANCH  21  23
BRANCH  21  24
ATOM     24  C   UNL     1       1.315   9.300  19.648  0.00  0.00    +0.000 C 
ATOM     25  C   UNL     1       0.100  10.015  19.054  0.00  0.00    +0.000 C 
ENDBRANCH  21  24
ENDBRANCH  20  21
ENDBRANCH  19  20
ENDBRANCH  18  19
ENDBRANCH   1  18
TORSDOF 7
ENDMDL
