MODEL 1
REMARK VINA RESULT:      -6.3      0.000      0.000
REMARK  Name = 
REMARK  6 active torsions:
REMARK  status: ('A' for Active; 'I' for Inactive)
REMARK    1  A    between atoms: C_1  and  C_2
REMARK    2  A    between atoms: C_2  and  C_3
REMARK    3  A    between atoms: C_2  and  C_4
REMARK    4  A    between atoms: C_4  and  N_5
REMARK    5  A    between atoms: N_8  and  C_9
REMARK    6  A    between atoms: C_11  and  C_12
REMARK                            x       y       z     vdW  Elec       q    Type
REMARK                         _______ _______ _______ _____ _____    ______ ____
ROOT
ATOM      1  C   UNL     1      -0.706  13.867  20.288  0.00  0.00    +0.000 A 
ATOM      2  N   UNL     1      -0.067  14.725  19.443  0.00  0.00    +0.000 NA
ATOM      3  C   UNL     1      -0.422  16.014  19.352  0.00  0.00    +0.000 A 
ATOM      4  N   UNL     1      -1.366  16.604  20.085  0.00  0.00    +0.000 NA
ATOM      5  C   UNL     1      -1.949  15.782  20.966  0.00  0.00    +0.000 A 
ATOM      6  S   UNL     1      -3.152  16.411  22.000  0.00  0.00    +0.000 S 
ATOM      7  C   UNL     1      -3.353  14.928  22.786  0.00  0.00    +0.000 A 
ATOM      8  C   UNL     1      -2.560  13.925  22.249  0.00  0.00    +0.000 A 
ATOM      9  C   UNL     1      -1.709  14.417  21.155  0.00  0.00    +0.000 A 
ATOM     10  C   UNL     1      -2.605  12.551  22.859  0.00  0.00    +0.000 C 
ATOM     11  C   UNL     1      -3.680  12.333  23.922  0.00  0.00    +0.000 C 
ATOM     12  C   UNL     1      -3.903  13.559  24.791  0.00  0.00    +0.000 C 
ATOM     13  C   UNL     1      -4.307  14.761  23.927  0.00  0.00    +0.000 C 
ENDROOT
BRANCH   1  17
ATOM     14  N   UNL     1       0.369   9.691  19.864  0.00  0.00    +0.000 NA
ATOM     15  C   UNL     1       0.718  10.504  21.046  0.00  0.00    +0.000 C 
ATOM     16  C   UNL     1       0.848  11.997  20.735  0.00  0.00    +0.000 C 
ATOM     17  N   UNL     1      -0.351  12.540  20.132  0.00  0.00    +0.000 N 
ATOM     18  C   UNL     1      -0.905  11.783  19.004  0.00  0.00    +0.000 C 
ATOM     19  C   UNL     1      -0.892  10.253  19.303  0.00  0.00    +0.000 C 
BRANCH  14  20
ATOM     20  C   UNL     1       1.428   9.624  18.837  0.00  0.00    +0.000 C 
BRANCH  20  22
ATOM     21  C   UNL     1       3.140   8.240  17.536  0.00  0.00    +0.000 C 
ATOM     22  C   UNL     1       1.903   8.204  18.437  0.00  0.00    +0.000 C 
ATOM     23  C   UNL     1       2.209   7.378  19.692  0.00  0.00    +0.000 C 
ENDBRANCH  20  22
ENDBRANCH  14  20
ENDBRANCH   1  17
BRANCH   3  24
ATOM     24  C   UNL     1       0.268  16.839  18.331  0.00  0.00    +0.000 A 
ATOM     25  C   UNL     1       1.650  16.732  18.115  0.00  0.00    +0.000 A 
ATOM     26  C   UNL     1       2.260  17.512  17.143  0.00  0.00    +0.000 A 
ATOM     27  N   UNL     1       1.600  18.389  16.364  0.00  0.00    +0.000 NA
ATOM     28  C   UNL     1       0.270  18.484  16.566  0.00  0.00    +0.000 A 
ATOM     29  C   UNL     1      -0.426  17.746  17.513  0.00  0.00    +0.000 A 
ENDBRANCH   3  24
TORSDOF 4
ENDMDL
MODEL 2
REMARK VINA RESULT:      -6.2      3.839      7.329
REMARK  Name = 
REMARK  6 active torsions:
REMARK  status: ('A' for Active; 'I' for Inactive)
REMARK    1  A    between atoms: C_1  and  C_2
REMARK    2  A    between atoms: C_2  and  C_3
REMARK    3  A    between atoms: C_2  and  C_4
REMARK    4  A    between atoms: C_4  and  N_5
REMARK    5  A    between atoms: N_8  and  C_9
REMARK    6  A    between atoms: C_11  and  C_12
REMARK                            x       y       z     vdW  Elec       q    Type
REMARK                         _______ _______ _______ _____ _____    ______ ____
ROOT
ATOM      1  C   UNL     1      -3.114  12.527  20.460  0.00  0.00    +0.000 A 
ATOM      2  N   UNL     1      -1.950  11.840  20.281  0.00  0.00    +0.000 NA
ATOM      3  C   UNL     1      -1.775  11.016  19.238  0.00  0.00    +0.000 A 
ATOM      4  N   UNL     1      -2.658  10.819  18.259  0.00  0.00    +0.000 NA
ATOM      5  C   UNL     1      -3.775  11.545  18.393  0.00  0.00    +0.000 A 
ATOM      6  S   UNL     1      -4.980  11.422  17.191  0.00  0.00    +0.000 S 
ATOM      7  C   UNL     1      -5.961  12.566  17.957  0.00  0.00    +0.000 A 
ATOM      8  C   UNL     1      -5.424  13.017  19.154  0.00  0.00    +0.000 A 
ATOM      9  C   UNL     1      -4.111  12.417  19.434  0.00  0.00    +0.000 A 
ATOM     10  C   UNL     1      -6.168  14.061  19.941  0.00  0.00    +0.000 C 
ATOM     11  C   UNL     1      -7.567  14.403  19.433  0.00  0.00    +0.000 C 
ATOM     12  C   UNL     1      -7.660  14.384  17.917  0.00  0.00    +0.000 C 
ATOM     13  C   UNL     1      -7.268  13.004  17.373  0.00  0.00    +0.000 C 
ENDROOT
BRANCH   1  17
ATOM     14  N   UNL     1      -3.488  14.595  24.249  0.00  0.00    +0.000 NA
ATOM     15  C   UNL     1      -3.891  15.186  22.957  0.00  0.00    +0.000 C 
ATOM     16  C   UNL     1      -3.110  14.625  21.766  0.00  0.00    +0.000 C 
ATOM     17  N   UNL     1      -3.209  13.184  21.672  0.00  0.00    +0.000 N 
ATOM     18  C   UNL     1      -2.949  12.438  22.909  0.00  0.00    +0.000 C 
ATOM     19  C   UNL     1      -3.648  13.119  24.124  0.00  0.00    +0.000 C 
BRANCH  14  20
ATOM     20  C   UNL     1      -2.120  14.950  24.679  0.00  0.00    +0.000 C 
BRANCH  20  22
ATOM     21  C   UNL     1      -0.656  15.926  26.534  0.00  0.00    +0.000 C 
ATOM     22  C   UNL     1      -2.012  15.984  25.829  0.00  0.00    +0.000 C 
ATOM     23  C   UNL     1      -2.246  17.400  25.287  0.00  0.00    +0.000 C 
ENDBRANCH  20  22
ENDBRANCH  14  20
ENDBRANCH   1  17
BRANCH   3  24
ATOM     24  C   UNL     1      -0.513  10.240  19.189  0.00  0.00    +0.000 A 
ATOM     25  C   UNL     1       0.044   9.673  20.346  0.00  0.00    +0.000 A 
ATOM     26  C   UNL     1       1.220   8.943  20.261  0.00  0.00    +0.000 A 
ATOM     27  N   UNL     1       1.887   8.730  19.111  0.00  0.00    +0.000 NA
ATOM     28  C   UNL     1       1.346   9.267  17.998  0.00  0.00    +0.000 A 
ATOM     29  C   UNL     1       0.174  10.011  17.986  0.00  0.00    +0.000 A 
ENDBRANCH   3  24
TORSDOF 4
ENDMDL
MODEL 3
REMARK VINA RESULT:      -6.2      2.409      6.396
REMARK  Name = 
REMARK  6 active torsions:
REMARK  status: ('A' for Active; 'I' for Inactive)
REMARK    1  A    between atoms: C_1  and  C_2
REMARK    2  A    between atoms: C_2  and  C_3
REMARK    3  A    between atoms: C_2  and  C_4
REMARK    4  A    between atoms: C_4  and  N_5
REMARK    5  A    between atoms: N_8  and  C_9
REMARK    6  A    between atoms: C_11  and  C_12
REMARK                            x       y       z     vdW  Elec       q    Type
REMARK                         _______ _______ _______ _____ _____    ______ ____
ROOT
ATOM      1  C   UNL     1      -0.679  14.286  21.226  0.00  0.00    +0.000 A 
ATOM      2  N   UNL     1      -0.513  15.297  20.325  0.00  0.00    +0.000 NA
ATOM      3  C   UNL     1       0.247  15.145  19.232  0.00  0.00    +0.000 A 
ATOM      4  N   UNL     1       0.862  14.017  18.875  0.00  0.00    +0.000 NA
ATOM      5  C   UNL     1       0.645  13.001  19.719  0.00  0.00    +0.000 A 
ATOM      6  S   UNL     1       1.341  11.483  19.368  0.00  0.00    +0.000 S 
ATOM      7  C   UNL     1       0.639  10.766  20.728  0.00  0.00    +0.000 A 
ATOM      8  C   UNL     1      -0.084  11.667  21.496  0.00  0.00    +0.000 A 
ATOM      9  C   UNL     1      -0.093  13.015  20.908  0.00  0.00    +0.000 A 
ATOM     10  C   UNL     1      -0.792  11.175  22.728  0.00  0.00    +0.000 C 
ATOM     11  C   UNL     1      -0.496   9.732  23.132  0.00  0.00    +0.000 C 
ATOM     12  C   UNL     1      -0.321   8.813  21.935  0.00  0.00    +0.000 C 
ATOM     13  C   UNL     1       0.818   9.312  21.037  0.00  0.00    +0.000 C 
ENDROOT
BRANCH   1  17
ATOM     14  N   UNL     1      -2.730  15.368  24.885  0.00  0.00    +0.000 NA
ATOM     15  C   UNL     1      -3.258  14.385  23.918  0.00  0.00    +0.000 C 
ATOM     16  C   UNL     1      -2.778  14.629  22.485  0.00  0.00    +0.000 C 
ATOM     17  N   UNL     1      -1.334  14.654  22.385  0.00  0.00    +0.000 N 
ATOM     18  C   UNL     1      -0.635  15.502  23.358  0.00  0.00    +0.000 C 
ATOM     19  C   UNL     1      -1.244  15.329  24.783  0.00  0.00    +0.000 C 
BRANCH  14  20
ATOM     20  C   UNL     1      -3.243  16.740  24.698  0.00  0.00    +0.000 C 
BRANCH  20  22
ATOM     21  C   UNL     1      -5.169  18.116  25.666  0.00  0.00    +0.000 C 
ATOM     22  C   UNL     1      -4.780  16.915  24.801  0.00  0.00    +0.000 C 
ATOM     23  C   UNL     1      -5.386  17.076  23.401  0.00  0.00    +0.000 C 
ENDBRANCH  20  22
ENDBRANCH  14  20
ENDBRANCH   1  17
BRANCH   3  24
ATOM     24  C   UNL     1       0.444  16.335  18.370  0.00  0.00    +0.000 A 
ATOM     25  C   UNL     1      -0.630  17.161  18.006  0.00  0.00    +0.000 A 
ATOM     26  C   UNL     1      -0.406  18.273  17.208  0.00  0.00    +0.000 A 
ATOM     27  N   UNL     1       0.807  18.631  16.745  0.00  0.00    +0.000 NA
ATOM     28  C   UNL     1       1.840  17.842  17.103  0.00  0.00    +0.000 A 
ATOM     29  C   UNL     1       1.712  16.710  17.898  0.00  0.00    +0.000 A 
ENDBRANCH   3  24
TORSDOF 4
ENDMDL
MODEL 4
REMARK VINA RESULT:      -6.2      7.722     11.542
REMARK  Name = 
REMARK  6 active torsions:
REMARK  status: ('A' for Active; 'I' for Inactive)
REMARK    1  A    between atoms: C_1  and  C_2
REMARK    2  A    between atoms: C_2  and  C_3
REMARK    3  A    between atoms: C_2  and  C_4
REMARK    4  A    between atoms: C_4  and  N_5
REMARK    5  A    between atoms: N_8  and  C_9
REMARK    6  A    between atoms: C_11  and  C_12
REMARK                            x       y       z     vdW  Elec       q    Type
REMARK                         _______ _______ _______ _____ _____    ______ ____
ROOT
ATOM      1  C   UNL     1       7.962  14.349  20.842  0.00  0.00    +0.000 A 
ATOM      2  N   UNL     1       7.521  13.885  22.046  0.00  0.00    +0.000 NA
ATOM      3  C   UNL     1       8.145  12.884  22.683  0.00  0.00    +0.000 A 
ATOM      4  N   UNL     1       9.257  12.281  22.263  0.00  0.00    +0.000 NA
ATOM      5  C   UNL     1       9.734  12.781  21.116  0.00  0.00    +0.000 A 
ATOM      6  S   UNL     1      11.177  12.132  20.478  0.00  0.00    +0.000 S 
ATOM      7  C   UNL     1      11.170  13.208  19.175  0.00  0.00    +0.000 A 
ATOM      8  C   UNL     1      10.057  14.036  19.170  0.00  0.00    +0.000 A 
ATOM      9  C   UNL     1       9.181  13.795  20.327  0.00  0.00    +0.000 A 
ATOM     10  C   UNL     1       9.920  15.070  18.086  0.00  0.00    +0.000 C 
ATOM     11  C   UNL     1      10.949  14.993  16.961  0.00  0.00    +0.000 C 
ATOM     12  C   UNL     1      12.327  14.586  17.455  0.00  0.00    +0.000 C 
ATOM     13  C   UNL     1      12.265  13.221  18.154  0.00  0.00    +0.000 C 
ENDROOT
BRANCH   1  17
ATOM     14  N   UNL     1       5.354  17.218  18.909  0.00  0.00    +0.000 NA
ATOM     15  C   UNL     1       6.203  17.546  20.072  0.00  0.00    +0.000 C 
ATOM     16  C   UNL     1       6.499  16.337  20.963  0.00  0.00    +0.000 C 
ATOM     17  N   UNL     1       7.111  15.249  20.230  0.00  0.00    +0.000 N 
ATOM     18  C   UNL     1       6.453  14.867  18.976  0.00  0.00    +0.000 C 
ATOM     19  C   UNL     1       6.041  16.129  18.158  0.00  0.00    +0.000 C 
BRANCH  14  20
ATOM     20  C   UNL     1       3.970  16.838  19.254  0.00  0.00    +0.000 C 
BRANCH  20  22
ATOM     21  C   UNL     1       2.006  15.299  18.698  0.00  0.00    +0.000 C 
ATOM     22  C   UNL     1       3.153  16.140  18.137  0.00  0.00    +0.000 C 
ATOM     23  C   UNL     1       2.592  17.185  17.163  0.00  0.00    +0.000 C 
ENDBRANCH  20  22
ENDBRANCH  14  20
ENDBRANCH   1  17
BRANCH   3  24
ATOM     24  C   UNL     1       7.527  12.386  23.936  0.00  0.00    +0.000 A 
ATOM     25  C   UNL     1       6.344  11.632  23.921  0.00  0.00    +0.000 A 
ATOM     26  C   UNL     1       5.801  11.174  25.112  0.00  0.00    +0.000 A 
ATOM     27  N   UNL     1       6.347  11.405  26.321  0.00  0.00    +0.000 NA
ATOM     28  C   UNL     1       7.489  12.121  26.335  0.00  0.00    +0.000 A 
ATOM     29  C   UNL     1       8.105  12.621  25.194  0.00  0.00    +0.000 A 
ENDBRANCH   3  24
TORSDOF 4
ENDMDL
MODEL 5
REMARK VINA RESULT:      -6.1      7.591     10.089
REMARK  Name = 
REMARK  6 active torsions:
REMARK  status: ('A' for Active; 'I' for Inactive)
REMARK    1  A    between atoms: C_1  and  C_2
REMARK    2  A    between atoms: C_2  and  C_3
REMARK    3  A    between atoms: C_2  and  C_4
REMARK    4  A    between atoms: C_4  and  N_5
REMARK    5  A    between atoms: N_8  and  C_9
REMARK    6  A    between atoms: C_11  and  C_12
REMARK                            x       y       z     vdW  Elec       q    Type
REMARK                         _______ _______ _______ _____ _____    ______ ____
ROOT
ATOM      1  C   UNL     1       7.446  14.051  21.273  0.00  0.00    +0.000 A 
ATOM      2  N   UNL     1       6.301  14.766  21.080  0.00  0.00    +0.000 NA
ATOM      3  C   UNL     1       6.097  15.476  19.962  0.00  0.00    +0.000 A 
ATOM      4  N   UNL     1       6.927  15.523  18.920  0.00  0.00    +0.000 NA
ATOM      5  C   UNL     1       8.020  14.766  19.075  0.00  0.00    +0.000 A 
ATOM      6  S   UNL     1       9.155  14.699  17.802  0.00  0.00    +0.000 S 
ATOM      7  C   UNL     1      10.135  13.604  18.638  0.00  0.00    +0.000 A 
ATOM      8  C   UNL     1       9.653  13.313  19.905  0.00  0.00    +0.000 A 
ATOM      9  C   UNL     1       8.384  14.001  20.188  0.00  0.00    +0.000 A 
ATOM     10  C   UNL     1      10.401  12.330  20.764  0.00  0.00    +0.000 C 
ATOM     11  C   UNL     1      11.752  11.870  20.223  0.00  0.00    +0.000 C 
ATOM     12  C   UNL     1      11.756  11.716  18.711  0.00  0.00    +0.000 C 
ATOM     13  C   UNL     1      11.386  13.044  18.037  0.00  0.00    +0.000 C 
ENDROOT
BRANCH   1  17
ATOM     14  N   UNL     1       7.959  12.390  25.241  0.00  0.00    +0.000 NA
ATOM     15  C   UNL     1       8.078  11.592  24.004  0.00  0.00    +0.000 C 
ATOM     16  C   UNL     1       7.254  12.151  22.842  0.00  0.00    +0.000 C 
ATOM     17  N   UNL     1       7.587  13.528  22.544  0.00  0.00    +0.000 N 
ATOM     18  C   UNL     1       7.627  14.444  23.690  0.00  0.00    +0.000 C 
ATOM     19  C   UNL     1       8.354  13.785  24.901  0.00  0.00    +0.000 C 
BRANCH  14  20
ATOM     20  C   UNL     1       6.621  12.349  25.864  0.00  0.00    +0.000 C 
BRANCH  20  22
ATOM     21  C   UNL     1       6.862  11.150  28.110  0.00  0.00    +0.000 C 
ATOM     22  C   UNL     1       6.291  11.081  26.692  0.00  0.00    +0.000 C 
ATOM     23  C   UNL     1       4.772  10.879  26.762  0.00  0.00    +0.000 C 
ENDBRANCH  20  22
ENDBRANCH  14  20
ENDBRANCH   1  17
BRANCH   3  24
ATOM     24  C   UNL     1       4.865  16.299  19.895  0.00  0.00    +0.000 A 
ATOM     25  C   UNL     1       3.986  16.215  18.805  0.00  0.00    +0.000 A 
ATOM     26  C   UNL     1       2.838  16.992  18.782  0.00  0.00    +0.000 A 
ATOM     27  N   UNL     1       2.493  17.848  19.762  0.00  0.00    +0.000 NA
ATOM     28  C   UNL     1       3.334  17.922  20.814  0.00  0.00    +0.000 A 
ATOM     29  C   UNL     1       4.504  17.183  20.925  0.00  0.00    +0.000 A 
ENDBRANCH   3  24
TORSDOF 4
ENDMDL
MODEL 6
REMARK VINA RESULT:      -6.0      2.326      7.179
REMARK  Name = 
REMARK  6 active torsions:
REMARK  status: ('A' for Active; 'I' for Inactive)
REMARK    1  A    between atoms: C_1  and  C_2
REMARK    2  A    between atoms: C_2  and  C_3
REMARK    3  A    between atoms: C_2  and  C_4
REMARK    4  A    between atoms: C_4  and  N_5
REMARK    5  A    between atoms: N_8  and  C_9
REMARK    6  A    between atoms: C_11  and  C_12
REMARK                            x       y       z     vdW  Elec       q    Type
REMARK                         _______ _______ _______ _____ _____    ______ ____
ROOT
ATOM      1  C   UNL     1      -0.788  13.181  19.836  0.00  0.00    +0.000 A 
ATOM      2  N   UNL     1      -0.290  11.912  19.849  0.00  0.00    +0.000 NA
ATOM      3  C   UNL     1       0.904  11.622  19.314  0.00  0.00    +0.000 A 
ATOM      4  N   UNL     1       1.741  12.510  18.777  0.00  0.00    +0.000 NA
ATOM      5  C   UNL     1       1.286  13.768  18.825  0.00  0.00    +0.000 A 
ATOM      6  S   UNL     1       2.271  15.018  18.208  0.00  0.00    +0.000 S 
ATOM      7  C   UNL     1       1.149  16.209  18.632  0.00  0.00    +0.000 A 
ATOM      8  C   UNL     1      -0.005  15.682  19.195  0.00  0.00    +0.000 A 
ATOM      9  C   UNL     1       0.058  14.218  19.320  0.00  0.00    +0.000 A 
ATOM     10  C   UNL     1      -1.089  16.619  19.652  0.00  0.00    +0.000 C 
ATOM     11  C   UNL     1      -0.897  18.088  19.280  0.00  0.00    +0.000 C 
ATOM     12  C   UNL     1       0.558  18.522  19.338  0.00  0.00    +0.000 C 
ATOM     13  C   UNL     1       1.411  17.664  18.395  0.00  0.00    +0.000 C 
ENDROOT
BRANCH   1  17
ATOM     14  N   UNL     1      -4.910  13.569  21.114  0.00  0.00    +0.000 NA
ATOM     15  C   UNL     1      -3.867  14.567  21.422  0.00  0.00    +0.000 C 
ATOM     16  C   UNL     1      -2.458  13.971  21.479  0.00  0.00    +0.000 C 
ATOM     17  N   UNL     1      -2.101  13.284  20.256  0.00  0.00    +0.000 N 
ATOM     18  C   UNL     1      -3.089  12.328  19.742  0.00  0.00    +0.000 C 
ATOM     19  C   UNL     1      -4.529  12.919  19.828  0.00  0.00    +0.000 C 
BRANCH  14  20
ATOM     20  C   UNL     1      -5.125  12.566  22.176  0.00  0.00    +0.000 C 
BRANCH  20  22
ATOM     21  C   UNL     1      -6.841  12.894  24.044  0.00  0.00    +0.000 C 
ATOM     22  C   UNL     1      -5.396  13.124  23.597  0.00  0.00    +0.000 C 
ATOM     23  C   UNL     1      -4.440  12.476  24.608  0.00  0.00    +0.000 C 
ENDBRANCH  20  22
ENDBRANCH  14  20
ENDBRANCH   1  17
BRANCH   3  24
ATOM     24  C   UNL     1       1.310  10.196  19.289  0.00  0.00    +0.000 A 
ATOM     25  C   UNL     1       1.167   9.374  20.417  0.00  0.00    +0.000 A 
ATOM     26  C   UNL     1       1.547   8.041  20.353  0.00  0.00    +0.000 A 
ATOM     27  N   UNL     1       2.057   7.460  19.250  0.00  0.00    +0.000 NA
ATOM     28  C   UNL     1       2.185   8.248  18.164  0.00  0.00    +0.000 A 
ATOM     29  C   UNL     1       1.832   9.591  18.134  0.00  0.00    +0.000 A 
ENDBRANCH   3  24
TORSDOF 4
ENDMDL
MODEL 7
REMARK VINA RESULT:      -6.0      2.553      6.557
REMARK  Name = 
REMARK  6 active torsions:
REMARK  status: ('A' for Active; 'I' for Inactive)
REMARK    1  A    between atoms: C_1  and  C_2
REMARK    2  A    between atoms: C_2  and  C_3
REMARK    3  A    between atoms: C_2  and  C_4
REMARK    4  A    between atoms: C_4  and  N_5
REMARK    5  A    between atoms: N_8  and  C_9
REMARK    6  A    between atoms: C_11  and  C_12
REMARK                            x       y       z     vdW  Elec       q    Type
REMARK                         _______ _______ _______ _____ _____    ______ ____
ROOT
ATOM      1  C   UNL     1       0.990  12.927  20.567  0.00  0.00    +0.000 A 
ATOM      2  N   UNL     1       1.345  11.745  19.987  0.00  0.00    +0.000 NA
ATOM      3  C   UNL     1       0.822  10.579  20.392  0.00  0.00    +0.000 A 
ATOM      4  N   UNL     1      -0.112  10.443  21.334  0.00  0.00    +0.000 NA
ATOM      5  C   UNL     1      -0.515  11.607  21.858  0.00  0.00    +0.000 A 
ATOM      6  S   UNL     1      -1.736  11.588  23.050  0.00  0.00    +0.000 S 
ATOM      7  C   UNL     1      -1.743  13.274  23.171  0.00  0.00    +0.000 A 
ATOM      8  C   UNL     1      -0.793  13.874  22.359  0.00  0.00    +0.000 A 
ATOM      9  C   UNL     1      -0.044  12.890  21.561  0.00  0.00    +0.000 A 
ATOM     10  C   UNL     1      -0.694  15.374  22.334  0.00  0.00    +0.000 C 
ATOM     11  C   UNL     1      -1.544  16.113  23.366  0.00  0.00    +0.000 C 
ATOM     12  C   UNL     1      -2.886  15.442  23.606  0.00  0.00    +0.000 C 
ATOM     13  C   UNL     1      -2.686  13.997  24.082  0.00  0.00    +0.000 C 
ENDROOT
BRANCH   1  17
ATOM     14  N   UNL     1       3.321  16.371  19.354  0.00  0.00    +0.000 NA
ATOM     15  C   UNL     1       1.894  16.196  19.018  0.00  0.00    +0.000 C 
ATOM     16  C   UNL     1       1.465  14.729  18.944  0.00  0.00    +0.000 C 
ATOM     17  N   UNL     1       1.749  14.010  20.168  0.00  0.00    +0.000 N 
ATOM     18  C   UNL     1       3.104  14.167  20.709  0.00  0.00    +0.000 C 
ATOM     19  C   UNL     1       3.559  15.657  20.639  0.00  0.00    +0.000 C 
BRANCH  14  20
ATOM     20  C   UNL     1       4.253  15.909  18.305  0.00  0.00    +0.000 C 
BRANCH  20  22
ATOM     21  C   UNL     1       6.476  14.744  17.816  0.00  0.00    +0.000 C 
ATOM     22  C   UNL     1       5.726  15.705  18.741  0.00  0.00    +0.000 C 
ATOM     23  C   UNL     1       6.456  17.053  18.777  0.00  0.00    +0.000 C 
ENDBRANCH  20  22
ENDBRANCH  14  20
ENDBRANCH   1  17
BRANCH   3  24
ATOM     24  C   UNL     1       1.349   9.343  19.766  0.00  0.00    +0.000 A 
ATOM     25  C   UNL     1       1.657   9.289  18.398  0.00  0.00    +0.000 A 
ATOM     26  C   UNL     1       2.159   8.119  17.849  0.00  0.00    +0.000 A 
ATOM     27  N   UNL     1       2.382   6.995  18.556  0.00  0.00    +0.000 NA
ATOM     28  C   UNL     1       2.094   7.050  19.872  0.00  0.00    +0.000 A 
ATOM     29  C   UNL     1       1.589   8.176  20.509  0.00  0.00    +0.000 A 
ENDBRANCH   3  24
TORSDOF 4
ENDMDL
MODEL 8
REMARK VINA RESULT:      -6.0      4.268      7.086
REMARK  Name = 
REMARK  6 active torsions:
REMARK  status: ('A' for Active; 'I' for Inactive)
REMARK    1  A    between atoms: C_1  and  C_2
REMARK    2  A    between atoms: C_2  and  C_3
REMARK    3  A    between atoms: C_2  and  C_4
REMARK    4  A    between atoms: C_4  and  N_5
REMARK    5  A    between atoms: N_8  and  C_9
REMARK    6  A    between atoms: C_11  and  C_12
REMARK                            x       y       z     vdW  Elec       q    Type
REMARK                         _______ _______ _______ _____ _____    ______ ____
ROOT
ATOM      1  C   UNL     1      -4.085  13.602  22.296  0.00  0.00    +0.000 A 
ATOM      2  N   UNL     1      -3.271  12.526  22.100  0.00  0.00    +0.000 NA
ATOM      3  C   UNL     1      -2.040  12.473  22.628  0.00  0.00    +0.000 A 
ATOM      4  N   UNL     1      -1.504  13.400  23.422  0.00  0.00    +0.000 NA
ATOM      5  C   UNL     1      -2.326  14.426  23.674  0.00  0.00    +0.000 A 
ATOM      6  S   UNL     1      -1.786  15.671  24.709  0.00  0.00    +0.000 S 
ATOM      7  C   UNL     1      -3.256  16.498  24.598  0.00  0.00    +0.000 A 
ATOM      8  C   UNL     1      -4.155  15.881  23.741  0.00  0.00    +0.000 A 
ATOM      9  C   UNL     1      -3.616  14.634  23.175  0.00  0.00    +0.000 A 
ATOM     10  C   UNL     1      -5.521  16.483  23.557  0.00  0.00    +0.000 C 
ATOM     11  C   UNL     1      -5.737  17.849  24.203  0.00  0.00    +0.000 C 
ATOM     12  C   UNL     1      -5.017  17.988  25.534  0.00  0.00    +0.000 C 
ATOM     13  C   UNL     1      -3.510  17.765  25.353  0.00  0.00    +0.000 C 
ENDROOT
BRANCH   1  17
ATOM     14  N   UNL     1      -7.749  13.594  19.983  0.00  0.00    +0.000 NA
ATOM     15  C   UNL     1      -7.596  12.880  21.266  0.00  0.00    +0.000 C 
ATOM     16  C   UNL     1      -6.152  12.465  21.559  0.00  0.00    +0.000 C 
ATOM     17  N   UNL     1      -5.242  13.590  21.539  0.00  0.00    +0.000 N 
ATOM     18  C   UNL     1      -5.340  14.478  20.375  0.00  0.00    +0.000 C 
ATOM     19  C   UNL     1      -6.831  14.766  20.022  0.00  0.00    +0.000 C 
BRANCH  14  20
ATOM     20  C   UNL     1      -7.499  12.759  18.790  0.00  0.00    +0.000 C 
BRANCH  20  22
ATOM     21  C   UNL     1      -5.601  12.316  17.135  0.00  0.00    +0.000 C 
ATOM     22  C   UNL     1      -6.553  13.361  17.720  0.00  0.00    +0.000 C 
ATOM     23  C   UNL     1      -7.373  13.996  16.589  0.00  0.00    +0.000 C 
ENDBRANCH  20  22
ENDBRANCH  14  20
ENDBRANCH   1  17
BRANCH   3  24
ATOM     24  C   UNL     1      -1.198  11.305  22.271  0.00  0.00    +0.000 A 
ATOM     25  C   UNL     1      -0.688  11.138  20.975  0.00  0.00    +0.000 A 
ATOM     26  C   UNL     1       0.106  10.040  20.681  0.00  0.00    +0.000 A 
ATOM     27  N   UNL     1       0.435   9.092  21.580  0.00  0.00    +0.000 NA
ATOM     28  C   UNL     1      -0.047   9.258  22.828  0.00  0.00    +0.000 A 
ATOM     29  C   UNL     1      -0.848  10.325  23.214  0.00  0.00    +0.000 A 
ENDBRANCH   3  24
TORSDOF 4
ENDMDL
MODEL 9
REMARK VINA RESULT:      -6.0      3.018      7.290
REMARK  Name = 
REMARK  6 active torsions:
REMARK  status: ('A' for Active; 'I' for Inactive)
REMARK    1  A    between atoms: C_1  and  C_2
REMARK    2  A    between atoms: C_2  and  C_3
REMARK    3  A    between atoms: C_2  and  C_4
REMARK    4  A    between atoms: C_4  and  N_5
REMARK    5  A    between atoms: N_8  and  C_9
REMARK    6  A    between atoms: C_11  and  C_12
REMARK                            x       y       z     vdW  Elec       q    Type
REMARK                         _______ _______ _______ _____ _____    ______ ____
ROOT
ATOM      1  C   UNL     1      -0.716  12.204  19.166  0.00  0.00    +0.000 A 
ATOM      2  N   UNL     1      -0.195  10.946  19.244  0.00  0.00    +0.000 NA
ATOM      3  C   UNL     1       1.106  10.711  19.021  0.00  0.00    +0.000 A 
ATOM      4  N   UNL     1       2.022  11.644  18.763  0.00  0.00    +0.000 NA
ATOM      5  C   UNL     1       1.528  12.888  18.755  0.00  0.00    +0.000 A 
ATOM      6  S   UNL     1       2.596  14.190  18.476  0.00  0.00    +0.000 S 
ATOM      7  C   UNL     1       1.363  15.333  18.656  0.00  0.00    +0.000 A 
ATOM      8  C   UNL     1       0.122  14.753  18.875  0.00  0.00    +0.000 A 
ATOM      9  C   UNL     1       0.199  13.285  18.938  0.00  0.00    +0.000 A 
ATOM     10  C   UNL     1      -1.073  15.641  19.083  0.00  0.00    +0.000 C 
ATOM     11  C   UNL     1      -0.841  17.132  18.847  0.00  0.00    +0.000 C 
ATOM     12  C   UNL     1       0.535  17.590  19.300  0.00  0.00    +0.000 C 
ATOM     13  C   UNL     1       1.629  16.803  18.567  0.00  0.00    +0.000 C 
ENDROOT
BRANCH   1  17
ATOM     14  N   UNL     1      -5.037  12.444  19.366  0.00  0.00    +0.000 NA
ATOM     15  C   UNL     1      -4.138  13.316  20.147  0.00  0.00    +0.000 C 
ATOM     16  C   UNL     1      -2.780  12.675  20.442  0.00  0.00    +0.000 C 
ATOM     17  N   UNL     1      -2.095  12.257  19.237  0.00  0.00    +0.000 N 
ATOM     18  C   UNL     1      -2.887  11.469  18.286  0.00  0.00    +0.000 C 
ATOM     19  C   UNL     1      -4.314  12.075  18.117  0.00  0.00    +0.000 C 
BRANCH  14  20
ATOM     20  C   UNL     1      -5.499  11.243  20.090  0.00  0.00    +0.000 C 
BRANCH  20  22
ATOM     21  C   UNL     1      -7.207   9.382  19.697  0.00  0.00    +0.000 C 
ATOM     22  C   UNL     1      -6.997  10.880  19.926  0.00  0.00    +0.000 C 
ATOM     23  C   UNL     1      -7.785  11.322  21.165  0.00  0.00    +0.000 C 
ENDBRANCH  20  22
ENDBRANCH  14  20
ENDBRANCH   1  17
BRANCH   3  24
ATOM     24  C   UNL     1       1.551   9.296  19.030  0.00  0.00    +0.000 A 
ATOM     25  C   UNL     1       1.469   8.510  20.189  0.00  0.00    +0.000 A 
ATOM     26  C   UNL     1       1.885   7.187  20.157  0.00  0.00    +0.000 A 
ATOM     27  N   UNL     1       2.376   6.583  19.058  0.00  0.00    +0.000 NA
ATOM     28  C   UNL     1       2.446   7.337  17.943  0.00  0.00    +0.000 A 
ATOM     29  C   UNL     1       2.053   8.667  17.879  0.00  0.00    +0.000 A 
ENDBRANCH   3  24
TORSDOF 4
ENDMDL
