MODEL 1
REMARK VINA RESULT:      -8.0      0.000      0.000
REMARK  Name = 
REMARK  9 active torsions:
REMARK  status: ('A' for Active; 'I' for Inactive)
REMARK    1  A    between atoms: C_1  and  C_2
REMARK    2  A    between atoms: C_5  and  C_6
REMARK    3  A    between atoms: C_6  and  N_7
REMARK    4  A    between atoms: C_8  and  C_10
REMARK    5  A    between atoms: C_10  and  C_11
REMARK    6  A    between atoms: C_11  and  C_12
REMARK    7  A    between atoms: C_17  and  C_19
REMARK    8  A    between atoms: C_19  and  C_20
REMARK    9  A    between atoms: C_20  and  C_21
REMARK                            x       y       z     vdW  Elec       q    Type
REMARK                         _______ _______ _______ _____ _____    ______ ____
ROOT
ATOM      1  C   UNL     1       5.112   5.666  17.579  0.00  0.00    +0.000 C 
ATOM      2  C   UNL     1       4.183   6.807  18.037  0.00  0.00    +0.000 C 
ATOM      3  C   UNL     1       2.931   6.315  18.766  0.00  0.00    +0.000 C 
ATOM      4  C   UNL     1       2.198   5.262  17.944  0.00  0.00    +0.000 C 
ATOM      5  N   UNL     1       3.105   4.165  17.628  0.00  0.00    +0.000 N 
ATOM      6  C   UNL     1       2.874   2.825  17.897  0.00  0.00    +0.000 C 
ATOM      7  O   UNL     1       3.701   1.948  17.653  0.00  0.00    +0.000 OA
ATOM      8  C   UNL     1       4.304   4.550  16.883  0.00  0.00    +0.000 C 
ENDROOT
BRANCH   1   9
ATOM      9  C   UNL     1       5.988   5.081  18.707  0.00  0.00    +0.000 C 
BRANCH   9  10
ATOM     10  C   UNL     1       7.430   5.610  18.714  0.00  0.00    +0.000 C 
BRANCH  10  12
ATOM     11  N   UNL     1       7.804   7.969  18.286  0.00  0.00    +0.000 N 
ATOM     12  C   UNL     1       7.633   6.733  17.708  0.00  0.00    +0.000 C 
ATOM     13  O   UNL     1       7.643   6.560  16.494  0.00  0.00    +0.000 OA
ATOM     14  H   UNL     1       7.987   8.043  19.279  0.00  0.00    +0.000 HD
BRANCH  11  15
ATOM     15  C   UNL     1       8.098   9.132  17.476  0.00  0.00    +0.000 C 
BRANCH  15  20
ATOM     16  C   UNL     1       9.521  13.648  18.478  0.00  0.00    +0.000 C 
ATOM     17  C   UNL     1       9.404  12.206  18.775  0.00  0.00    +0.000 A 
ATOM     18  C   UNL     1       9.811  11.425  19.835  0.00  0.00    +0.000 A 
ATOM     19  C   UNL     1       9.397  10.106  19.538  0.00  0.00    +0.000 A 
ATOM     20  C   UNL     1       8.761  10.160  18.314  0.00  0.00    +0.000 A 
ATOM     21  O   UNL     1       8.766  11.443  17.844  0.00  0.00    +0.000 OA
ENDBRANCH  15  20
ENDBRANCH  11  15
ENDBRANCH  10  12
ENDBRANCH   9  10
ENDBRANCH   1   9
BRANCH   6  22
ATOM     22  C   UNL     1       1.534   2.460  18.515  0.00  0.00    +0.000 C 
BRANCH  22  23
ATOM     23  C   UNL     1       1.654   2.075  19.989  0.00  0.00    +0.000 C 
BRANCH  23  24
ATOM     24  C   UNL     1       1.456   3.243  20.941  0.00  0.00    +0.000 C 
ATOM     25  F   UNL     1       2.587   3.946  21.160  0.00  0.00    +0.000 F 
ATOM     26  F   UNL     1       0.500   4.088  20.506  0.00  0.00    +0.000 F 
ATOM     27  F   UNL     1       1.048   2.778  22.149  0.00  0.00    +0.000 F 
ENDBRANCH  23  24
ENDBRANCH  22  23
ENDBRANCH   6  22
TORSDOF 8
ENDMDL
MODEL 2
REMARK VINA RESULT:      -7.8      2.224      3.182
REMARK  Name = 
REMARK  9 active torsions:
REMARK  status: ('A' for Active; 'I' for Inactive)
REMARK    1  A    between atoms: C_1  and  C_2
REMARK    2  A    between atoms: C_5  and  C_6
REMARK    3  A    between atoms: C_6  and  N_7
REMARK    4  A    between atoms: C_8  and  C_10
REMARK    5  A    between atoms: C_10  and  C_11
REMARK    6  A    between atoms: C_11  and  C_12
REMARK    7  A    between atoms: C_17  and  C_19
REMARK    8  A    between atoms: C_19  and  C_20
REMARK    9  A    between atoms: C_20  and  C_21
REMARK                            x       y       z     vdW  Elec       q    Type
REMARK                         _______ _______ _______ _____ _____    ______ ____
ROOT
ATOM      1  C   UNL     1       7.262   5.483  17.346  0.00  0.00    +0.000 C 
ATOM      2  C   UNL     1       7.114   5.021  15.883  0.00  0.00    +0.000 C 
ATOM      3  C   UNL     1       5.662   4.977  15.405  0.00  0.00    +0.000 C 
ATOM      4  C   UNL     1       4.795   4.167  16.360  0.00  0.00    +0.000 C 
ATOM      5  N   UNL     1       4.904   4.715  17.707  0.00  0.00    +0.000 N 
ATOM      6  C   UNL     1       3.841   5.114  18.503  0.00  0.00    +0.000 C 
ATOM      7  O   UNL     1       3.998   5.619  19.613  0.00  0.00    +0.000 OA
ATOM      8  C   UNL     1       6.259   4.742  18.256  0.00  0.00    +0.000 C 
ENDROOT
BRANCH   1   9
ATOM      9  C   UNL     1       7.144   7.011  17.535  0.00  0.00    +0.000 C 
BRANCH   9  10
ATOM     10  C   UNL     1       8.112   7.586  18.578  0.00  0.00    +0.000 C 
BRANCH  10  12
ATOM     11  N   UNL     1       9.365   9.577  19.178  0.00  0.00    +0.000 N 
ATOM     12  C   UNL     1       8.427   9.052  18.319  0.00  0.00    +0.000 C 
ATOM     13  O   UNL     1       7.897   9.712  17.431  0.00  0.00    +0.000 OA
ATOM     14  H   UNL     1       9.919   8.961  19.761  0.00  0.00    +0.000 HD
BRANCH  11  15
ATOM     15  C   UNL     1       9.844  10.932  19.014  0.00  0.00    +0.000 C 
BRANCH  15  20
ATOM     16  C   UNL     1       7.928  11.534  23.418  0.00  0.00    +0.000 C 
ATOM     17  C   UNL     1       8.734  11.971  22.260  0.00  0.00    +0.000 A 
ATOM     18  C   UNL     1       9.466  13.107  21.995  0.00  0.00    +0.000 A 
ATOM     19  C   UNL     1      10.022  12.930  20.707  0.00  0.00    +0.000 A 
ATOM     20  C   UNL     1       9.595  11.695  20.261  0.00  0.00    +0.000 A 
ATOM     21  O   UNL     1       8.805  11.107  21.208  0.00  0.00    +0.000 OA
ENDBRANCH  15  20
ENDBRANCH  11  15
ENDBRANCH  10  12
ENDBRANCH   9  10
ENDBRANCH   1   9
BRANCH   6  22
ATOM     22  C   UNL     1       2.440   4.901  17.952  0.00  0.00    +0.000 C 
BRANCH  22  23
ATOM     23  C   UNL     1       1.543   4.124  18.914  0.00  0.00    +0.000 C 
BRANCH  23  24
ATOM     24  C   UNL     1       1.525   2.627  18.654  0.00  0.00    +0.000 C 
ATOM     25  F   UNL     1       2.224   1.922  19.568  0.00  0.00    +0.000 F 
ATOM     26  F   UNL     1       0.268   2.141  18.602  0.00  0.00    +0.000 F 
ATOM     27  F   UNL     1       2.094   2.370  17.449  0.00  0.00    +0.000 F 
ENDBRANCH  23  24
ENDBRANCH  22  23
ENDBRANCH   6  22
TORSDOF 8
ENDMDL
MODEL 3
REMARK VINA RESULT:      -7.6      3.490      5.668
REMARK  Name = 
REMARK  9 active torsions:
REMARK  status: ('A' for Active; 'I' for Inactive)
REMARK    1  A    between atoms: C_1  and  C_2
REMARK    2  A    between atoms: C_5  and  C_6
REMARK    3  A    between atoms: C_6  and  N_7
REMARK    4  A    between atoms: C_8  and  C_10
REMARK    5  A    between atoms: C_10  and  C_11
REMARK    6  A    between atoms: C_11  and  C_12
REMARK    7  A    between atoms: C_17  and  C_19
REMARK    8  A    between atoms: C_19  and  C_20
REMARK    9  A    between atoms: C_20  and  C_21
REMARK                            x       y       z     vdW  Elec       q    Type
REMARK                         _______ _______ _______ _____ _____    ______ ____
ROOT
ATOM      1  C   UNL     1       4.558   5.698  17.448  0.00  0.00    +0.000 C 
ATOM      2  C   UNL     1       3.523   6.778  17.818  0.00  0.00    +0.000 C 
ATOM      3  C   UNL     1       2.367   6.246  18.667  0.00  0.00    +0.000 C 
ATOM      4  C   UNL     1       1.726   5.026  18.016  0.00  0.00    +0.000 C 
ATOM      5  N   UNL     1       2.741   4.004  17.782  0.00  0.00    +0.000 N 
ATOM      6  C   UNL     1       2.676   2.690  18.220  0.00  0.00    +0.000 C 
ATOM      7  O   UNL     1       3.588   1.886  18.037  0.00  0.00    +0.000 OA
ATOM      8  C   UNL     1       3.856   4.423  16.933  0.00  0.00    +0.000 C 
ENDROOT
BRANCH   1   9
ATOM      9  C   UNL     1       5.541   5.356  18.588  0.00  0.00    +0.000 C 
BRANCH   9  10
ATOM     10  C   UNL     1       6.920   4.888  18.103  0.00  0.00    +0.000 C 
BRANCH  10  12
ATOM     11  N   UNL     1       7.276   4.493  15.735  0.00  0.00    +0.000 N 
ATOM     12  C   UNL     1       7.263   5.444  16.728  0.00  0.00    +0.000 C 
ATOM     13  O   UNL     1       7.507   6.628  16.519  0.00  0.00    +0.000 OA
ATOM     14  H   UNL     1       6.880   3.576  15.905  0.00  0.00    +0.000 HD
BRANCH  11  15
ATOM     15  C   UNL     1       7.496   4.866  14.355  0.00  0.00    +0.000 C 
BRANCH  15  20
ATOM     16  C   UNL     1       6.330   1.687  10.897  0.00  0.00    +0.000 C 
ATOM     17  C   UNL     1       6.003   2.694  11.926  0.00  0.00    +0.000 A 
ATOM     18  C   UNL     1       4.817   3.218  12.390  0.00  0.00    +0.000 A 
ATOM     19  C   UNL     1       5.160   4.149  13.398  0.00  0.00    +0.000 A 
ATOM     20  C   UNL     1       6.537   4.139  13.489  0.00  0.00    +0.000 A 
ATOM     21  O   UNL     1       7.056   3.252  12.588  0.00  0.00    +0.000 OA
ENDBRANCH  15  20
ENDBRANCH  11  15
ENDBRANCH  10  12
ENDBRANCH   9  10
ENDBRANCH   1   9
BRANCH   6  22
ATOM     22  C   UNL     1       1.413   2.260  18.949  0.00  0.00    +0.000 C 
BRANCH  22  23
ATOM     23  C   UNL     1       1.008   3.242  20.048  0.00  0.00    +0.000 C 
BRANCH  23  24
ATOM     24  C   UNL     1       1.825   3.101  21.320  0.00  0.00    +0.000 C 
ATOM     25  F   UNL     1       1.118   2.597  22.353  0.00  0.00    +0.000 F 
ATOM     26  F   UNL     1       2.920   2.335  21.132  0.00  0.00    +0.000 F 
ATOM     27  F   UNL     1       2.266   4.323  21.712  0.00  0.00    +0.000 F 
ENDBRANCH  23  24
ENDBRANCH  22  23
ENDBRANCH   6  22
TORSDOF 8
ENDMDL
MODEL 4
REMARK VINA RESULT:      -7.6      5.178      7.477
REMARK  Name = 
REMARK  9 active torsions:
REMARK  status: ('A' for Active; 'I' for Inactive)
REMARK    1  A    between atoms: C_1  and  C_2
REMARK    2  A    between atoms: C_5  and  C_6
REMARK    3  A    between atoms: C_6  and  N_7
REMARK    4  A    between atoms: C_8  and  C_10
REMARK    5  A    between atoms: C_10  and  C_11
REMARK    6  A    between atoms: C_11  and  C_12
REMARK    7  A    between atoms: C_17  and  C_19
REMARK    8  A    between atoms: C_19  and  C_20
REMARK    9  A    between atoms: C_20  and  C_21
REMARK                            x       y       z     vdW  Elec       q    Type
REMARK                         _______ _______ _______ _____ _____    ______ ____
ROOT
ATOM      1  C   UNL     1       3.999   6.875  17.966  0.00  0.00    +0.000 C 
ATOM      2  C   UNL     1       4.542   5.946  16.863  0.00  0.00    +0.000 C 
ATOM      3  C   UNL     1       4.114   4.487  17.032  0.00  0.00    +0.000 C 
ATOM      4  C   UNL     1       4.440   3.980  18.431  0.00  0.00    +0.000 C 
ATOM      5  N   UNL     1       3.816   4.845  19.425  0.00  0.00    +0.000 N 
ATOM      6  C   UNL     1       2.971   4.426  20.442  0.00  0.00    +0.000 C 
ATOM      7  O   UNL     1       2.432   5.210  21.220  0.00  0.00    +0.000 OA
ATOM      8  C   UNL     1       4.217   6.250  19.361  0.00  0.00    +0.000 C 
ENDROOT
BRANCH   1   9
ATOM      9  C   UNL     1       2.521   7.277  17.774  0.00  0.00    +0.000 C 
BRANCH   9  10
ATOM     10  C   UNL     1       2.300   8.789  17.630  0.00  0.00    +0.000 C 
BRANCH  10  12
ATOM     11  N   UNL     1       0.138   9.871  17.847  0.00  0.00    +0.000 N 
ATOM     12  C   UNL     1       1.181   9.293  18.531  0.00  0.00    +0.000 C 
ATOM     13  O   UNL     1       1.203   9.197  19.754  0.00  0.00    +0.000 OA
ATOM     14  H   UNL     1       0.063   9.755  16.844  0.00  0.00    +0.000 HD
BRANCH  11  15
ATOM     15  C   UNL     1      -1.046  10.322  18.545  0.00  0.00    +0.000 C 
BRANCH  15  20
ATOM     16  C   UNL     1      -5.332  12.056  17.113  0.00  0.00    +0.000 C 
ATOM     17  C   UNL     1      -4.098  11.270  16.920  0.00  0.00    +0.000 A 
ATOM     18  C   UNL     1      -3.609  10.522  15.871  0.00  0.00    +0.000 A 
ATOM     19  C   UNL     1      -2.359  10.014  16.293  0.00  0.00    +0.000 A 
ATOM     20  C   UNL     1      -2.157  10.482  17.576  0.00  0.00    +0.000 A 
ATOM     21  O   UNL     1      -3.220  11.249  17.963  0.00  0.00    +0.000 OA
ENDBRANCH  15  20
ENDBRANCH  11  15
ENDBRANCH  10  12
ENDBRANCH   9  10
ENDBRANCH   1   9
BRANCH   6  22
ATOM     22  C   UNL     1       2.726   2.931  20.571  0.00  0.00    +0.000 C 
BRANCH  22  23
ATOM     23  C   UNL     1       1.310   2.531  20.158  0.00  0.00    +0.000 C 
BRANCH  23  24
ATOM     24  C   UNL     1       1.123   2.423  18.654  0.00  0.00    +0.000 C 
ATOM     25  F   UNL     1       2.172   1.850  18.029  0.00  0.00    +0.000 F 
ATOM     26  F   UNL     1       0.005   1.740  18.335  0.00  0.00    +0.000 F 
ATOM     27  F   UNL     1       0.987   3.665  18.124  0.00  0.00    +0.000 F 
ENDBRANCH  23  24
ENDBRANCH  22  23
ENDBRANCH   6  22
TORSDOF 8
ENDMDL
MODEL 5
REMARK VINA RESULT:      -7.5      3.494      5.443
REMARK  Name = 
REMARK  9 active torsions:
REMARK  status: ('A' for Active; 'I' for Inactive)
REMARK    1  A    between atoms: C_1  and  C_2
REMARK    2  A    between atoms: C_5  and  C_6
REMARK    3  A    between atoms: C_6  and  N_7
REMARK    4  A    between atoms: C_8  and  C_10
REMARK    5  A    between atoms: C_10  and  C_11
REMARK    6  A    between atoms: C_11  and  C_12
REMARK    7  A    between atoms: C_17  and  C_19
REMARK    8  A    between atoms: C_19  and  C_20
REMARK    9  A    between atoms: C_20  and  C_21
REMARK                            x       y       z     vdW  Elec       q    Type
REMARK                         _______ _______ _______ _____ _____    ______ ____
ROOT
ATOM      1  C   UNL     1       3.056   4.460  19.174  0.00  0.00    +0.000 C 
ATOM      2  C   UNL     1       2.128   4.156  20.366  0.00  0.00    +0.000 C 
ATOM      3  C   UNL     1       1.070   5.236  20.602  0.00  0.00    +0.000 C 
ATOM      4  C   UNL     1       1.709   6.615  20.700  0.00  0.00    +0.000 C 
ATOM      5  N   UNL     1       2.493   6.881  19.499  0.00  0.00    +0.000 N 
ATOM      6  C   UNL     1       2.357   7.988  18.676  0.00  0.00    +0.000 C 
ATOM      7  O   UNL     1       3.012   8.132  17.646  0.00  0.00    +0.000 OA
ATOM      8  C   UNL     1       3.562   5.918  19.234  0.00  0.00    +0.000 C 
ENDROOT
BRANCH   1   9
ATOM      9  C   UNL     1       2.428   4.158  17.797  0.00  0.00    +0.000 C 
BRANCH   9  10
ATOM     10  C   UNL     1       3.380   3.459  16.817  0.00  0.00    +0.000 C 
BRANCH  10  12
ATOM     11  N   UNL     1       5.775   3.704  16.515  0.00  0.00    +0.000 N 
ATOM     12  C   UNL     1       4.560   4.342  16.436  0.00  0.00    +0.000 C 
ATOM     13  O   UNL     1       4.444   5.514  16.093  0.00  0.00    +0.000 OA
ATOM     14  H   UNL     1       5.815   2.697  16.607  0.00  0.00    +0.000 HD
BRANCH  11  15
ATOM     15  C   UNL     1       6.991   4.373  16.103  0.00  0.00    +0.000 C 
BRANCH  15  20
ATOM     16  C   UNL     1       8.087   8.783  17.770  0.00  0.00    +0.000 C 
ATOM     17  C   UNL     1       7.901   7.326  17.920  0.00  0.00    +0.000 A 
ATOM     18  C   UNL     1       8.019   6.464  18.988  0.00  0.00    +0.000 A 
ATOM     19  C   UNL     1       7.701   5.177  18.498  0.00  0.00    +0.000 A 
ATOM     20  C   UNL     1       7.408   5.328  17.158  0.00  0.00    +0.000 A 
ATOM     21  O   UNL     1       7.532   6.641  16.800  0.00  0.00    +0.000 OA
ENDBRANCH  15  20
ENDBRANCH  11  15
ENDBRANCH  10  12
ENDBRANCH   9  10
ENDBRANCH   1   9
BRANCH   6  22
ATOM     22  C   UNL     1       1.349   9.047  19.095  0.00  0.00    +0.000 C 
BRANCH  22  23
ATOM     23  C   UNL     1       0.591   9.637  17.907  0.00  0.00    +0.000 C 
BRANCH  23  24
ATOM     24  C   UNL     1      -0.749  10.245  18.282  0.00  0.00    +0.000 C 
ATOM     25  F   UNL     1      -1.141   9.935  19.536  0.00  0.00    +0.000 F 
ATOM     26  F   UNL     1      -0.745  11.588  18.152  0.00  0.00    +0.000 F 
ATOM     27  F   UNL     1      -1.710   9.774  17.448  0.00  0.00    +0.000 F 
ENDBRANCH  23  24
ENDBRANCH  22  23
ENDBRANCH   6  22
TORSDOF 8
ENDMDL
MODEL 6
REMARK VINA RESULT:      -7.5      4.411      5.643
REMARK  Name = 
REMARK  9 active torsions:
REMARK  status: ('A' for Active; 'I' for Inactive)
REMARK    1  A    between atoms: C_1  and  C_2
REMARK    2  A    between atoms: C_5  and  C_6
REMARK    3  A    between atoms: C_6  and  N_7
REMARK    4  A    between atoms: C_8  and  C_10
REMARK    5  A    between atoms: C_10  and  C_11
REMARK    6  A    between atoms: C_11  and  C_12
REMARK    7  A    between atoms: C_17  and  C_19
REMARK    8  A    between atoms: C_19  and  C_20
REMARK    9  A    between atoms: C_20  and  C_21
REMARK                            x       y       z     vdW  Elec       q    Type
REMARK                         _______ _______ _______ _____ _____    ______ ____
ROOT
ATOM      1  C   UNL     1       3.189   1.922  18.886  0.00  0.00    +0.000 C 
ATOM      2  C   UNL     1       2.894   2.192  17.398  0.00  0.00    +0.000 C 
ATOM      3  C   UNL     1       2.562   3.656  17.101  0.00  0.00    +0.000 C 
ATOM      4  C   UNL     1       1.452   4.161  18.015  0.00  0.00    +0.000 C 
ATOM      5  N   UNL     1       1.836   3.965  19.408  0.00  0.00    +0.000 N 
ATOM      6  C   UNL     1       1.862   4.951  20.383  0.00  0.00    +0.000 C 
ATOM      7  O   UNL     1       2.245   4.737  21.531  0.00  0.00    +0.000 OA
ATOM      8  C   UNL     1       2.119   2.580  19.783  0.00  0.00    +0.000 C 
ENDROOT
BRANCH   1   9
ATOM      9  C   UNL     1       4.607   2.343  19.330  0.00  0.00    +0.000 C 
BRANCH   9  10
ATOM     10  C   UNL     1       4.687   3.770  19.888  0.00  0.00    +0.000 C 
BRANCH  10  12
ATOM     11  N   UNL     1       6.497   3.924  18.279  0.00  0.00    +0.000 N 
ATOM     12  C   UNL     1       5.661   4.638  19.105  0.00  0.00    +0.000 C 
ATOM     13  O   UNL     1       5.703   5.860  19.199  0.00  0.00    +0.000 OA
ATOM     14  H   UNL     1       6.304   2.950  18.081  0.00  0.00    +0.000 HD
BRANCH  11  15
ATOM     15  C   UNL     1       7.424   4.601  17.399  0.00  0.00    +0.000 C 
BRANCH  15  20
ATOM     16  C   UNL     1       7.758   5.357  12.630  0.00  0.00    +0.000 C 
ATOM     17  C   UNL     1       7.100   4.817  13.835  0.00  0.00    +0.000 A 
ATOM     18  C   UNL     1       5.955   4.076  14.034  0.00  0.00    +0.000 A 
ATOM     19  C   UNL     1       5.858   3.859  15.428  0.00  0.00    +0.000 A 
ATOM     20  C   UNL     1       6.950   4.481  15.999  0.00  0.00    +0.000 A 
ATOM     21  O   UNL     1       7.710   5.070  15.028  0.00  0.00    +0.000 OA
ENDBRANCH  15  20
ENDBRANCH  11  15
ENDBRANCH  10  12
ENDBRANCH   9  10
ENDBRANCH   1   9
BRANCH   6  22
ATOM     22  C   UNL     1       1.389   6.340  19.981  0.00  0.00    +0.000 C 
BRANCH  22  23
ATOM     23  C   UNL     1       2.545   7.267  19.606  0.00  0.00    +0.000 C 
BRANCH  23  24
ATOM     24  C   UNL     1       2.501   7.741  18.164  0.00  0.00    +0.000 C 
ATOM     25  F   UNL     1       2.592   9.082  18.044  0.00  0.00    +0.000 F 
ATOM     26  F   UNL     1       3.471   7.174  17.419  0.00  0.00    +0.000 F 
ATOM     27  F   UNL     1       1.318   7.381  17.605  0.00  0.00    +0.000 F 
ENDBRANCH  23  24
ENDBRANCH  22  23
ENDBRANCH   6  22
TORSDOF 8
ENDMDL
MODEL 7
REMARK VINA RESULT:      -7.5      0.721      1.342
REMARK  Name = 
REMARK  9 active torsions:
REMARK  status: ('A' for Active; 'I' for Inactive)
REMARK    1  A    between atoms: C_1  and  C_2
REMARK    2  A    between atoms: C_5  and  C_6
REMARK    3  A    between atoms: C_6  and  N_7
REMARK    4  A    between atoms: C_8  and  C_10
REMARK    5  A    between atoms: C_10  and  C_11
REMARK    6  A    between atoms: C_11  and  C_12
REMARK    7  A    between atoms: C_17  and  C_19
REMARK    8  A    between atoms: C_19  and  C_20
REMARK    9  A    between atoms: C_20  and  C_21
REMARK                            x       y       z     vdW  Elec       q    Type
REMARK                         _______ _______ _______ _____ _____    ______ ____
ROOT
ATOM      1  C   UNL     1       4.835   6.111  17.604  0.00  0.00    +0.000 C 
ATOM      2  C   UNL     1       3.702   7.111  17.907  0.00  0.00    +0.000 C 
ATOM      3  C   UNL     1       2.483   6.465  18.568  0.00  0.00    +0.000 C 
ATOM      4  C   UNL     1       1.998   5.264  17.766  0.00  0.00    +0.000 C 
ATOM      5  N   UNL     1       3.090   4.311  17.599  0.00  0.00    +0.000 N 
ATOM      6  C   UNL     1       3.048   2.968  17.942  0.00  0.00    +0.000 C 
ATOM      7  O   UNL     1       4.020   2.225  17.826  0.00  0.00    +0.000 OA
ATOM      8  C   UNL     1       4.275   4.842  16.926  0.00  0.00    +0.000 C 
ENDROOT
BRANCH   1   9
ATOM      9  C   UNL     1       5.688   5.740  18.836  0.00  0.00    +0.000 C 
BRANCH   9  10
ATOM     10  C   UNL     1       7.199   5.727  18.566  0.00  0.00    +0.000 C 
BRANCH  10  12
ATOM     11  N   UNL     1       7.909   8.010  18.148  0.00  0.00    +0.000 N 
ATOM     12  C   UNL     1       7.613   6.799  17.568  0.00  0.00    +0.000 C 
ATOM     13  O   UNL     1       7.676   6.608  16.358  0.00  0.00    +0.000 OA
ATOM     14  H   UNL     1       8.037   8.074  19.151  0.00  0.00    +0.000 HD
BRANCH  11  15
ATOM     15  C   UNL     1       8.404   9.112  17.352  0.00  0.00    +0.000 C 
BRANCH  15  20
ATOM     16  C   UNL     1       9.276  11.075  21.689  0.00  0.00    +0.000 C 
ATOM     17  C   UNL     1       9.260  11.095  20.213  0.00  0.00    +0.000 A 
ATOM     18  C   UNL     1       9.647  12.028  19.277  0.00  0.00    +0.000 A 
ATOM     19  C   UNL     1       9.388  11.454  18.011  0.00  0.00    +0.000 A 
ATOM     20  C   UNL     1       8.858  10.202  18.249  0.00  0.00    +0.000 A 
ATOM     21  O   UNL     1       8.776   9.980  19.595  0.00  0.00    +0.000 OA
ENDBRANCH  15  20
ENDBRANCH  11  15
ENDBRANCH  10  12
ENDBRANCH   9  10
ENDBRANCH   1   9
BRANCH   6  22
ATOM     22  C   UNL     1       1.731   2.428  18.477  0.00  0.00    +0.000 C 
BRANCH  22  23
ATOM     23  C   UNL     1       1.802   2.077  19.963  0.00  0.00    +0.000 C 
BRANCH  23  24
ATOM     24  C   UNL     1       1.331   3.196  20.875  0.00  0.00    +0.000 C 
ATOM     25  F   UNL     1       0.379   3.972  20.315  0.00  0.00    +0.000 F 
ATOM     26  F   UNL     1       0.867   2.724  22.050  0.00  0.00    +0.000 F 
ATOM     27  F   UNL     1       2.375   4.013  21.166  0.00  0.00    +0.000 F 
ENDBRANCH  23  24
ENDBRANCH  22  23
ENDBRANCH   6  22
TORSDOF 8
ENDMDL
MODEL 8
REMARK VINA RESULT:      -7.4      1.869      2.808
REMARK  Name = 
REMARK  9 active torsions:
REMARK  status: ('A' for Active; 'I' for Inactive)
REMARK    1  A    between atoms: C_1  and  C_2
REMARK    2  A    between atoms: C_5  and  C_6
REMARK    3  A    between atoms: C_6  and  N_7
REMARK    4  A    between atoms: C_8  and  C_10
REMARK    5  A    between atoms: C_10  and  C_11
REMARK    6  A    between atoms: C_11  and  C_12
REMARK    7  A    between atoms: C_17  and  C_19
REMARK    8  A    between atoms: C_19  and  C_20
REMARK    9  A    between atoms: C_20  and  C_21
REMARK                            x       y       z     vdW  Elec       q    Type
REMARK                         _______ _______ _______ _____ _____    ______ ____
ROOT
ATOM      1  C   UNL     1       7.188   5.672  17.107  0.00  0.00    +0.000 C 
ATOM      2  C   UNL     1       7.238   5.247  15.627  0.00  0.00    +0.000 C 
ATOM      3  C   UNL     1       5.879   4.811  15.075  0.00  0.00    +0.000 C 
ATOM      4  C   UNL     1       5.243   3.749  15.963  0.00  0.00    +0.000 C 
ATOM      5  N   UNL     1       5.135   4.251  17.328  0.00  0.00    +0.000 N 
ATOM      6  C   UNL     1       3.971   4.297  18.080  0.00  0.00    +0.000 C 
ATOM      7  O   UNL     1       3.932   4.780  19.210  0.00  0.00    +0.000 OA
ATOM      8  C   UNL     1       6.403   4.640  17.945  0.00  0.00    +0.000 C 
ENDROOT
BRANCH   1   9
ATOM      9  C   UNL     1       6.630   7.094  17.332  0.00  0.00    +0.000 C 
BRANCH   9  10
ATOM     10  C   UNL     1       7.652   8.212  17.082  0.00  0.00    +0.000 C 
BRANCH  10  12
ATOM     11  N   UNL     1       8.782   9.894  18.418  0.00  0.00    +0.000 N 
ATOM     12  C   UNL     1       8.431   8.567  18.340  0.00  0.00    +0.000 C 
ATOM     13  O   UNL     1       8.725   7.750  19.207  0.00  0.00    +0.000 OA
ATOM     14  H   UNL     1       8.357  10.568  17.792  0.00  0.00    +0.000 HD
BRANCH  11  15
ATOM     15  C   UNL     1       9.449  10.417  19.590  0.00  0.00    +0.000 C 
BRANCH  15  20
ATOM     16  C   UNL     1      10.832  14.516  17.419  0.00  0.00    +0.000 C 
ATOM     17  C   UNL     1      11.084  13.287  18.197  0.00  0.00    +0.000 A 
ATOM     18  C   UNL     1      12.218  12.741  18.758  0.00  0.00    +0.000 A 
ATOM     19  C   UNL     1      11.812  11.542  19.389  0.00  0.00    +0.000 A 
ATOM     20  C   UNL     1      10.453  11.426  19.175  0.00  0.00    +0.000 A 
ATOM     21  O   UNL     1      10.005  12.491  18.444  0.00  0.00    +0.000 OA
ENDBRANCH  15  20
ENDBRANCH  11  15
ENDBRANCH  10  12
ENDBRANCH   9  10
ENDBRANCH   1   9
BRANCH   6  22
ATOM     22  C   UNL     1       2.713   3.717  17.453  0.00  0.00    +0.000 C 
BRANCH  22  23
ATOM     23  C   UNL     1       2.302   2.389  18.086  0.00  0.00    +0.000 C 
BRANCH  23  24
ATOM     24  C   UNL     1       1.174   2.519  19.094  0.00  0.00    +0.000 C 
ATOM     25  F   UNL     1       0.030   1.928  18.690  0.00  0.00    +0.000 F 
ATOM     26  F   UNL     1       1.516   2.018  20.299  0.00  0.00    +0.000 F 
ATOM     27  F   UNL     1       0.885   3.832  19.284  0.00  0.00    +0.000 F 
ENDBRANCH  23  24
ENDBRANCH  22  23
ENDBRANCH   6  22
TORSDOF 8
ENDMDL
MODEL 9
REMARK VINA RESULT:      -7.3      2.064      3.050
REMARK  Name = 
REMARK  9 active torsions:
REMARK  status: ('A' for Active; 'I' for Inactive)
REMARK    1  A    between atoms: C_1  and  C_2
REMARK    2  A    between atoms: C_5  and  C_6
REMARK    3  A    between atoms: C_6  and  N_7
REMARK    4  A    between atoms: C_8  and  C_10
REMARK    5  A    between atoms: C_10  and  C_11
REMARK    6  A    between atoms: C_11  and  C_12
REMARK    7  A    between atoms: C_17  and  C_19
REMARK    8  A    between atoms: C_19  and  C_20
REMARK    9  A    between atoms: C_20  and  C_21
REMARK                            x       y       z     vdW  Elec       q    Type
REMARK                         _______ _______ _______ _____ _____    ______ ____
ROOT
ATOM      1  C   UNL     1       7.366   5.676  16.941  0.00  0.00    +0.000 C 
ATOM      2  C   UNL     1       6.863   5.337  15.524  0.00  0.00    +0.000 C 
ATOM      3  C   UNL     1       5.350   5.120  15.454  0.00  0.00    +0.000 C 
ATOM      4  C   UNL     1       4.894   4.102  16.492  0.00  0.00    +0.000 C 
ATOM      5  N   UNL     1       5.317   4.532  17.820  0.00  0.00    +0.000 N 
ATOM      6  C   UNL     1       4.486   4.689  18.919  0.00  0.00    +0.000 C 
ATOM      7  O   UNL     1       4.892   5.105  20.002  0.00  0.00    +0.000 OA
ATOM      8  C   UNL     1       6.759   4.710  17.981  0.00  0.00    +0.000 C 
ENDROOT
BRANCH   1   9
ATOM      9  C   UNL     1       7.128   7.144  17.356  0.00  0.00    +0.000 C 
BRANCH   9  10
ATOM     10  C   UNL     1       8.062   7.637  18.469  0.00  0.00    +0.000 C 
BRANCH  10  12
ATOM     11  N   UNL     1       9.332   9.559  19.232  0.00  0.00    +0.000 N 
ATOM     12  C   UNL     1       8.425   9.106  18.304  0.00  0.00    +0.000 C 
ATOM     13  O   UNL     1       7.953   9.824  17.429  0.00  0.00    +0.000 OA
ATOM     14  H   UNL     1       9.843   8.900  19.807  0.00  0.00    +0.000 HD
BRANCH  11  15
ATOM     15  C   UNL     1       9.851  10.908  19.164  0.00  0.00    +0.000 C 
BRANCH  15  20
ATOM     16  C   UNL     1       8.048  11.493  23.618  0.00  0.00    +0.000 C 
ATOM     17  C   UNL     1       8.461  11.984  22.288  0.00  0.00    +0.000 A 
ATOM     18  C   UNL     1       8.469  13.232  21.704  0.00  0.00    +0.000 A 
ATOM     19  C   UNL     1       8.993  13.058  20.402  0.00  0.00    +0.000 A 
ATOM     20  C   UNL     1       9.274  11.713  20.268  0.00  0.00    +0.000 A 
ATOM     21  O   UNL     1       8.948  11.053  21.419  0.00  0.00    +0.000 OA
ENDBRANCH  15  20
ENDBRANCH  11  15
ENDBRANCH  10  12
ENDBRANCH   9  10
ENDBRANCH   1   9
BRANCH   6  22
ATOM     22  C   UNL     1       3.021   4.321  18.742  0.00  0.00    +0.000 C 
BRANCH  22  23
ATOM     23  C   UNL     1       2.565   3.241  19.723  0.00  0.00    +0.000 C 
BRANCH  23  24
ATOM     24  C   UNL     1       1.274   3.583  20.446  0.00  0.00    +0.000 C 
ATOM     25  F   UNL     1       0.172   3.357  19.700  0.00  0.00    +0.000 F 
ATOM     26  F   UNL     1       1.155   2.906  21.607  0.00  0.00    +0.000 F 
ATOM     27  F   UNL     1       1.266   4.903  20.760  0.00  0.00    +0.000 F 
ENDBRANCH  23  24
ENDBRANCH  22  23
ENDBRANCH   6  22
TORSDOF 8
ENDMDL
