MODEL 1
REMARK VINA RESULT:      -8.0      0.000      0.000
REMARK  Name = 
REMARK  11 active torsions:
REMARK  status: ('A' for Active; 'I' for Inactive)
REMARK    1  A    between atoms: C_1  and  O_2
REMARK    2  A    between atoms: O_2  and  C_3
REMARK    3  A    between atoms: C_8  and  C_9
REMARK    4  A    between atoms: C_9  and  C_10
REMARK    5  A    between atoms: C_9  and  N_29
REMARK    6  A    between atoms: C_10  and  N_11
REMARK    7  A    between atoms: C_12  and  C_14
REMARK    8  A    between atoms: C_17  and  S_18
REMARK    9  A    between atoms: S_18  and  N_21
REMARK   10  A    between atoms: N_29  and  C_30
REMARK   11  A    between atoms: N_29  and  C_31
REMARK                            x       y       z     vdW  Elec       q    Type
REMARK                         _______ _______ _______ _____ _____    ______ ____
ROOT
ATOM      1  N   UNL     1       2.068   5.798  18.223  0.00  0.00    +0.000 N 
ATOM      2  C   UNL     1       2.632   7.038  18.035  0.00  0.00    +0.000 C 
ATOM      3  O   UNL     1       3.620   7.249  17.342  0.00  0.00    +0.000 OA
ATOM      4  H   UNL     1       1.156   5.717  18.659  0.00  0.00    +0.000 HD
ENDROOT
BRANCH   2   5
ATOM      5  C   UNL     1       1.941   8.163  18.727  0.00  0.00    +0.000 A 
ATOM      6  C   UNL     1       1.522   9.292  18.005  0.00  0.00    +0.000 A 
ATOM      7  C   UNL     1       0.878  10.344  18.661  0.00  0.00    +0.000 A 
ATOM      8  C   UNL     1       0.620  10.259  20.033  0.00  0.00    +0.000 A 
ATOM      9  C   UNL     1       1.051   9.144  20.765  0.00  0.00    +0.000 A 
ATOM     10  C   UNL     1       1.696   8.090  20.101  0.00  0.00    +0.000 A 
BRANCH   8  11
ATOM     11  S   UNL     1      -0.152  11.651  20.857  0.00  0.00    +0.000 S 
ATOM     12  O   UNL     1      -1.561  11.620  20.521  0.00  0.00    +0.000 OA
ATOM     13  O   UNL     1       0.277  11.612  22.231  0.00  0.00    +0.000 OA
BRANCH  11  14
ATOM     14  N   UNL     1       0.553  13.032  20.120  0.00  0.00    +0.000 NA
ATOM     15  C   UNL     1      -0.411  14.048  19.618  0.00  0.00    +0.000 C 
ATOM     16  C   UNL     1       0.284  15.163  18.843  0.00  0.00    +0.000 C 
ATOM     17  C   UNL     1       1.419  15.773  19.649  0.00  0.00    +0.000 C 
ATOM     18  C   UNL     1       2.418  14.684  20.006  0.00  0.00    +0.000 C 
ATOM     19  C   UNL     1       1.761  13.560  20.799  0.00  0.00    +0.000 C 
ENDBRANCH  11  14
ENDBRANCH   8  11
ENDBRANCH   2   5
BRANCH   1  20
ATOM     20  C   UNL     1       2.632   4.590  17.648  0.00  0.00    +0.000 C 
BRANCH  20  21
ATOM     21  C   UNL     1       3.907   4.060  18.393  0.00  0.00    +0.000 C 
BRANCH  21  27
ATOM     22  C   UNL     1       6.426   4.656  17.864  0.00  0.00    +0.000 A 
ATOM     23  C   UNL     1       7.439   4.807  16.896  0.00  0.00    +0.000 A 
ATOM     24  C   UNL     1       7.200   4.568  15.544  0.00  0.00    +0.000 A 
ATOM     25  C   UNL     1       5.937   4.189  15.129  0.00  0.00    +0.000 A 
ATOM     26  C   UNL     1       4.916   4.055  16.066  0.00  0.00    +0.000 A 
ATOM     27  C   UNL     1       5.130   4.259  17.451  0.00  0.00    +0.000 A 
BRANCH  22  29
ATOM     28  C   UNL     1       7.837   5.682  19.494  0.00  0.00    +0.000 C 
ATOM     29  O   UNL     1       6.646   4.931  19.198  0.00  0.00    +0.000 OA
ENDBRANCH  22  29
ENDBRANCH  21  27
BRANCH  21  30
ATOM     30  N   UNL     1       3.776   2.615  18.793  0.00  0.00    +0.000 NA
ATOM     31  C   UNL     1       4.421   2.310  20.072  0.00  0.00    +0.000 C 
ATOM     32  C   UNL     1       2.431   2.045  18.780  0.00  0.00    +0.000 C 
ENDBRANCH  21  30
ENDBRANCH  20  21
ENDBRANCH   1  20
TORSDOF 8
ENDMDL
MODEL 2
REMARK VINA RESULT:      -7.9      1.894      2.559
REMARK  Name = 
REMARK  11 active torsions:
REMARK  status: ('A' for Active; 'I' for Inactive)
REMARK    1  A    between atoms: C_1  and  O_2
REMARK    2  A    between atoms: O_2  and  C_3
REMARK    3  A    between atoms: C_8  and  C_9
REMARK    4  A    between atoms: C_9  and  C_10
REMARK    5  A    between atoms: C_9  and  N_29
REMARK    6  A    between atoms: C_10  and  N_11
REMARK    7  A    between atoms: C_12  and  C_14
REMARK    8  A    between atoms: C_17  and  S_18
REMARK    9  A    between atoms: S_18  and  N_21
REMARK   10  A    between atoms: N_29  and  C_30
REMARK   11  A    between atoms: N_29  and  C_31
REMARK                            x       y       z     vdW  Elec       q    Type
REMARK                         _______ _______ _______ _____ _____    ______ ____
ROOT
ATOM      1  N   UNL     1       2.420   5.910  18.210  0.00  0.00    +0.000 N 
ATOM      2  C   UNL     1       2.139   6.322  19.492  0.00  0.00    +0.000 C 
ATOM      3  O   UNL     1       2.197   5.596  20.478  0.00  0.00    +0.000 OA
ATOM      4  H   UNL     1       2.524   6.595  17.470  0.00  0.00    +0.000 HD
ENDROOT
BRANCH   2   5
ATOM      5  C   UNL     1       1.766   7.758  19.632  0.00  0.00    +0.000 A 
ATOM      6  C   UNL     1       1.331   8.262  20.867  0.00  0.00    +0.000 A 
ATOM      7  C   UNL     1       0.979   9.608  20.990  0.00  0.00    +0.000 A 
ATOM      8  C   UNL     1       1.092  10.464  19.889  0.00  0.00    +0.000 A 
ATOM      9  C   UNL     1       1.508   9.965  18.647  0.00  0.00    +0.000 A 
ATOM     10  C   UNL     1       1.861   8.612  18.529  0.00  0.00    +0.000 A 
BRANCH   8  11
ATOM     11  S   UNL     1       0.575  12.171  20.062  0.00  0.00    +0.000 S 
ATOM     12  O   UNL     1       1.121  12.660  21.312  0.00  0.00    +0.000 OA
ATOM     13  O   UNL     1       0.883  12.828  18.818  0.00  0.00    +0.000 OA
BRANCH  11  14
ATOM     14  N   UNL     1      -1.134  12.090  20.209  0.00  0.00    +0.000 NA
ATOM     15  C   UNL     1      -1.715  12.882  21.326  0.00  0.00    +0.000 C 
ATOM     16  C   UNL     1      -3.212  12.636  21.485  0.00  0.00    +0.000 C 
ATOM     17  C   UNL     1      -3.948  12.839  20.171  0.00  0.00    +0.000 C 
ATOM     18  C   UNL     1      -3.372  11.897  19.126  0.00  0.00    +0.000 C 
ATOM     19  C   UNL     1      -1.878  12.128  18.927  0.00  0.00    +0.000 C 
ENDBRANCH  11  14
ENDBRANCH   8  11
ENDBRANCH   2   5
BRANCH   1  20
ATOM     20  C   UNL     1       2.768   4.537  17.891  0.00  0.00    +0.000 C 
BRANCH  20  21
ATOM     21  C   UNL     1       4.161   4.082  18.449  0.00  0.00    +0.000 C 
BRANCH  21  27
ATOM     22  C   UNL     1       6.600   4.547  17.545  0.00  0.00    +0.000 A 
ATOM     23  C   UNL     1       7.445   4.741  16.434  0.00  0.00    +0.000 A 
ATOM     24  C   UNL     1       6.959   4.692  15.128  0.00  0.00    +0.000 A 
ATOM     25  C   UNL     1       5.613   4.465  14.908  0.00  0.00    +0.000 A 
ATOM     26  C   UNL     1       4.757   4.293  15.992  0.00  0.00    +0.000 A 
ATOM     27  C   UNL     1       5.221   4.304  17.330  0.00  0.00    +0.000 A 
BRANCH  22  29
ATOM     28  C   UNL     1       7.792   5.836  19.163  0.00  0.00    +0.000 C 
ATOM     29  O   UNL     1       7.069   4.635  18.840  0.00  0.00    +0.000 OA
ENDBRANCH  22  29
ENDBRANCH  21  27
BRANCH  21  30
ATOM     30  N   UNL     1       4.157   2.646  18.896  0.00  0.00    +0.000 NA
ATOM     31  C   UNL     1       4.049   2.494  20.350  0.00  0.00    +0.000 C 
ATOM     32  C   UNL     1       3.202   1.752  18.244  0.00  0.00    +0.000 C 
ENDBRANCH  21  30
ENDBRANCH  20  21
ENDBRANCH   1  20
TORSDOF 8
ENDMDL
MODEL 3
REMARK VINA RESULT:      -7.9      1.749      2.346
REMARK  Name = 
REMARK  11 active torsions:
REMARK  status: ('A' for Active; 'I' for Inactive)
REMARK    1  A    between atoms: C_1  and  O_2
REMARK    2  A    between atoms: O_2  and  C_3
REMARK    3  A    between atoms: C_8  and  C_9
REMARK    4  A    between atoms: C_9  and  C_10
REMARK    5  A    between atoms: C_9  and  N_29
REMARK    6  A    between atoms: C_10  and  N_11
REMARK    7  A    between atoms: C_12  and  C_14
REMARK    8  A    between atoms: C_17  and  S_18
REMARK    9  A    between atoms: S_18  and  N_21
REMARK   10  A    between atoms: N_29  and  C_30
REMARK   11  A    between atoms: N_29  and  C_31
REMARK                            x       y       z     vdW  Elec       q    Type
REMARK                         _______ _______ _______ _____ _____    ______ ____
ROOT
ATOM      1  N   UNL     1       2.087   6.038  18.455  0.00  0.00    +0.000 N 
ATOM      2  C   UNL     1       2.585   7.281  18.141  0.00  0.00    +0.000 C 
ATOM      3  O   UNL     1       3.481   7.481  17.330  0.00  0.00    +0.000 OA
ATOM      4  H   UNL     1       1.234   5.956  18.996  0.00  0.00    +0.000 HD
ENDROOT
BRANCH   2   5
ATOM      5  C   UNL     1       1.940   8.423  18.849  0.00  0.00    +0.000 A 
ATOM      6  C   UNL     1       1.752   9.651  18.196  0.00  0.00    +0.000 A 
ATOM      7  C   UNL     1       1.150  10.717  18.868  0.00  0.00    +0.000 A 
ATOM      8  C   UNL     1       0.702  10.552  20.183  0.00  0.00    +0.000 A 
ATOM      9  C   UNL     1       0.901   9.335  20.849  0.00  0.00    +0.000 A 
ATOM     10  C   UNL     1       1.506   8.267  20.170  0.00  0.00    +0.000 A 
BRANCH   8  11
ATOM     11  S   UNL     1      -0.011  11.956  21.038  0.00  0.00    +0.000 S 
ATOM     12  O   UNL     1       0.118  11.703  22.459  0.00  0.00    +0.000 OA
ATOM     13  O   UNL     1       0.562  13.139  20.447  0.00  0.00    +0.000 OA
BRANCH  11  14
ATOM     14  N   UNL     1      -1.677  11.911  20.627  0.00  0.00    +0.000 NA
ATOM     15  C   UNL     1      -2.578  12.668  21.536  0.00  0.00    +0.000 C 
ATOM     16  C   UNL     1      -4.049  12.452  21.196  0.00  0.00    +0.000 C 
ATOM     17  C   UNL     1      -4.323  12.729  19.726  0.00  0.00    +0.000 C 
ATOM     18  C   UNL     1      -3.451  11.819  18.876  0.00  0.00    +0.000 C 
ATOM     19  C   UNL     1      -1.970  12.023  19.178  0.00  0.00    +0.000 C 
ENDBRANCH  11  14
ENDBRANCH   8  11
ENDBRANCH   2   5
BRANCH   1  20
ATOM     20  C   UNL     1       2.623   4.817  17.881  0.00  0.00    +0.000 C 
BRANCH  20  21
ATOM     21  C   UNL     1       3.944   4.314  18.561  0.00  0.00    +0.000 C 
BRANCH  21  27
ATOM     22  C   UNL     1       6.461   4.570  17.801  0.00  0.00    +0.000 A 
ATOM     23  C   UNL     1       7.387   4.636  16.740  0.00  0.00    +0.000 A 
ATOM     24  C   UNL     1       6.986   4.526  15.410  0.00  0.00    +0.000 A 
ATOM     25  C   UNL     1       5.645   4.365  15.112  0.00  0.00    +0.000 A 
ATOM     26  C   UNL     1       4.711   4.318  16.143  0.00  0.00    +0.000 A 
ATOM     27  C   UNL     1       5.086   4.395  17.507  0.00  0.00    +0.000 A 
BRANCH  22  29
ATOM     28  C   UNL     1       7.794   5.773  19.374  0.00  0.00    +0.000 C 
ATOM     29  O   UNL     1       6.849   4.720  19.117  0.00  0.00    +0.000 OA
ENDBRANCH  22  29
ENDBRANCH  21  27
BRANCH  21  30
ATOM     30  N   UNL     1       3.815   2.913  19.095  0.00  0.00    +0.000 NA
ATOM     31  C   UNL     1       3.193   2.856  20.421  0.00  0.00    +0.000 C 
ATOM     32  C   UNL     1       3.184   1.927  18.221  0.00  0.00    +0.000 C 
ENDBRANCH  21  30
ENDBRANCH  20  21
ENDBRANCH   1  20
TORSDOF 8
ENDMDL
MODEL 4
REMARK VINA RESULT:      -7.8      1.184      1.510
REMARK  Name = 
REMARK  11 active torsions:
REMARK  status: ('A' for Active; 'I' for Inactive)
REMARK    1  A    between atoms: C_1  and  O_2
REMARK    2  A    between atoms: O_2  and  C_3
REMARK    3  A    between atoms: C_8  and  C_9
REMARK    4  A    between atoms: C_9  and  C_10
REMARK    5  A    between atoms: C_9  and  N_29
REMARK    6  A    between atoms: C_10  and  N_11
REMARK    7  A    between atoms: C_12  and  C_14
REMARK    8  A    between atoms: C_17  and  S_18
REMARK    9  A    between atoms: S_18  and  N_21
REMARK   10  A    between atoms: N_29  and  C_30
REMARK   11  A    between atoms: N_29  and  C_31
REMARK                            x       y       z     vdW  Elec       q    Type
REMARK                         _______ _______ _______ _____ _____    ______ ____
ROOT
ATOM      1  N   UNL     1       2.345   5.839  18.261  0.00  0.00    +0.000 N 
ATOM      2  C   UNL     1       2.152   6.200  19.574  0.00  0.00    +0.000 C 
ATOM      3  O   UNL     1       2.309   5.446  20.527  0.00  0.00    +0.000 OA
ATOM      4  H   UNL     1       2.370   6.550  17.539  0.00  0.00    +0.000 HD
ENDROOT
BRANCH   2   5
ATOM      5  C   UNL     1       1.747   7.617  19.792  0.00  0.00    +0.000 A 
ATOM      6  C   UNL     1       1.332   8.051  21.061  0.00  0.00    +0.000 A 
ATOM      7  C   UNL     1       0.950   9.381  21.256  0.00  0.00    +0.000 A 
ATOM      8  C   UNL     1       1.013  10.290  20.195  0.00  0.00    +0.000 A 
ATOM      9  C   UNL     1       1.409   9.861  18.920  0.00  0.00    +0.000 A 
ATOM     10  C   UNL     1       1.792   8.525  18.730  0.00  0.00    +0.000 A 
BRANCH   8  11
ATOM     11  S   UNL     1       0.459  11.973  20.462  0.00  0.00    +0.000 S 
ATOM     12  O   UNL     1      -0.674  12.195  19.585  0.00  0.00    +0.000 OA
ATOM     13  O   UNL     1       0.332  12.150  21.886  0.00  0.00    +0.000 OA
BRANCH  11  14
ATOM     14  N   UNL     1       1.764  12.948  19.920  0.00  0.00    +0.000 NA
ATOM     15  C   UNL     1       1.614  13.510  18.551  0.00  0.00    +0.000 C 
ATOM     16  C   UNL     1       2.875  14.231  18.086  0.00  0.00    +0.000 C 
ATOM     17  C   UNL     1       3.328  15.265  19.104  0.00  0.00    +0.000 C 
ATOM     18  C   UNL     1       3.581  14.577  20.435  0.00  0.00    +0.000 C 
ATOM     19  C   UNL     1       2.333  13.860  20.941  0.00  0.00    +0.000 C 
ENDBRANCH  11  14
ENDBRANCH   8  11
ENDBRANCH   2   5
BRANCH   1  20
ATOM     20  C   UNL     1       2.709   4.489  17.869  0.00  0.00    +0.000 C 
BRANCH  20  21
ATOM     21  C   UNL     1       4.080   4.000  18.452  0.00  0.00    +0.000 C 
BRANCH  21  27
ATOM     22  C   UNL     1       6.520   4.603  17.638  0.00  0.00    +0.000 A 
ATOM     23  C   UNL     1       7.403   4.804  16.558  0.00  0.00    +0.000 A 
ATOM     24  C   UNL     1       6.988   4.652  15.236  0.00  0.00    +0.000 A 
ATOM     25  C   UNL     1       5.674   4.312  14.966  0.00  0.00    +0.000 A 
ATOM     26  C   UNL     1       4.781   4.130  16.018  0.00  0.00    +0.000 A 
ATOM     27  C   UNL     1       5.175   4.245  17.374  0.00  0.00    +0.000 A 
BRANCH  22  29
ATOM     28  C   UNL     1       7.894   5.825  19.162  0.00  0.00    +0.000 C 
ATOM     29  O   UNL     1       6.916   4.792  18.947  0.00  0.00    +0.000 OA
ENDBRANCH  22  29
ENDBRANCH  21  27
BRANCH  21  30
ATOM     30  N   UNL     1       4.046   2.549  18.853  0.00  0.00    +0.000 NA
ATOM     31  C   UNL     1       4.286   2.339  20.282  0.00  0.00    +0.000 C 
ATOM     32  C   UNL     1       2.878   1.776  18.439  0.00  0.00    +0.000 C 
ENDBRANCH  21  30
ENDBRANCH  20  21
ENDBRANCH   1  20
TORSDOF 8
ENDMDL
MODEL 5
REMARK VINA RESULT:      -7.8      1.379      1.543
REMARK  Name = 
REMARK  11 active torsions:
REMARK  status: ('A' for Active; 'I' for Inactive)
REMARK    1  A    between atoms: C_1  and  O_2
REMARK    2  A    between atoms: O_2  and  C_3
REMARK    3  A    between atoms: C_8  and  C_9
REMARK    4  A    between atoms: C_9  and  C_10
REMARK    5  A    between atoms: C_9  and  N_29
REMARK    6  A    between atoms: C_10  and  N_11
REMARK    7  A    between atoms: C_12  and  C_14
REMARK    8  A    between atoms: C_17  and  S_18
REMARK    9  A    between atoms: S_18  and  N_21
REMARK   10  A    between atoms: N_29  and  C_30
REMARK   11  A    between atoms: N_29  and  C_31
REMARK                            x       y       z     vdW  Elec       q    Type
REMARK                         _______ _______ _______ _____ _____    ______ ____
ROOT
ATOM      1  N   UNL     1       2.425   5.900  18.135  0.00  0.00    +0.000 N 
ATOM      2  C   UNL     1       2.191   6.400  19.395  0.00  0.00    +0.000 C 
ATOM      3  O   UNL     1       2.311   5.751  20.428  0.00  0.00    +0.000 OA
ATOM      4  H   UNL     1       2.480   6.530  17.343  0.00  0.00    +0.000 HD
ENDROOT
BRANCH   2   5
ATOM      5  C   UNL     1       1.789   7.834  19.447  0.00  0.00    +0.000 A 
ATOM      6  C   UNL     1       1.867   8.636  18.298  0.00  0.00    +0.000 A 
ATOM      7  C   UNL     1       1.492   9.981  18.355  0.00  0.00    +0.000 A 
ATOM      8  C   UNL     1       1.006  10.521  19.551  0.00  0.00    +0.000 A 
ATOM      9  C   UNL     1       0.942   9.732  20.708  0.00  0.00    +0.000 A 
ATOM     10  C   UNL     1       1.319   8.382  20.644  0.00  0.00    +0.000 A 
BRANCH   8  11
ATOM     11  S   UNL     1       0.591  12.263  19.609  0.00  0.00    +0.000 S 
ATOM     12  O   UNL     1      -0.116  12.576  18.383  0.00  0.00    +0.000 OA
ATOM     13  O   UNL     1      -0.018  12.505  20.891  0.00  0.00    +0.000 OA
BRANCH  11  14
ATOM     14  N   UNL     1       2.108  13.068  19.582  0.00  0.00    +0.000 NA
ATOM     15  C   UNL     1       2.460  13.720  18.292  0.00  0.00    +0.000 C 
ATOM     16  C   UNL     1       3.880  14.276  18.301  0.00  0.00    +0.000 C 
ATOM     17  C   UNL     1       4.115  15.176  19.503  0.00  0.00    +0.000 C 
ATOM     18  C   UNL     1       3.856  14.387  20.775  0.00  0.00    +0.000 C 
ATOM     19  C   UNL     1       2.436  13.831  20.810  0.00  0.00    +0.000 C 
ENDBRANCH  11  14
ENDBRANCH   8  11
ENDBRANCH   2   5
BRANCH   1  20
ATOM     20  C   UNL     1       2.793   4.515  17.902  0.00  0.00    +0.000 C 
BRANCH  20  21
ATOM     21  C   UNL     1       4.202   4.121  18.467  0.00  0.00    +0.000 C 
BRANCH  21  27
ATOM     22  C   UNL     1       6.638   4.532  17.529  0.00  0.00    +0.000 A 
ATOM     23  C   UNL     1       7.469   4.721  16.406  0.00  0.00    +0.000 A 
ATOM     24  C   UNL     1       6.959   4.709  15.109  0.00  0.00    +0.000 A 
ATOM     25  C   UNL     1       5.603   4.525  14.908  0.00  0.00    +0.000 A 
ATOM     26  C   UNL     1       4.762   4.357  16.004  0.00  0.00    +0.000 A 
ATOM     27  C   UNL     1       5.249   4.333  17.334  0.00  0.00    +0.000 A 
BRANCH  22  29
ATOM     28  C   UNL     1       7.814   5.797  19.176  0.00  0.00    +0.000 C 
ATOM     29  O   UNL     1       7.131   4.584  18.817  0.00  0.00    +0.000 OA
ENDBRANCH  22  29
ENDBRANCH  21  27
BRANCH  21  30
ATOM     30  N   UNL     1       4.242   2.703  18.967  0.00  0.00    +0.000 NA
ATOM     31  C   UNL     1       3.949   2.586  20.398  0.00  0.00    +0.000 C 
ATOM     32  C   UNL     1       3.452   1.719  18.229  0.00  0.00    +0.000 C 
ENDBRANCH  21  30
ENDBRANCH  20  21
ENDBRANCH   1  20
TORSDOF 8
ENDMDL
MODEL 6
REMARK VINA RESULT:      -7.7      1.887      2.571
REMARK  Name = 
REMARK  11 active torsions:
REMARK  status: ('A' for Active; 'I' for Inactive)
REMARK    1  A    between atoms: C_1  and  O_2
REMARK    2  A    between atoms: O_2  and  C_3
REMARK    3  A    between atoms: C_8  and  C_9
REMARK    4  A    between atoms: C_9  and  C_10
REMARK    5  A    between atoms: C_9  and  N_29
REMARK    6  A    between atoms: C_10  and  N_11
REMARK    7  A    between atoms: C_12  and  C_14
REMARK    8  A    between atoms: C_17  and  S_18
REMARK    9  A    between atoms: S_18  and  N_21
REMARK   10  A    between atoms: N_29  and  C_30
REMARK   11  A    between atoms: N_29  and  C_31
REMARK                            x       y       z     vdW  Elec       q    Type
REMARK                         _______ _______ _______ _____ _____    ______ ____
ROOT
ATOM      1  N   UNL     1       2.370   5.859  18.113  0.00  0.00    +0.000 N 
ATOM      2  C   UNL     1       2.087   6.393  19.349  0.00  0.00    +0.000 C 
ATOM      3  O   UNL     1       2.097   5.755  20.395  0.00  0.00    +0.000 OA
ATOM      4  H   UNL     1       2.517   6.471  17.319  0.00  0.00    +0.000 HD
ENDROOT
BRANCH   2   5
ATOM      5  C   UNL     1       1.777   7.851  19.357  0.00  0.00    +0.000 A 
ATOM      6  C   UNL     1       1.243   8.458  20.505  0.00  0.00    +0.000 A 
ATOM      7  C   UNL     1       0.952   9.824  20.503  0.00  0.00    +0.000 A 
ATOM      8  C   UNL     1       1.223  10.596  19.368  0.00  0.00    +0.000 A 
ATOM      9  C   UNL     1       1.739   9.995  18.212  0.00  0.00    +0.000 A 
ATOM     10  C   UNL     1       2.031   8.622  18.219  0.00  0.00    +0.000 A 
BRANCH   8  11
ATOM     11  S   UNL     1       0.781  12.332  19.376  0.00  0.00    +0.000 S 
ATOM     12  O   UNL     1       1.000  12.825  20.722  0.00  0.00    +0.000 OA
ATOM     13  O   UNL     1       1.450  12.938  18.254  0.00  0.00    +0.000 OA
BRANCH  11  14
ATOM     14  N   UNL     1      -0.907  12.348  19.059  0.00  0.00    +0.000 NA
ATOM     15  C   UNL     1      -1.361  11.430  17.981  0.00  0.00    +0.000 C 
ATOM     16  C   UNL     1      -2.839  11.615  17.655  0.00  0.00    +0.000 C 
ATOM     17  C   UNL     1      -3.697  11.528  18.907  0.00  0.00    +0.000 C 
ATOM     18  C   UNL     1      -3.243  12.588  19.897  0.00  0.00    +0.000 C 
ATOM     19  C   UNL     1      -1.771  12.420  20.261  0.00  0.00    +0.000 C 
ENDBRANCH  11  14
ENDBRANCH   8  11
ENDBRANCH   2   5
BRANCH   1  20
ATOM     20  C   UNL     1       2.661   4.450  17.922  0.00  0.00    +0.000 C 
BRANCH  20  21
ATOM     21  C   UNL     1       4.029   3.988  18.532  0.00  0.00    +0.000 C 
BRANCH  21  27
ATOM     22  C   UNL     1       6.471   4.636  17.759  0.00  0.00    +0.000 A 
ATOM     23  C   UNL     1       7.369   4.846  16.693  0.00  0.00    +0.000 A 
ATOM     24  C   UNL     1       6.983   4.672  15.365  0.00  0.00    +0.000 A 
ATOM     25  C   UNL     1       5.683   4.301  15.074  0.00  0.00    +0.000 A 
ATOM     26  C   UNL     1       4.774   4.110  16.110  0.00  0.00    +0.000 A 
ATOM     27  C   UNL     1       5.139   4.247  17.472  0.00  0.00    +0.000 A 
BRANCH  22  29
ATOM     28  C   UNL     1       7.877   5.818  19.284  0.00  0.00    +0.000 C 
ATOM     29  O   UNL     1       6.837   4.847  19.073  0.00  0.00    +0.000 OA
ENDBRANCH  22  29
ENDBRANCH  21  27
BRANCH  21  30
ATOM     30  N   UNL     1       4.014   2.540  18.940  0.00  0.00    +0.000 NA
ATOM     31  C   UNL     1       4.355   2.333  20.350  0.00  0.00    +0.000 C 
ATOM     32  C   UNL     1       2.812   1.773  18.616  0.00  0.00    +0.000 C 
ENDBRANCH  21  30
ENDBRANCH  20  21
ENDBRANCH   1  20
TORSDOF 8
ENDMDL
MODEL 7
REMARK VINA RESULT:      -7.6      1.735      2.439
REMARK  Name = 
REMARK  11 active torsions:
REMARK  status: ('A' for Active; 'I' for Inactive)
REMARK    1  A    between atoms: C_1  and  O_2
REMARK    2  A    between atoms: O_2  and  C_3
REMARK    3  A    between atoms: C_8  and  C_9
REMARK    4  A    between atoms: C_9  and  C_10
REMARK    5  A    between atoms: C_9  and  N_29
REMARK    6  A    between atoms: C_10  and  N_11
REMARK    7  A    between atoms: C_12  and  C_14
REMARK    8  A    between atoms: C_17  and  S_18
REMARK    9  A    between atoms: S_18  and  N_21
REMARK   10  A    between atoms: N_29  and  C_30
REMARK   11  A    between atoms: N_29  and  C_31
REMARK                            x       y       z     vdW  Elec       q    Type
REMARK                         _______ _______ _______ _____ _____    ______ ____
ROOT
ATOM      1  N   UNL     1       2.333   5.961  18.230  0.00  0.00    +0.000 N 
ATOM      2  C   UNL     1       2.054   6.487  19.470  0.00  0.00    +0.000 C 
ATOM      3  O   UNL     1       2.072   5.841  20.512  0.00  0.00    +0.000 OA
ATOM      4  H   UNL     1       2.474   6.579  17.439  0.00  0.00    +0.000 HD
ENDROOT
BRANCH   2   5
ATOM      5  C   UNL     1       1.740   7.943  19.489  0.00  0.00    +0.000 A 
ATOM      6  C   UNL     1       1.227   8.544  20.649  0.00  0.00    +0.000 A 
ATOM      7  C   UNL     1       0.930   9.909  20.658  0.00  0.00    +0.000 A 
ATOM      8  C   UNL     1       1.176  10.686  19.521  0.00  0.00    +0.000 A 
ATOM      9  C   UNL     1       1.671  10.091  18.353  0.00  0.00    +0.000 A 
ATOM     10  C   UNL     1       1.968   8.719  18.349  0.00  0.00    +0.000 A 
BRANCH   8  11
ATOM     11  S   UNL     1       0.728  12.421  19.543  0.00  0.00    +0.000 S 
ATOM     12  O   UNL     1       1.910  13.164  19.933  0.00  0.00    +0.000 OA
ATOM     13  O   UNL     1       0.065  12.697  18.295  0.00  0.00    +0.000 OA
BRANCH  11  14
ATOM     14  N   UNL     1      -0.434  12.549  20.801  0.00  0.00    +0.000 NA
ATOM     15  C   UNL     1      -0.104  13.523  21.876  0.00  0.00    +0.000 C 
ATOM     16  C   UNL     1      -1.104  13.465  23.027  0.00  0.00    +0.000 C 
ATOM     17  C   UNL     1      -2.533  13.599  22.526  0.00  0.00    +0.000 C 
ATOM     18  C   UNL     1      -2.818  12.486  21.530  0.00  0.00    +0.000 C 
ATOM     19  C   UNL     1      -1.848  12.525  20.354  0.00  0.00    +0.000 C 
ENDBRANCH  11  14
ENDBRANCH   8  11
ENDBRANCH   2   5
BRANCH   1  20
ATOM     20  C   UNL     1       2.627   4.554  18.027  0.00  0.00    +0.000 C 
BRANCH  20  21
ATOM     21  C   UNL     1       4.000   4.093  18.629  0.00  0.00    +0.000 C 
BRANCH  21  27
ATOM     22  C   UNL     1       6.432   4.713  17.804  0.00  0.00    +0.000 A 
ATOM     23  C   UNL     1       7.318   4.886  16.722  0.00  0.00    +0.000 A 
ATOM     24  C   UNL     1       6.915   4.668  15.405  0.00  0.00    +0.000 A 
ATOM     25  C   UNL     1       5.611   4.288  15.142  0.00  0.00    +0.000 A 
ATOM     26  C   UNL     1       4.715   4.132  16.195  0.00  0.00    +0.000 A 
ATOM     27  C   UNL     1       5.097   4.315  17.547  0.00  0.00    +0.000 A 
BRANCH  22  29
ATOM     28  C   UNL     1       7.958   5.825  19.265  0.00  0.00    +0.000 C 
ATOM     29  O   UNL     1       6.814   4.968  19.106  0.00  0.00    +0.000 OA
ENDBRANCH  22  29
ENDBRANCH  21  27
BRANCH  21  30
ATOM     30  N   UNL     1       3.976   2.655  19.071  0.00  0.00    +0.000 NA
ATOM     31  C   UNL     1       3.943   2.499  20.528  0.00  0.00    +0.000 C 
ATOM     32  C   UNL     1       2.959   1.794  18.469  0.00  0.00    +0.000 C 
ENDBRANCH  21  30
ENDBRANCH  20  21
ENDBRANCH   1  20
TORSDOF 8
ENDMDL
MODEL 8
REMARK VINA RESULT:      -7.6      2.952      9.912
REMARK  Name = 
REMARK  11 active torsions:
REMARK  status: ('A' for Active; 'I' for Inactive)
REMARK    1  A    between atoms: C_1  and  O_2
REMARK    2  A    between atoms: O_2  and  C_3
REMARK    3  A    between atoms: C_8  and  C_9
REMARK    4  A    between atoms: C_9  and  C_10
REMARK    5  A    between atoms: C_9  and  N_29
REMARK    6  A    between atoms: C_10  and  N_11
REMARK    7  A    between atoms: C_12  and  C_14
REMARK    8  A    between atoms: C_17  and  S_18
REMARK    9  A    between atoms: S_18  and  N_21
REMARK   10  A    between atoms: N_29  and  C_30
REMARK   11  A    between atoms: N_29  and  C_31
REMARK                            x       y       z     vdW  Elec       q    Type
REMARK                         _______ _______ _______ _____ _____    ______ ____
ROOT
ATOM      1  N   UNL     1       1.232  11.577  19.372  0.00  0.00    +0.000 N 
ATOM      2  C   UNL     1       0.548  10.393  19.227  0.00  0.00    +0.000 C 
ATOM      3  O   UNL     1      -0.674  10.297  19.228  0.00  0.00    +0.000 OA
ATOM      4  H   UNL     1       2.228  11.612  19.187  0.00  0.00    +0.000 HD
ENDROOT
BRANCH   2   5
ATOM      5  C   UNL     1       1.399   9.184  19.038  0.00  0.00    +0.000 A 
ATOM      6  C   UNL     1       2.098   8.987  17.837  0.00  0.00    +0.000 A 
ATOM      7  C   UNL     1       2.891   7.850  17.667  0.00  0.00    +0.000 A 
ATOM      8  C   UNL     1       3.016   6.922  18.706  0.00  0.00    +0.000 A 
ATOM      9  C   UNL     1       2.307   7.101  19.902  0.00  0.00    +0.000 A 
ATOM     10  C   UNL     1       1.512   8.246  20.068  0.00  0.00    +0.000 A 
BRANCH   8  11
ATOM     11  S   UNL     1       3.991   5.443  18.434  0.00  0.00    +0.000 S 
ATOM     12  O   UNL     1       4.183   5.313  17.004  0.00  0.00    +0.000 OA
ATOM     13  O   UNL     1       5.121   5.519  19.324  0.00  0.00    +0.000 OA
BRANCH  11  14
ATOM     14  N   UNL     1       2.982   4.159  18.966  0.00  0.00    +0.000 NA
ATOM     15  C   UNL     1       2.943   3.948  20.438  0.00  0.00    +0.000 C 
ATOM     16  C   UNL     1       2.154   2.699  20.817  0.00  0.00    +0.000 C 
ATOM     17  C   UNL     1       0.772   2.705  20.183  0.00  0.00    +0.000 C 
ATOM     18  C   UNL     1       0.917   2.793  18.673  0.00  0.00    +0.000 C 
ATOM     19  C   UNL     1       1.686   4.042  18.256  0.00  0.00    +0.000 C 
ENDBRANCH  11  14
ENDBRANCH   8  11
ENDBRANCH   2   5
BRANCH   1  20
ATOM     20  C   UNL     1       0.559  12.843  19.597  0.00  0.00    +0.000 C 
BRANCH  20  21
ATOM     21  C   UNL     1       0.705  13.397  21.057  0.00  0.00    +0.000 C 
BRANCH  21  27
ATOM     22  C   UNL     1      -0.744  11.760  22.540  0.00  0.00    +0.000 A 
ATOM     23  C   UNL     1      -1.957  11.518  23.215  0.00  0.00    +0.000 A 
ATOM     24  C   UNL     1      -2.984  12.461  23.233  0.00  0.00    +0.000 A 
ATOM     25  C   UNL     1      -2.826  13.658  22.560  0.00  0.00    +0.000 A 
ATOM     26  C   UNL     1      -1.644  13.907  21.869  0.00  0.00    +0.000 A 
ATOM     27  C   UNL     1      -0.567  12.987  21.855  0.00  0.00    +0.000 A 
BRANCH  22  29
ATOM     28  C   UNL     1      -0.049   9.539  23.076  0.00  0.00    +0.000 C 
ATOM     29  O   UNL     1       0.260  10.814  22.485  0.00  0.00    +0.000 OA
ENDBRANCH  22  29
ENDBRANCH  21  27
BRANCH  21  30
ATOM     30  N   UNL     1       0.890  14.890  21.086  0.00  0.00    +0.000 NA
ATOM     31  C   UNL     1       1.966  15.322  21.981  0.00  0.00    +0.000 C 
ATOM     32  C   UNL     1       1.032  15.565  19.798  0.00  0.00    +0.000 C 
ENDBRANCH  21  30
ENDBRANCH  20  21
ENDBRANCH   1  20
TORSDOF 8
ENDMDL
MODEL 9
REMARK VINA RESULT:      -7.5      2.922      9.565
REMARK  Name = 
REMARK  11 active torsions:
REMARK  status: ('A' for Active; 'I' for Inactive)
REMARK    1  A    between atoms: C_1  and  O_2
REMARK    2  A    between atoms: O_2  and  C_3
REMARK    3  A    between atoms: C_8  and  C_9
REMARK    4  A    between atoms: C_9  and  C_10
REMARK    5  A    between atoms: C_9  and  N_29
REMARK    6  A    between atoms: C_10  and  N_11
REMARK    7  A    between atoms: C_12  and  C_14
REMARK    8  A    between atoms: C_17  and  S_18
REMARK    9  A    between atoms: S_18  and  N_21
REMARK   10  A    between atoms: N_29  and  C_30
REMARK   11  A    between atoms: N_29  and  C_31
REMARK                            x       y       z     vdW  Elec       q    Type
REMARK                         _______ _______ _______ _____ _____    ______ ____
ROOT
ATOM      1  N   UNL     1       0.171   9.753  20.502  0.00  0.00    +0.000 N 
ATOM      2  C   UNL     1       1.018   8.938  21.216  0.00  0.00    +0.000 C 
ATOM      3  O   UNL     1       1.342   9.133  22.382  0.00  0.00    +0.000 OA
ATOM      4  H   UNL     1      -0.194   9.444  19.608  0.00  0.00    +0.000 HD
ENDROOT
BRANCH   2   5
ATOM      5  C   UNL     1       1.527   7.747  20.480  0.00  0.00    +0.000 A 
ATOM      6  C   UNL     1       2.095   7.888  19.205  0.00  0.00    +0.000 A 
ATOM      7  C   UNL     1       2.566   6.765  18.519  0.00  0.00    +0.000 A 
ATOM      8  C   UNL     1       2.503   5.503  19.118  0.00  0.00    +0.000 A 
ATOM      9  C   UNL     1       1.920   5.350  20.383  0.00  0.00    +0.000 A 
ATOM     10  C   UNL     1       1.449   6.480  21.068  0.00  0.00    +0.000 A 
BRANCH   8  11
ATOM     11  S   UNL     1       3.059   4.075  18.189  0.00  0.00    +0.000 S 
ATOM     12  O   UNL     1       3.308   3.013  19.143  0.00  0.00    +0.000 OA
ATOM     13  O   UNL     1       2.123   3.889  17.110  0.00  0.00    +0.000 OA
BRANCH  11  14
ATOM     14  N   UNL     1       4.560   4.560  17.511  0.00  0.00    +0.000 NA
ATOM     15  C   UNL     1       5.685   4.680  18.476  0.00  0.00    +0.000 C 
ATOM     16  C   UNL     1       6.937   5.262  17.827  0.00  0.00    +0.000 C 
ATOM     17  C   UNL     1       7.315   4.496  16.570  0.00  0.00    +0.000 C 
ATOM     18  C   UNL     1       6.153   4.536  15.592  0.00  0.00    +0.000 C 
ATOM     19  C   UNL     1       4.887   3.944  16.202  0.00  0.00    +0.000 C 
ENDBRANCH  11  14
ENDBRANCH   8  11
ENDBRANCH   2   5
BRANCH   1  20
ATOM     20  C   UNL     1      -0.389  10.972  21.056  0.00  0.00    +0.000 C 
BRANCH  20  21
ATOM     21  C   UNL     1      -0.746  12.060  19.985  0.00  0.00    +0.000 C 
BRANCH  21  27
ATOM     22  C   UNL     1      -3.079  11.640  18.818  0.00  0.00    +0.000 A 
ATOM     23  C   UNL     1      -3.810  10.967  17.819  0.00  0.00    +0.000 A 
ATOM     24  C   UNL     1      -3.196  10.081  16.934  0.00  0.00    +0.000 A 
ATOM     25  C   UNL     1      -1.839   9.837  17.043  0.00  0.00    +0.000 A 
ATOM     26  C   UNL     1      -1.103  10.476  18.036  0.00  0.00    +0.000 A 
ATOM     27  C   UNL     1      -1.687  11.405  18.932  0.00  0.00    +0.000 A 
BRANCH  22  29
ATOM     28  C   UNL     1      -5.127  12.435  19.755  0.00  0.00    +0.000 C 
ATOM     29  O   UNL     1      -3.690  12.486  19.722  0.00  0.00    +0.000 OA
ENDBRANCH  22  29
ENDBRANCH  21  27
BRANCH  21  30
ATOM     30  N   UNL     1       0.477  12.631  19.320  0.00  0.00    +0.000 NA
ATOM     31  C   UNL     1       0.215  13.884  18.607  0.00  0.00    +0.000 C 
ATOM     32  C   UNL     1       1.669  12.787  20.151  0.00  0.00    +0.000 C 
ENDBRANCH  21  30
ENDBRANCH  20  21
ENDBRANCH   1  20
TORSDOF 8
ENDMDL
