MODEL 1
REMARK VINA RESULT:      -9.8      0.000      0.000
REMARK  Name = 
REMARK  3 active torsions:
REMARK  status: ('A' for Active; 'I' for Inactive)
REMARK    1  A    between atoms: C_2  and  C_13
REMARK    2  A    between atoms: N_3  and  C_4
REMARK    3  A    between atoms: C_17  and  C_18
REMARK                            x       y       z     vdW  Elec       q    Type
REMARK                         _______ _______ _______ _____ _____    ______ ____
ROOT
ATOM      1  C   UNL     1       1.314   9.054  19.344  0.00  0.00    +0.000 A 
ATOM      2  C   UNL     1       0.415  10.063  18.982  0.00  0.00    +0.000 A 
ATOM      3  C   UNL     1      -0.336  10.716  19.961  0.00  0.00    +0.000 A 
ATOM      4  C   UNL     1      -0.173  10.352  21.312  0.00  0.00    +0.000 A 
ATOM      5  C   UNL     1      -0.710  10.770  22.555  0.00  0.00    +0.000 A 
ATOM      6  N   UNL     1      -0.190  10.095  23.592  0.00  0.00    +0.000 NA
ATOM      7  N   UNL     1       0.649   9.220  23.003  0.00  0.00    +0.000 N 
ATOM      8  C   UNL     1       0.717   9.335  21.640  0.00  0.00    +0.000 A 
ATOM      9  C   UNL     1       1.466   8.648  20.682  0.00  0.00    +0.000 A 
ATOM     10  H   UNL     1       1.160   8.569  23.591  0.00  0.00    +0.000 HD
ENDROOT
BRANCH   5  11
ATOM     11  C   UNL     1      -1.736  11.834  22.732  0.00  0.00    +0.000 A 
ATOM     12  N   UNL     1      -1.678  13.045  22.215  0.00  0.00    +0.000 NA
ATOM     13  C   UNL     1      -2.843  13.658  22.596  0.00  0.00    +0.000 A 
ATOM     14  C   UNL     1      -3.314  14.943  22.294  0.00  0.00    +0.000 A 
ATOM     15  C   UNL     1      -4.553  15.340  22.811  0.00  0.00    +0.000 A 
ATOM     16  C   UNL     1      -5.300  14.477  23.617  0.00  0.00    +0.000 A 
ATOM     17  C   UNL     1      -4.846  13.190  23.928  0.00  0.00    +0.000 A 
ATOM     18  C   UNL     1      -3.614  12.816  23.390  0.00  0.00    +0.000 A 
ATOM     19  N   UNL     1      -2.884  11.659  23.458  0.00  0.00    +0.000 N 
ATOM     20  H   UNL     1      -3.125  10.805  23.940  0.00  0.00    +0.000 HD
ENDBRANCH   5  11
BRANCH   1  22
ATOM     21  O   UNL     1       2.151   8.846  17.188  0.00  0.00    +0.000 OA
ATOM     22  C   UNL     1       2.134   8.369  18.316  0.00  0.00    +0.000 C 
ATOM     23  N   UNL     1       2.732   7.192  18.739  0.00  0.00    +0.000 N 
ATOM     24  H   UNL     1       2.444   6.829  19.639  0.00  0.00    +0.000 HD
BRANCH  23  25
ATOM     25  C   UNL     1       3.496   6.325  17.929  0.00  0.00    +0.000 A 
ATOM     26  C   UNL     1       3.128   4.996  17.702  0.00  0.00    +0.000 A 
ATOM     27  C   UNL     1       3.958   4.120  16.988  0.00  0.00    +0.000 A 
ATOM     28  C   UNL     1       5.177   4.600  16.499  0.00  0.00    +0.000 A 
ATOM     29  C   UNL     1       6.283   4.053  15.812  0.00  0.00    +0.000 A 
ATOM     30  N   UNL     1       7.234   4.958  15.564  0.00  0.00    +0.000 NA
ATOM     31  N   UNL     1       6.733   6.088  16.095  0.00  0.00    +0.000 N 
ATOM     32  C   UNL     1       5.505   5.939  16.683  0.00  0.00    +0.000 A 
ATOM     33  C   UNL     1       4.677   6.838  17.368  0.00  0.00    +0.000 A 
ATOM     34  H   UNL     1       7.295   6.930  16.038  0.00  0.00    +0.000 HD
ENDBRANCH  23  25
ENDBRANCH   1  22
TORSDOF 3
ENDMDL
MODEL 2
REMARK VINA RESULT:      -9.7      0.243      1.082
REMARK  Name = 
REMARK  3 active torsions:
REMARK  status: ('A' for Active; 'I' for Inactive)
REMARK    1  A    between atoms: C_2  and  C_13
REMARK    2  A    between atoms: N_3  and  C_4
REMARK    3  A    between atoms: C_17  and  C_18
REMARK                            x       y       z     vdW  Elec       q    Type
REMARK                         _______ _______ _______ _____ _____    ______ ____
ROOT
ATOM      1  C   UNL     1       1.327   9.078  19.358  0.00  0.00    +0.000 A 
ATOM      2  C   UNL     1       0.453  10.118  19.027  0.00  0.00    +0.000 A 
ATOM      3  C   UNL     1      -0.285  10.759  20.024  0.00  0.00    +0.000 A 
ATOM      4  C   UNL     1      -0.132  10.350  21.363  0.00  0.00    +0.000 A 
ATOM      5  C   UNL     1      -0.662  10.742  22.618  0.00  0.00    +0.000 A 
ATOM      6  N   UNL     1      -0.160  10.024  23.635  0.00  0.00    +0.000 NA
ATOM      7  N   UNL     1       0.658   9.147  23.020  0.00  0.00    +0.000 N 
ATOM      8  C   UNL     1       0.732   9.302  21.661  0.00  0.00    +0.000 A 
ATOM      9  C   UNL     1       1.466   8.627  20.683  0.00  0.00    +0.000 A 
ATOM     10  H   UNL     1       1.153   8.466  23.588  0.00  0.00    +0.000 HD
ENDROOT
BRANCH   5  11
ATOM     11  C   UNL     1      -1.662  11.824  22.827  0.00  0.00    +0.000 A 
ATOM     12  N   UNL     1      -2.844  11.674  23.393  0.00  0.00    +0.000 NA
ATOM     13  C   UNL     1      -3.397  12.927  23.415  0.00  0.00    +0.000 A 
ATOM     14  C   UNL     1      -4.629  13.348  23.935  0.00  0.00    +0.000 A 
ATOM     15  C   UNL     1      -4.970  14.702  23.833  0.00  0.00    +0.000 A 
ATOM     16  C   UNL     1      -4.106  15.612  23.218  0.00  0.00    +0.000 A 
ATOM     17  C   UNL     1      -2.872  15.210  22.693  0.00  0.00    +0.000 A 
ATOM     18  C   UNL     1      -2.552  13.857  22.819  0.00  0.00    +0.000 A 
ATOM     19  N   UNL     1      -1.452  13.126  22.456  0.00  0.00    +0.000 N 
ATOM     20  H   UNL     1      -0.613  13.457  22.004  0.00  0.00    +0.000 HD
ENDBRANCH   5  11
BRANCH   1  22
ATOM     21  O   UNL     1       2.101   8.873  17.179  0.00  0.00    +0.000 OA
ATOM     22  C   UNL     1       2.132   8.405  18.311  0.00  0.00    +0.000 C 
ATOM     23  N   UNL     1       2.773   7.248  18.724  0.00  0.00    +0.000 N 
ATOM     24  H   UNL     1       2.523   6.885  19.635  0.00  0.00    +0.000 HD
BRANCH  23  25
ATOM     25  C   UNL     1       3.534   6.394  17.897  0.00  0.00    +0.000 A 
ATOM     26  C   UNL     1       3.201   5.050  17.702  0.00  0.00    +0.000 A 
ATOM     27  C   UNL     1       4.032   4.192  16.969  0.00  0.00    +0.000 A 
ATOM     28  C   UNL     1       5.216   4.703  16.428  0.00  0.00    +0.000 A 
ATOM     29  C   UNL     1       6.312   4.181  15.708  0.00  0.00    +0.000 A 
ATOM     30  N   UNL     1       7.223   5.112  15.411  0.00  0.00    +0.000 NA
ATOM     31  N   UNL     1       6.707   6.234  15.946  0.00  0.00    +0.000 N 
ATOM     32  C   UNL     1       5.507   6.054  16.581  0.00  0.00    +0.000 A 
ATOM     33  C   UNL     1       4.676   6.936  17.285  0.00  0.00    +0.000 A 
ATOM     34  H   UNL     1       7.238   7.092  15.856  0.00  0.00    +0.000 HD
ENDBRANCH  23  25
ENDBRANCH   1  22
TORSDOF 3
ENDMDL
MODEL 3
REMARK VINA RESULT:      -9.0      1.667      2.347
REMARK  Name = 
REMARK  3 active torsions:
REMARK  status: ('A' for Active; 'I' for Inactive)
REMARK    1  A    between atoms: C_2  and  C_13
REMARK    2  A    between atoms: N_3  and  C_4
REMARK    3  A    between atoms: C_17  and  C_18
REMARK                            x       y       z     vdW  Elec       q    Type
REMARK                         _______ _______ _______ _____ _____    ______ ____
ROOT
ATOM      1  C   UNL     1       1.551   8.538  19.706  0.00  0.00    +0.000 A 
ATOM      2  C   UNL     1       1.191   8.731  21.044  0.00  0.00    +0.000 A 
ATOM      3  C   UNL     1       0.469   9.865  21.418  0.00  0.00    +0.000 A 
ATOM      4  C   UNL     1       0.102  10.804  20.435  0.00  0.00    +0.000 A 
ATOM      5  C   UNL     1      -0.619  12.024  20.404  0.00  0.00    +0.000 A 
ATOM      6  N   UNL     1      -0.710  12.537  19.168  0.00  0.00    +0.000 NA
ATOM      7  N   UNL     1      -0.010  11.662  18.418  0.00  0.00    +0.000 N 
ATOM      8  C   UNL     1       0.487  10.593  19.115  0.00  0.00    +0.000 A 
ATOM      9  C   UNL     1       1.229   9.480  18.713  0.00  0.00    +0.000 A 
ATOM     10  H   UNL     1       0.085  11.845  17.424  0.00  0.00    +0.000 HD
ENDROOT
BRANCH   5  11
ATOM     11  C   UNL     1      -1.224  12.693  21.589  0.00  0.00    +0.000 A 
ATOM     12  N   UNL     1      -2.424  12.446  22.076  0.00  0.00    +0.000 NA
ATOM     13  C   UNL     1      -2.539  13.249  23.180  0.00  0.00    +0.000 A 
ATOM     14  C   UNL     1      -3.597  13.364  24.092  0.00  0.00    +0.000 A 
ATOM     15  C   UNL     1      -3.470  14.269  25.153  0.00  0.00    +0.000 A 
ATOM     16  C   UNL     1      -2.319  15.048  25.294  0.00  0.00    +0.000 A 
ATOM     17  C   UNL     1      -1.252  14.947  24.393  0.00  0.00    +0.000 A 
ATOM     18  C   UNL     1      -1.399  14.028  23.353  0.00  0.00    +0.000 A 
ATOM     19  N   UNL     1      -0.577  13.650  22.325  0.00  0.00    +0.000 N 
ATOM     20  H   UNL     1       0.352  13.988  22.122  0.00  0.00    +0.000 HD
ENDBRANCH   5  11
BRANCH   1  22
ATOM     21  O   UNL     1       2.356   6.393  20.085  0.00  0.00    +0.000 OA
ATOM     22  C   UNL     1       2.298   7.326  19.293  0.00  0.00    +0.000 C 
ATOM     23  N   UNL     1       2.931   7.425  18.064  0.00  0.00    +0.000 N 
ATOM     24  H   UNL     1       2.958   8.340  17.634  0.00  0.00    +0.000 HD
BRANCH  23  25
ATOM     25  C   UNL     1       3.761   6.438  17.489  0.00  0.00    +0.000 A 
ATOM     26  C   UNL     1       3.420   5.082  17.485  0.00  0.00    +0.000 A 
ATOM     27  C   UNL     1       4.307   4.107  17.011  0.00  0.00    +0.000 A 
ATOM     28  C   UNL     1       5.559   4.512  16.536  0.00  0.00    +0.000 A 
ATOM     29  C   UNL     1       6.717   3.870  16.049  0.00  0.00    +0.000 A 
ATOM     30  N   UNL     1       7.680   4.731  15.710  0.00  0.00    +0.000 NA
ATOM     31  N   UNL     1       7.133   5.931  15.982  0.00  0.00    +0.000 N 
ATOM     32  C   UNL     1       5.864   5.868  16.493  0.00  0.00    +0.000 A 
ATOM     33  C   UNL     1       4.980   6.862  16.934  0.00  0.00    +0.000 A 
ATOM     34  H   UNL     1       7.693   6.759  15.813  0.00  0.00    +0.000 HD
ENDBRANCH  23  25
ENDBRANCH   1  22
TORSDOF 3
ENDMDL
MODEL 4
REMARK VINA RESULT:      -8.9      1.656      2.129
REMARK  Name = 
REMARK  3 active torsions:
REMARK  status: ('A' for Active; 'I' for Inactive)
REMARK    1  A    between atoms: C_2  and  C_13
REMARK    2  A    between atoms: N_3  and  C_4
REMARK    3  A    between atoms: C_17  and  C_18
REMARK                            x       y       z     vdW  Elec       q    Type
REMARK                         _______ _______ _______ _____ _____    ______ ____
ROOT
ATOM      1  C   UNL     1       1.612   8.509  19.762  0.00  0.00    +0.000 A 
ATOM      2  C   UNL     1       1.246   8.667  21.103  0.00  0.00    +0.000 A 
ATOM      3  C   UNL     1       0.547   9.805  21.509  0.00  0.00    +0.000 A 
ATOM      4  C   UNL     1       0.210  10.783  20.554  0.00  0.00    +0.000 A 
ATOM      5  C   UNL     1      -0.483  12.020  20.558  0.00  0.00    +0.000 A 
ATOM      6  N   UNL     1      -0.551  12.575  19.338  0.00  0.00    +0.000 NA
ATOM      7  N   UNL     1       0.134  11.709  18.565  0.00  0.00    +0.000 N 
ATOM      8  C   UNL     1       0.601  10.607  19.230  0.00  0.00    +0.000 A 
ATOM      9  C   UNL     1       1.321   9.490  18.798  0.00  0.00    +0.000 A 
ATOM     10  H   UNL     1       0.242  11.922  17.578  0.00  0.00    +0.000 HD
ENDROOT
BRANCH   5  11
ATOM     11  C   UNL     1      -1.082  12.664  21.759  0.00  0.00    +0.000 A 
ATOM     12  N   UNL     1      -0.529  13.632  22.463  0.00  0.00    +0.000 NA
ATOM     13  C   UNL     1      -1.444  13.941  23.435  0.00  0.00    +0.000 A 
ATOM     14  C   UNL     1      -1.384  14.921  24.436  0.00  0.00    +0.000 A 
ATOM     15  C   UNL     1      -2.463  15.041  25.319  0.00  0.00    +0.000 A 
ATOM     16  C   UNL     1      -3.571  14.196  25.213  0.00  0.00    +0.000 A 
ATOM     17  C   UNL     1      -3.648  13.212  24.220  0.00  0.00    +0.000 A 
ATOM     18  C   UNL     1      -2.565  13.123  23.344  0.00  0.00    +0.000 A 
ATOM     19  N   UNL     1      -2.307  12.320  22.265  0.00  0.00    +0.000 N 
ATOM     20  H   UNL     1      -2.898  11.599  21.877  0.00  0.00    +0.000 HD
ENDBRANCH   5  11
BRANCH   1  22
ATOM     21  O   UNL     1       2.359   6.332  20.073  0.00  0.00    +0.000 OA
ATOM     22  C   UNL     1       2.335   7.294  19.315  0.00  0.00    +0.000 C 
ATOM     23  N   UNL     1       2.987   7.421  18.098  0.00  0.00    +0.000 N 
ATOM     24  H   UNL     1       3.042   8.350  17.702  0.00  0.00    +0.000 HD
BRANCH  23  25
ATOM     25  C   UNL     1       3.800   6.435  17.499  0.00  0.00    +0.000 A 
ATOM     26  C   UNL     1       3.447   5.082  17.483  0.00  0.00    +0.000 A 
ATOM     27  C   UNL     1       4.319   4.105  16.984  0.00  0.00    +0.000 A 
ATOM     28  C   UNL     1       5.567   4.506  16.496  0.00  0.00    +0.000 A 
ATOM     29  C   UNL     1       6.714   3.860  15.984  0.00  0.00    +0.000 A 
ATOM     30  N   UNL     1       7.678   4.718  15.643  0.00  0.00    +0.000 NA
ATOM     31  N   UNL     1       7.146   5.919  15.938  0.00  0.00    +0.000 N 
ATOM     32  C   UNL     1       5.883   5.860  16.466  0.00  0.00    +0.000 A 
ATOM     33  C   UNL     1       5.014   6.856  16.932  0.00  0.00    +0.000 A 
ATOM     34  H   UNL     1       7.711   6.744  15.771  0.00  0.00    +0.000 HD
ENDBRANCH  23  25
ENDBRANCH   1  22
TORSDOF 3
ENDMDL
MODEL 5
REMARK VINA RESULT:      -8.9      2.276     11.244
REMARK  Name = 
REMARK  3 active torsions:
REMARK  status: ('A' for Active; 'I' for Inactive)
REMARK    1  A    between atoms: C_2  and  C_13
REMARK    2  A    between atoms: N_3  and  C_4
REMARK    3  A    between atoms: C_17  and  C_18
REMARK                            x       y       z     vdW  Elec       q    Type
REMARK                         _______ _______ _______ _____ _____    ______ ____
ROOT
ATOM      1  C   UNL     1       2.178   7.666  19.453  0.00  0.00    +0.000 A 
ATOM      2  C   UNL     1       2.562   8.050  18.164  0.00  0.00    +0.000 A 
ATOM      3  C   UNL     1       3.403   7.230  17.410  0.00  0.00    +0.000 A 
ATOM      4  C   UNL     1       3.853   6.014  17.958  0.00  0.00    +0.000 A 
ATOM      5  C   UNL     1       4.667   4.936  17.527  0.00  0.00    +0.000 A 
ATOM      6  N   UNL     1       4.773   3.970  18.452  0.00  0.00    +0.000 NA
ATOM      7  N   UNL     1       4.058   4.453  19.488  0.00  0.00    +0.000 N 
ATOM      8  C   UNL     1       3.468   5.665  19.249  0.00  0.00    +0.000 A 
ATOM      9  C   UNL     1       2.645   6.474  20.036  0.00  0.00    +0.000 A 
ATOM     10  H   UNL     1       4.001   3.898  20.336  0.00  0.00    +0.000 HD
ENDROOT
BRANCH   5  11
ATOM     11  C   UNL     1       5.344   4.849  16.205  0.00  0.00    +0.000 A 
ATOM     12  N   UNL     1       6.371   5.583  15.822  0.00  0.00    +0.000 NA
ATOM     13  C   UNL     1       6.689   5.135  14.567  0.00  0.00    +0.000 A 
ATOM     14  C   UNL     1       7.721   5.543  13.710  0.00  0.00    +0.000 A 
ATOM     15  C   UNL     1       7.839   4.921  12.462  0.00  0.00    +0.000 A 
ATOM     16  C   UNL     1       6.941   3.922  12.074  0.00  0.00    +0.000 A 
ATOM     17  C   UNL     1       5.906   3.502  12.916  0.00  0.00    +0.000 A 
ATOM     18  C   UNL     1       5.819   4.129  14.160  0.00  0.00    +0.000 A 
ATOM     19  N   UNL     1       4.974   3.967  15.225  0.00  0.00    +0.000 N 
ATOM     20  H   UNL     1       4.209   3.313  15.312  0.00  0.00    +0.000 HD
ENDBRANCH   5  11
BRANCH   1  22
ATOM     21  O   UNL     1       0.839   8.061  21.308  0.00  0.00    +0.000 OA
ATOM     22  C   UNL     1       1.267   8.517  20.255  0.00  0.00    +0.000 C 
ATOM     23  N   UNL     1       0.931   9.725  19.664  0.00  0.00    +0.000 N 
ATOM     24  H   UNL     1       1.202   9.855  18.699  0.00  0.00    +0.000 HD
BRANCH  23  25
ATOM     25  C   UNL     1       0.025  10.670  20.193  0.00  0.00    +0.000 A 
ATOM     26  C   UNL     1       0.119  11.144  21.505  0.00  0.00    +0.000 A 
ATOM     27  C   UNL     1      -0.855  11.995  22.045  0.00  0.00    +0.000 A 
ATOM     28  C   UNL     1      -1.939  12.368  21.245  0.00  0.00    +0.000 A 
ATOM     29  C   UNL     1      -3.116  13.127  21.419  0.00  0.00    +0.000 A 
ATOM     30  N   UNL     1      -3.857  13.191  20.309  0.00  0.00    +0.000 NA
ATOM     31  N   UNL     1      -3.149  12.468  19.421  0.00  0.00    +0.000 N 
ATOM     32  C   UNL     1      -1.991  11.936  19.924  0.00  0.00    +0.000 A 
ATOM     33  C   UNL     1      -1.013  11.109  19.355  0.00  0.00    +0.000 A 
ATOM     34  H   UNL     1      -3.526  12.360  18.487  0.00  0.00    +0.000 HD
ENDBRANCH  23  25
ENDBRANCH   1  22
TORSDOF 3
ENDMDL
MODEL 6
REMARK VINA RESULT:      -8.9      1.841     11.010
REMARK  Name = 
REMARK  3 active torsions:
REMARK  status: ('A' for Active; 'I' for Inactive)
REMARK    1  A    between atoms: C_2  and  C_13
REMARK    2  A    between atoms: N_3  and  C_4
REMARK    3  A    between atoms: C_17  and  C_18
REMARK                            x       y       z     vdW  Elec       q    Type
REMARK                         _______ _______ _______ _____ _____    ______ ____
ROOT
ATOM      1  C   UNL     1       0.789   9.341  19.871  0.00  0.00    +0.000 A 
ATOM      2  C   UNL     1       1.451   9.378  18.640  0.00  0.00    +0.000 A 
ATOM      3  C   UNL     1       2.299   8.334  18.269  0.00  0.00    +0.000 A 
ATOM      4  C   UNL     1       2.474   7.244  19.143  0.00  0.00    +0.000 A 
ATOM      5  C   UNL     1       3.201   6.028  19.129  0.00  0.00    +0.000 A 
ATOM      6  N   UNL     1       3.006   5.298  20.238  0.00  0.00    +0.000 NA
ATOM      7  N   UNL     1       2.183   6.071  20.976  0.00  0.00    +0.000 N 
ATOM      8  C   UNL     1       1.814   7.241  20.368  0.00  0.00    +0.000 A 
ATOM      9  C   UNL     1       0.977   8.282  20.777  0.00  0.00    +0.000 A 
ATOM     10  H   UNL     1       1.897   5.737  21.891  0.00  0.00    +0.000 HD
ENDROOT
BRANCH   5  11
ATOM     11  C   UNL     1       4.093   5.575  18.027  0.00  0.00    +0.000 A 
ATOM     12  N   UNL     1       3.810   4.626  17.156  0.00  0.00    +0.000 NA
ATOM     13  C   UNL     1       4.886   4.580  16.308  0.00  0.00    +0.000 A 
ATOM     14  C   UNL     1       5.098   3.775  15.180  0.00  0.00    +0.000 A 
ATOM     15  C   UNL     1       6.296   3.920  14.471  0.00  0.00    +0.000 A 
ATOM     16  C   UNL     1       7.265   4.838  14.885  0.00  0.00    +0.000 A 
ATOM     17  C   UNL     1       7.071   5.650  16.008  0.00  0.00    +0.000 A 
ATOM     18  C   UNL     1       5.862   5.495  16.689  0.00  0.00    +0.000 A 
ATOM     19  N   UNL     1       5.328   6.116  17.786  0.00  0.00    +0.000 N 
ATOM     20  H   UNL     1       5.740   6.855  18.338  0.00  0.00    +0.000 HD
ENDBRANCH   5  11
BRANCH   1  22
ATOM     21  O   UNL     1      -0.965  10.802  19.447  0.00  0.00    +0.000 OA
ATOM     22  C   UNL     1      -0.132  10.433  20.266  0.00  0.00    +0.000 C 
ATOM     23  N   UNL     1       0.117  10.980  21.515  0.00  0.00    +0.000 N 
ATOM     24  H   UNL     1       0.974  10.703  21.975  0.00  0.00    +0.000 HD
BRANCH  23  25
ATOM     25  C   UNL     1      -0.571  12.075  22.081  0.00  0.00    +0.000 A 
ATOM     26  C   UNL     1      -0.061  13.376  22.051  0.00  0.00    +0.000 A 
ATOM     27  C   UNL     1      -0.704  14.428  22.716  0.00  0.00    +0.000 A 
ATOM     28  C   UNL     1      -1.880  14.157  23.423  0.00  0.00    +0.000 A 
ATOM     29  C   UNL     1      -2.765  14.889  24.244  0.00  0.00    +0.000 A 
ATOM     30  N   UNL     1      -3.779  14.148  24.698  0.00  0.00    +0.000 NA
ATOM     31  N   UNL     1      -3.540  12.935  24.166  0.00  0.00    +0.000 N 
ATOM     32  C   UNL     1      -2.407  12.870  23.399  0.00  0.00    +0.000 A 
ATOM     33  C   UNL     1      -1.797  11.810  22.715  0.00  0.00    +0.000 A 
ATOM     34  H   UNL     1      -4.185  12.184  24.384  0.00  0.00    +0.000 HD
ENDBRANCH  23  25
ENDBRANCH   1  22
TORSDOF 3
ENDMDL
MODEL 7
REMARK VINA RESULT:      -8.9      2.298     11.269
REMARK  Name = 
REMARK  3 active torsions:
REMARK  status: ('A' for Active; 'I' for Inactive)
REMARK    1  A    between atoms: C_2  and  C_13
REMARK    2  A    between atoms: N_3  and  C_4
REMARK    3  A    between atoms: C_17  and  C_18
REMARK                            x       y       z     vdW  Elec       q    Type
REMARK                         _______ _______ _______ _____ _____    ______ ____
ROOT
ATOM      1  C   UNL     1       2.221   7.678  19.358  0.00  0.00    +0.000 A 
ATOM      2  C   UNL     1       2.586   8.002  18.047  0.00  0.00    +0.000 A 
ATOM      3  C   UNL     1       3.431   7.156  17.326  0.00  0.00    +0.000 A 
ATOM      4  C   UNL     1       3.903   5.975  17.931  0.00  0.00    +0.000 A 
ATOM      5  C   UNL     1       4.727   4.888  17.546  0.00  0.00    +0.000 A 
ATOM      6  N   UNL     1       4.856   3.971  18.517  0.00  0.00    +0.000 NA
ATOM      7  N   UNL     1       4.145   4.497  19.535  0.00  0.00    +0.000 N 
ATOM      8  C   UNL     1       3.536   5.687  19.241  0.00  0.00    +0.000 A 
ATOM      9  C   UNL     1       2.710   6.525  19.996  0.00  0.00    +0.000 A 
ATOM     10  H   UNL     1       4.104   3.985  20.411  0.00  0.00    +0.000 HD
ENDROOT
BRANCH   5  11
ATOM     11  C   UNL     1       5.392   4.743  16.222  0.00  0.00    +0.000 A 
ATOM     12  N   UNL     1       5.039   3.894  15.278  0.00  0.00    +0.000 NA
ATOM     13  C   UNL     1       5.889   4.140  14.232  0.00  0.00    +0.000 A 
ATOM     14  C   UNL     1       5.936   3.546  12.963  0.00  0.00    +0.000 A 
ATOM     15  C   UNL     1       6.912   3.979  12.058  0.00  0.00    +0.000 A 
ATOM     16  C   UNL     1       7.827   4.974  12.415  0.00  0.00    +0.000 A 
ATOM     17  C   UNL     1       7.795   5.578  13.677  0.00  0.00    +0.000 A 
ATOM     18  C   UNL     1       6.803   5.137  14.555  0.00  0.00    +0.000 A 
ATOM     19  N   UNL     1       6.461   5.504  15.829  0.00  0.00    +0.000 N 
ATOM     20  H   UNL     1       6.892   6.215  16.403  0.00  0.00    +0.000 HD
ENDBRANCH   5  11
BRANCH   1  22
ATOM     21  O   UNL     1       0.853   8.127  21.180  0.00  0.00    +0.000 OA
ATOM     22  C   UNL     1       1.307   8.557  20.126  0.00  0.00    +0.000 C 
ATOM     23  N   UNL     1       0.997   9.757  19.506  0.00  0.00    +0.000 N 
ATOM     24  H   UNL     1       1.289   9.865  18.543  0.00  0.00    +0.000 HD
BRANCH  23  25
ATOM     25  C   UNL     1       0.095  10.724  19.999  0.00  0.00    +0.000 A 
ATOM     26  C   UNL     1       0.266  11.344  21.240  0.00  0.00    +0.000 A 
ATOM     27  C   UNL     1      -0.699  12.217  21.760  0.00  0.00    +0.000 A 
ATOM     28  C   UNL     1      -1.855  12.462  21.012  0.00  0.00    +0.000 A 
ATOM     29  C   UNL     1      -3.047  13.196  21.195  0.00  0.00    +0.000 A 
ATOM     30  N   UNL     1      -3.870  13.110  20.147  0.00  0.00    +0.000 NA
ATOM     31  N   UNL     1      -3.201  12.317  19.290  0.00  0.00    +0.000 N 
ATOM     32  C   UNL     1      -1.987  11.884  19.754  0.00  0.00    +0.000 A 
ATOM     33  C   UNL     1      -1.021  11.032  19.203  0.00  0.00    +0.000 A 
ATOM     34  H   UNL     1      -3.642  12.093  18.405  0.00  0.00    +0.000 HD
ENDBRANCH  23  25
ENDBRANCH   1  22
TORSDOF 3
ENDMDL
MODEL 8
REMARK VINA RESULT:      -8.9      2.272     11.094
REMARK  Name = 
REMARK  3 active torsions:
REMARK  status: ('A' for Active; 'I' for Inactive)
REMARK    1  A    between atoms: C_2  and  C_13
REMARK    2  A    between atoms: N_3  and  C_4
REMARK    3  A    between atoms: C_17  and  C_18
REMARK                            x       y       z     vdW  Elec       q    Type
REMARK                         _______ _______ _______ _____ _____    ______ ____
ROOT
ATOM      1  C   UNL     1       0.177  10.147  21.520  0.00  0.00    +0.000 A 
ATOM      2  C   UNL     1       0.675   8.858  21.737  0.00  0.00    +0.000 A 
ATOM      3  C   UNL     1       1.350   8.187  20.716  0.00  0.00    +0.000 A 
ATOM      4  C   UNL     1       1.528   8.825  19.473  0.00  0.00    +0.000 A 
ATOM      5  C   UNL     1       2.148   8.505  18.239  0.00  0.00    +0.000 A 
ATOM      6  N   UNL     1       2.054   9.500  17.343  0.00  0.00    +0.000 NA
ATOM      7  N   UNL     1       1.338  10.437  17.996  0.00  0.00    +0.000 N 
ATOM      8  C   UNL     1       1.007  10.100  19.281  0.00  0.00    +0.000 A 
ATOM      9  C   UNL     1       0.308  10.788  20.276  0.00  0.00    +0.000 A 
ATOM     10  H   UNL     1       1.114  11.300  17.509  0.00  0.00    +0.000 HD
ENDROOT
BRANCH   5  11
ATOM     11  C   UNL     1       2.836   7.221  17.932  0.00  0.00    +0.000 A 
ATOM     12  N   UNL     1       2.362   6.019  18.192  0.00  0.00    +0.000 NA
ATOM     13  C   UNL     1       3.298   5.146  17.702  0.00  0.00    +0.000 A 
ATOM     14  C   UNL     1       3.286   3.744  17.682  0.00  0.00    +0.000 A 
ATOM     15  C   UNL     1       4.377   3.074  17.116  0.00  0.00    +0.000 A 
ATOM     16  C   UNL     1       5.459   3.786  16.591  0.00  0.00    +0.000 A 
ATOM     17  C   UNL     1       5.488   5.185  16.603  0.00  0.00    +0.000 A 
ATOM     18  C   UNL     1       4.382   5.829  17.161  0.00  0.00    +0.000 A 
ATOM     19  N   UNL     1       4.059   7.150  17.320  0.00  0.00    +0.000 N 
ATOM     20  H   UNL     1       4.598   7.955  17.037  0.00  0.00    +0.000 HD
ENDBRANCH   5  11
BRANCH   1  22
ATOM     21  O   UNL     1      -0.689  10.296  23.669  0.00  0.00    +0.000 OA
ATOM     22  C   UNL     1      -0.522  10.878  22.604  0.00  0.00    +0.000 C 
ATOM     23  N   UNL     1      -0.991  12.133  22.250  0.00  0.00    +0.000 N 
ATOM     24  H   UNL     1      -0.954  12.376  21.269  0.00  0.00    +0.000 HD
BRANCH  23  25
ATOM     25  C   UNL     1      -1.748  12.988  23.079  0.00  0.00    +0.000 A 
ATOM     26  C   UNL     1      -3.072  12.708  23.433  0.00  0.00    +0.000 A 
ATOM     27  C   UNL     1      -3.842  13.623  24.163  0.00  0.00    +0.000 A 
ATOM     28  C   UNL     1      -3.262  14.840  24.538  0.00  0.00    +0.000 A 
ATOM     29  C   UNL     1      -3.694  16.010  25.199  0.00  0.00    +0.000 A 
ATOM     30  N   UNL     1      -2.724  16.921  25.318  0.00  0.00    +0.000 NA
ATOM     31  N   UNL     1      -1.668  16.330  24.730  0.00  0.00    +0.000 N 
ATOM     32  C   UNL     1      -1.928  15.082  24.230  0.00  0.00    +0.000 A 
ATOM     33  C   UNL     1      -1.131  14.168  23.527  0.00  0.00    +0.000 A 
ATOM     34  H   UNL     1      -0.797  16.847  24.686  0.00  0.00    +0.000 HD
ENDBRANCH  23  25
ENDBRANCH   1  22
TORSDOF 3
ENDMDL
MODEL 9
REMARK VINA RESULT:      -8.8      1.433      1.734
REMARK  Name = 
REMARK  3 active torsions:
REMARK  status: ('A' for Active; 'I' for Inactive)
REMARK    1  A    between atoms: C_2  and  C_13
REMARK    2  A    between atoms: N_3  and  C_4
REMARK    3  A    between atoms: C_17  and  C_18
REMARK                            x       y       z     vdW  Elec       q    Type
REMARK                         _______ _______ _______ _____ _____    ______ ____
ROOT
ATOM      1  C   UNL     1       1.460   8.144  20.222  0.00  0.00    +0.000 A 
ATOM      2  C   UNL     1       1.170   9.258  19.427  0.00  0.00    +0.000 A 
ATOM      3  C   UNL     1       0.432  10.320  19.953  0.00  0.00    +0.000 A 
ATOM      4  C   UNL     1      -0.008  10.259  21.289  0.00  0.00    +0.000 A 
ATOM      5  C   UNL     1      -0.734  11.103  22.166  0.00  0.00    +0.000 A 
ATOM      6  N   UNL     1      -0.875  10.572  23.391  0.00  0.00    +0.000 NA
ATOM      7  N   UNL     1      -0.272   9.372  23.279  0.00  0.00    +0.000 N 
ATOM      8  C   UNL     1       0.282   9.131  22.050  0.00  0.00    +0.000 A 
ATOM      9  C   UNL     1       0.999   8.043  21.546  0.00  0.00    +0.000 A 
ATOM     10  H   UNL     1      -0.262   8.758  24.088  0.00  0.00    +0.000 HD
ENDROOT
BRANCH   5  11
ATOM     11  C   UNL     1      -1.294  12.435  21.808  0.00  0.00    +0.000 A 
ATOM     12  N   UNL     1      -0.600  13.456  21.346  0.00  0.00    +0.000 NA
ATOM     13  C   UNL     1      -1.520  14.445  21.114  0.00  0.00    +0.000 A 
ATOM     14  C   UNL     1      -1.333  15.731  20.590  0.00  0.00    +0.000 A 
ATOM     15  C   UNL     1      -2.449  16.564  20.447  0.00  0.00    +0.000 A 
ATOM     16  C   UNL     1      -3.721  16.126  20.828  0.00  0.00    +0.000 A 
ATOM     17  C   UNL     1      -3.926  14.845  21.353  0.00  0.00    +0.000 A 
ATOM     18  C   UNL     1      -2.799  14.031  21.472  0.00  0.00    +0.000 A 
ATOM     19  N   UNL     1      -2.624  12.745  21.909  0.00  0.00    +0.000 N 
ATOM     20  H   UNL     1      -3.331  12.105  22.243  0.00  0.00    +0.000 HD
ENDBRANCH   5  11
BRANCH   1  22
ATOM     21  O   UNL     1       2.441   6.048  20.405  0.00  0.00    +0.000 OA
ATOM     22  C   UNL     1       2.262   7.020  19.682  0.00  0.00    +0.000 C 
ATOM     23  N   UNL     1       2.799   7.242  18.424  0.00  0.00    +0.000 N 
ATOM     24  H   UNL     1       2.731   8.181  18.054  0.00  0.00    +0.000 HD
BRANCH  23  25
ATOM     25  C   UNL     1       3.656   6.358  17.732  0.00  0.00    +0.000 A 
ATOM     26  C   UNL     1       3.355   5.004  17.563  0.00  0.00    +0.000 A 
ATOM     27  C   UNL     1       4.269   4.120  16.973  0.00  0.00    +0.000 A 
ATOM     28  C   UNL     1       5.507   4.618  16.552  0.00  0.00    +0.000 A 
ATOM     29  C   UNL     1       6.682   4.074  15.990  0.00  0.00    +0.000 A 
ATOM     30  N   UNL     1       7.618   4.999  15.760  0.00  0.00    +0.000 NA
ATOM     31  N   UNL     1       7.037   6.139  16.177  0.00  0.00    +0.000 N 
ATOM     32  C   UNL     1       5.772   5.977  16.675  0.00  0.00    +0.000 A 
ATOM     33  C   UNL     1       4.860   6.883  17.234  0.00  0.00    +0.000 A 
ATOM     34  H   UNL     1       7.572   6.998  16.110  0.00  0.00    +0.000 HD
ENDBRANCH  23  25
ENDBRANCH   1  22
TORSDOF 3
ENDMDL
