MODEL 1
REMARK VINA RESULT:      -8.4      0.000      0.000
REMARK  Name = 
REMARK  8 active torsions:
REMARK  status: ('A' for Active; 'I' for Inactive)
REMARK    1  A    between atoms: C_1  and  O_2
REMARK    2  A    between atoms: O_2  and  C_3
REMARK    3  A    between atoms: C_6  and  C_7
REMARK    4  A    between atoms: C_15  and  N_16
REMARK    5  A    between atoms: N_19  and  N_20
REMARK    6  A    between atoms: C_21  and  C_23
REMARK    7  A    between atoms: C_26  and  O_27
REMARK    8  A    between atoms: C_28  and  N_29
REMARK                            x       y       z     vdW  Elec       q    Type
REMARK                         _______ _______ _______ _____ _____    ______ ____
ROOT
ATOM      1  C   UNL     1       8.044  14.698  21.931  0.00  0.00    +0.000 A 
ATOM      2  N   UNL     1       7.829  15.775  21.075  0.00  0.00    +0.000 N 
ATOM      3  N   UNL     1       8.350  15.609  19.834  0.00  0.00    +0.000 NA
ATOM      4  C   UNL     1       8.668  14.326  19.863  0.00  0.00    +0.000 A 
ATOM      5  C   UNL     1       8.359  13.677  21.062  0.00  0.00    +0.000 A 
ATOM      6  C   UNL     1       8.722  12.275  20.963  0.00  0.00    +0.000 C 
ATOM      7  O   UNL     1       8.739  11.459  21.865  0.00  0.00    +0.000 OA
ATOM      8  C   UNL     1       9.256  12.127  19.533  0.00  0.00    +0.000 A 
ATOM      9  C   UNL     1       9.784  11.051  18.830  0.00  0.00    +0.000 A 
ATOM     10  C   UNL     1      10.598  11.359  17.718  0.00  0.00    +0.000 A 
ATOM     11  C   UNL     1      10.784  12.684  17.270  0.00  0.00    +0.000 A 
ATOM     12  C   UNL     1      10.116  13.738  17.882  0.00  0.00    +0.000 A 
ATOM     13  C   UNL     1       9.345  13.433  18.984  0.00  0.00    +0.000 A 
ATOM     14  H   UNL     1       7.450  16.683  21.318  0.00  0.00    +0.000 HD
ENDROOT
BRANCH   1  18
ATOM     15  C   UNL     1       7.874  15.138  26.188  0.00  0.00    +0.000 A 
ATOM     16  C   UNL     1       8.439  16.147  25.402  0.00  0.00    +0.000 A 
ATOM     17  C   UNL     1       8.518  16.022  24.006  0.00  0.00    +0.000 A 
ATOM     18  C   UNL     1       8.055  14.866  23.381  0.00  0.00    +0.000 A 
ATOM     19  C   UNL     1       7.506  13.848  24.188  0.00  0.00    +0.000 A 
ATOM     20  C   UNL     1       7.417  13.978  25.575  0.00  0.00    +0.000 A 
BRANCH  15  22
ATOM     21  C   UNL     1       8.053  14.240  28.372  0.00  0.00    +0.000 C 
ATOM     22  O   UNL     1       7.843  15.375  27.536  0.00  0.00    +0.000 OA
ENDBRANCH  15  22
ENDBRANCH   1  18
BRANCH   9  23
ATOM     23  N   UNL     1       9.542   9.678  19.068  0.00  0.00    +0.000 N 
ATOM     24  C   UNL     1       8.513   8.955  18.495  0.00  0.00    +0.000 C 
ATOM     25  O   UNL     1       7.679   9.401  17.711  0.00  0.00    +0.000 OA
ATOM     26  N   UNL     1       8.513   7.624  18.896  0.00  0.00    +0.000 N 
ATOM     27  H   UNL     1      10.330   9.122  19.368  0.00  0.00    +0.000 HD
ATOM     28  H   UNL     1       9.379   7.137  19.110  0.00  0.00    +0.000 HD
BRANCH  26  29
ATOM     29  N   UNL     1       7.510   6.805  18.338  0.00  0.00    +0.000 N 
ATOM     30  C   UNL     1       7.024   5.735  19.066  0.00  0.00    +0.000 C 
ATOM     31  O   UNL     1       7.506   5.382  20.140  0.00  0.00    +0.000 OA
ATOM     32  H   UNL     1       7.009   7.219  17.551  0.00  0.00    +0.000 HD
BRANCH  30  33
ATOM     33  C   UNL     1       5.854   5.020  18.479  0.00  0.00    +0.000 A 
ATOM     34  C   UNL     1       5.762   4.907  17.089  0.00  0.00    +0.000 A 
ATOM     35  C   UNL     1       4.690   4.221  16.501  0.00  0.00    +0.000 A 
ATOM     36  C   UNL     1       3.696   3.691  17.318  0.00  0.00    +0.000 A 
ATOM     37  C   UNL     1       3.736   3.854  18.712  0.00  0.00    +0.000 A 
ATOM     38  C   UNL     1       4.841   4.483  19.289  0.00  0.00    +0.000 A 
BRANCH  37  39
ATOM     39  N   UNL     1       2.786   3.210  19.523  0.00  0.00    +0.000 N 
ATOM     40  H   UNL     1       3.083   2.255  19.731  0.00  0.00    +0.000 HD
ATOM     41  H   UNL     1       1.835   3.266  19.178  0.00  0.00    +0.000 HD
ENDBRANCH  37  39
BRANCH  36  42
ATOM     42  O   UNL     1       2.624   3.025  16.782  0.00  0.00    +0.000 OA
ATOM     43  H   UNL     1       2.298   2.388  17.439  0.00  0.00    +0.000 HD
ENDBRANCH  36  42
ENDBRANCH  30  33
ENDBRANCH  26  29
ENDBRANCH   9  23
TORSDOF 7
ENDMDL
MODEL 2
REMARK VINA RESULT:      -8.0      8.434      9.113
REMARK  Name = 
REMARK  8 active torsions:
REMARK  status: ('A' for Active; 'I' for Inactive)
REMARK    1  A    between atoms: C_1  and  O_2
REMARK    2  A    between atoms: O_2  and  C_3
REMARK    3  A    between atoms: C_6  and  C_7
REMARK    4  A    between atoms: C_15  and  N_16
REMARK    5  A    between atoms: N_19  and  N_20
REMARK    6  A    between atoms: C_21  and  C_23
REMARK    7  A    between atoms: C_26  and  O_27
REMARK    8  A    between atoms: C_28  and  N_29
REMARK                            x       y       z     vdW  Elec       q    Type
REMARK                         _______ _______ _______ _____ _____    ______ ____
ROOT
ATOM      1  C   UNL     1      -2.446  14.609  20.720  0.00  0.00    +0.000 A 
ATOM      2  N   UNL     1      -2.272  15.990  20.669  0.00  0.00    +0.000 N 
ATOM      3  N   UNL     1      -1.018  16.379  20.331  0.00  0.00    +0.000 NA
ATOM      4  C   UNL     1      -0.495  15.230  19.936  0.00  0.00    +0.000 A 
ATOM      5  C   UNL     1      -1.369  14.141  20.000  0.00  0.00    +0.000 A 
ATOM      6  C   UNL     1      -0.697  12.949  19.515  0.00  0.00    +0.000 C 
ATOM      7  O   UNL     1      -1.103  11.804  19.579  0.00  0.00    +0.000 OA
ATOM      8  C   UNL     1       0.692  13.447  19.099  0.00  0.00    +0.000 A 
ATOM      9  C   UNL     1       1.811  12.801  18.586  0.00  0.00    +0.000 A 
ATOM     10  C   UNL     1       3.051  13.454  18.754  0.00  0.00    +0.000 A 
ATOM     11  C   UNL     1       3.149  14.746  19.315  0.00  0.00    +0.000 A 
ATOM     12  C   UNL     1       2.004  15.450  19.672  0.00  0.00    +0.000 A 
ATOM     13  C   UNL     1       0.799  14.795  19.531  0.00  0.00    +0.000 A 
ATOM     14  H   UNL     1      -2.928  16.700  20.973  0.00  0.00    +0.000 HD
ENDROOT
BRANCH   1  18
ATOM     15  C   UNL     1      -5.645  12.902  23.000  0.00  0.00    +0.000 A 
ATOM     16  C   UNL     1      -4.649  13.646  23.641  0.00  0.00    +0.000 A 
ATOM     17  C   UNL     1      -3.582  14.206  22.918  0.00  0.00    +0.000 A 
ATOM     18  C   UNL     1      -3.487  14.001  21.543  0.00  0.00    +0.000 A 
ATOM     19  C   UNL     1      -4.488  13.232  20.914  0.00  0.00    +0.000 A 
ATOM     20  C   UNL     1      -5.554  12.686  21.631  0.00  0.00    +0.000 A 
BRANCH  15  22
ATOM     21  C   UNL     1      -7.602  13.366  24.252  0.00  0.00    +0.000 C 
ATOM     22  O   UNL     1      -6.638  12.414  23.806  0.00  0.00    +0.000 OA
ENDBRANCH  15  22
ENDBRANCH   1  18
BRANCH   9  23
ATOM     23  N   UNL     1       1.834  11.590  17.856  0.00  0.00    +0.000 N 
ATOM     24  C   UNL     1       1.678  10.337  18.418  0.00  0.00    +0.000 C 
ATOM     25  O   UNL     1       1.500  10.107  19.611  0.00  0.00    +0.000 OA
ATOM     26  N   UNL     1       1.735   9.321  17.470  0.00  0.00    +0.000 N 
ATOM     27  H   UNL     1       1.597  11.644  16.876  0.00  0.00    +0.000 HD
ATOM     28  H   UNL     1       1.402   9.466  16.521  0.00  0.00    +0.000 HD
BRANCH  26  29
ATOM     29  N   UNL     1       1.558   8.008  17.952  0.00  0.00    +0.000 N 
ATOM     30  C   UNL     1       2.652   7.169  18.053  0.00  0.00    +0.000 C 
ATOM     31  O   UNL     1       3.767   7.467  17.630  0.00  0.00    +0.000 OA
ATOM     32  H   UNL     1       0.687   7.853  18.460  0.00  0.00    +0.000 HD
BRANCH  30  33
ATOM     33  C   UNL     1       2.413   5.858  18.725  0.00  0.00    +0.000 A 
ATOM     34  C   UNL     1       2.242   5.833  20.112  0.00  0.00    +0.000 A 
ATOM     35  C   UNL     1       1.992   4.624  20.775  0.00  0.00    +0.000 A 
ATOM     36  C   UNL     1       1.958   3.443  20.041  0.00  0.00    +0.000 A 
ATOM     37  C   UNL     1       2.194   3.440  18.657  0.00  0.00    +0.000 A 
ATOM     38  C   UNL     1       2.379   4.658  17.998  0.00  0.00    +0.000 A 
BRANCH  37  39
ATOM     39  N   UNL     1       2.037   2.254  17.918  0.00  0.00    +0.000 N 
ATOM     40  H   UNL     1       2.556   1.490  18.355  0.00  0.00    +0.000 HD
ATOM     41  H   UNL     1       2.226   2.351  16.928  0.00  0.00    +0.000 HD
ENDBRANCH  37  39
BRANCH  36  42
ATOM     42  O   UNL     1       1.729   2.238  20.653  0.00  0.00    +0.000 OA
ATOM     43  H   UNL     1       2.543   1.962  21.105  0.00  0.00    +0.000 HD
ENDBRANCH  36  42
ENDBRANCH  30  33
ENDBRANCH  26  29
ENDBRANCH   9  23
TORSDOF 7
ENDMDL
MODEL 3
REMARK VINA RESULT:      -7.8      6.241      7.796
REMARK  Name = 
REMARK  8 active torsions:
REMARK  status: ('A' for Active; 'I' for Inactive)
REMARK    1  A    between atoms: C_1  and  O_2
REMARK    2  A    between atoms: O_2  and  C_3
REMARK    3  A    between atoms: C_6  and  C_7
REMARK    4  A    between atoms: C_15  and  N_16
REMARK    5  A    between atoms: N_19  and  N_20
REMARK    6  A    between atoms: C_21  and  C_23
REMARK    7  A    between atoms: C_26  and  O_27
REMARK    8  A    between atoms: C_28  and  N_29
REMARK                            x       y       z     vdW  Elec       q    Type
REMARK                         _______ _______ _______ _____ _____    ______ ____
ROOT
ATOM      1  C   UNL     1       1.046  15.226  19.917  0.00  0.00    +0.000 A 
ATOM      2  N   UNL     1      -0.140  15.926  20.126  0.00  0.00    +0.000 N 
ATOM      3  N   UNL     1      -1.259  15.219  19.838  0.00  0.00    +0.000 NA
ATOM      4  C   UNL     1      -0.759  14.004  19.687  0.00  0.00    +0.000 A 
ATOM      5  C   UNL     1       0.623  13.917  19.881  0.00  0.00    +0.000 A 
ATOM      6  C   UNL     1       1.049  12.538  19.723  0.00  0.00    +0.000 C 
ATOM      7  O   UNL     1       2.193  12.129  19.666  0.00  0.00    +0.000 OA
ATOM      8  C   UNL     1      -0.251  11.773  19.450  0.00  0.00    +0.000 A 
ATOM      9  C   UNL     1      -0.522  10.436  19.186  0.00  0.00    +0.000 A 
ATOM     10  C   UNL     1      -1.740  10.154  18.529  0.00  0.00    +0.000 A 
ATOM     11  C   UNL     1      -2.690  11.158  18.247  0.00  0.00    +0.000 A 
ATOM     12  C   UNL     1      -2.480  12.467  18.666  0.00  0.00    +0.000 A 
ATOM     13  C   UNL     1      -1.277  12.741  19.282  0.00  0.00    +0.000 A 
ATOM     14  H   UNL     1      -0.238  16.912  20.340  0.00  0.00    +0.000 HD
ENDROOT
BRANCH   1  18
ATOM     15  C   UNL     1       4.823  17.069  19.091  0.00  0.00    +0.000 A 
ATOM     16  C   UNL     1       4.135  17.382  20.268  0.00  0.00    +0.000 A 
ATOM     17  C   UNL     1       2.889  16.800  20.556  0.00  0.00    +0.000 A 
ATOM     18  C   UNL     1       2.303  15.918  19.651  0.00  0.00    +0.000 A 
ATOM     19  C   UNL     1       3.000  15.628  18.460  0.00  0.00    +0.000 A 
ATOM     20  C   UNL     1       4.244  16.196  18.178  0.00  0.00    +0.000 A 
BRANCH  15  22
ATOM     21  C   UNL     1       7.182  16.856  19.049  0.00  0.00    +0.000 C 
ATOM     22  O   UNL     1       6.032  17.689  18.922  0.00  0.00    +0.000 OA
ENDBRANCH  15  22
ENDBRANCH   1  18
BRANCH   9  23
ATOM     23  N   UNL     1       0.261   9.319  19.562  0.00  0.00    +0.000 N 
ATOM     24  C   UNL     1       1.388   8.892  18.885  0.00  0.00    +0.000 C 
ATOM     25  O   UNL     1       1.857   9.417  17.878  0.00  0.00    +0.000 OA
ATOM     26  N   UNL     1       1.968   7.776  19.475  0.00  0.00    +0.000 N 
ATOM     27  H   UNL     1       0.223   9.042  20.532  0.00  0.00    +0.000 HD
ATOM     28  H   UNL     1       1.929   7.630  20.480  0.00  0.00    +0.000 HD
BRANCH  26  29
ATOM     29  N   UNL     1       3.141   7.286  18.864  0.00  0.00    +0.000 N 
ATOM     30  C   UNL     1       3.126   6.042  18.264  0.00  0.00    +0.000 C 
ATOM     31  O   UNL     1       2.167   5.275  18.337  0.00  0.00    +0.000 OA
ATOM     32  H   UNL     1       3.844   7.998  18.657  0.00  0.00    +0.000 HD
BRANCH  30  33
ATOM     33  C   UNL     1       4.350   5.667  17.499  0.00  0.00    +0.000 A 
ATOM     34  C   UNL     1       4.377   4.442  16.828  0.00  0.00    +0.000 A 
ATOM     35  C   UNL     1       5.501   4.066  16.079  0.00  0.00    +0.000 A 
ATOM     36  C   UNL     1       6.607   4.910  16.047  0.00  0.00    +0.000 A 
ATOM     37  C   UNL     1       6.624   6.114  16.769  0.00  0.00    +0.000 A 
ATOM     38  C   UNL     1       5.475   6.506  17.459  0.00  0.00    +0.000 A 
BRANCH  37  39
ATOM     39  N   UNL     1       7.702   7.005  16.625  0.00  0.00    +0.000 N 
ATOM     40  H   UNL     1       8.590   6.510  16.718  0.00  0.00    +0.000 HD
ATOM     41  H   UNL     1       7.641   7.830  17.211  0.00  0.00    +0.000 HD
ENDBRANCH  37  39
BRANCH  36  42
ATOM     42  O   UNL     1       7.730   4.574  15.336  0.00  0.00    +0.000 OA
ATOM     43  H   UNL     1       8.018   3.690  15.615  0.00  0.00    +0.000 HD
ENDBRANCH  36  42
ENDBRANCH  30  33
ENDBRANCH  26  29
ENDBRANCH   9  23
TORSDOF 7
ENDMDL
MODEL 4
REMARK VINA RESULT:      -7.7      9.808     10.920
REMARK  Name = 
REMARK  8 active torsions:
REMARK  status: ('A' for Active; 'I' for Inactive)
REMARK    1  A    between atoms: C_1  and  O_2
REMARK    2  A    between atoms: O_2  and  C_3
REMARK    3  A    between atoms: C_6  and  C_7
REMARK    4  A    between atoms: C_15  and  N_16
REMARK    5  A    between atoms: N_19  and  N_20
REMARK    6  A    between atoms: C_21  and  C_23
REMARK    7  A    between atoms: C_26  and  O_27
REMARK    8  A    between atoms: C_28  and  N_29
REMARK                            x       y       z     vdW  Elec       q    Type
REMARK                         _______ _______ _______ _____ _____    ______ ____
ROOT
ATOM      1  C   UNL     1      -5.172  13.660  21.390  0.00  0.00    +0.000 A 
ATOM      2  N   UNL     1      -6.397  13.023  21.203  0.00  0.00    +0.000 N 
ATOM      3  N   UNL     1      -6.460  12.261  20.085  0.00  0.00    +0.000 NA
ATOM      4  C   UNL     1      -5.188  12.240  19.721  0.00  0.00    +0.000 A 
ATOM      5  C   UNL     1      -4.330  12.944  20.570  0.00  0.00    +0.000 A 
ATOM      6  C   UNL     1      -2.965  12.822  20.089  0.00  0.00    +0.000 C 
ATOM      7  O   UNL     1      -1.993  13.434  20.490  0.00  0.00    +0.000 OA
ATOM      8  C   UNL     1      -3.081  11.915  18.860  0.00  0.00    +0.000 A 
ATOM      9  C   UNL     1      -2.148  11.442  17.945  0.00  0.00    +0.000 A 
ATOM     10  C   UNL     1      -2.645  11.025  16.691  0.00  0.00    +0.000 A 
ATOM     11  C   UNL     1      -4.027  10.985  16.408  0.00  0.00    +0.000 A 
ATOM     12  C   UNL     1      -4.959  11.302  17.390  0.00  0.00    +0.000 A 
ATOM     13  C   UNL     1      -4.466  11.735  18.603  0.00  0.00    +0.000 A 
ATOM     14  H   UNL     1      -7.249  13.172  21.731  0.00  0.00    +0.000 HD
ENDROOT
BRANCH   1  18
ATOM     15  C   UNL     1      -5.056  17.264  23.703  0.00  0.00    +0.000 A 
ATOM     16  C   UNL     1      -4.289  17.154  22.539  0.00  0.00    +0.000 A 
ATOM     17  C   UNL     1      -4.300  15.979  21.770  0.00  0.00    +0.000 A 
ATOM     18  C   UNL     1      -5.061  14.885  22.176  0.00  0.00    +0.000 A 
ATOM     19  C   UNL     1      -5.813  15.003  23.363  0.00  0.00    +0.000 A 
ATOM     20  C   UNL     1      -5.812  16.175  24.121  0.00  0.00    +0.000 A 
BRANCH  15  22
ATOM     21  C   UNL     1      -5.142  18.400  25.780  0.00  0.00    +0.000 C 
ATOM     22  O   UNL     1      -4.973  18.459  24.365  0.00  0.00    +0.000 OA
ENDBRANCH  15  22
ENDBRANCH   1  18
BRANCH   9  23
ATOM     23  N   UNL     1      -0.760  11.272  18.156  0.00  0.00    +0.000 N 
ATOM     24  C   UNL     1      -0.046  10.148  17.787  0.00  0.00    +0.000 C 
ATOM     25  O   UNL     1      -0.513   9.155  17.234  0.00  0.00    +0.000 OA
ATOM     26  N   UNL     1       1.303  10.249  18.106  0.00  0.00    +0.000 N 
ATOM     27  H   UNL     1      -0.206  12.112  18.242  0.00  0.00    +0.000 HD
ATOM     28  H   UNL     1       1.782  11.145  18.095  0.00  0.00    +0.000 HD
BRANCH  26  29
ATOM     29  N   UNL     1       2.115   9.155  17.741  0.00  0.00    +0.000 N 
ATOM     30  C   UNL     1       2.272   8.102  18.623  0.00  0.00    +0.000 C 
ATOM     31  O   UNL     1       1.835   8.120  19.772  0.00  0.00    +0.000 OA
ATOM     32  H   UNL     1       2.304   9.078  16.741  0.00  0.00    +0.000 HD
BRANCH  30  33
ATOM     33  C   UNL     1       3.006   6.913  18.100  0.00  0.00    +0.000 A 
ATOM     34  C   UNL     1       2.548   5.637  18.438  0.00  0.00    +0.000 A 
ATOM     35  C   UNL     1       3.197   4.495  17.947  0.00  0.00    +0.000 A 
ATOM     36  C   UNL     1       4.329   4.649  17.153  0.00  0.00    +0.000 A 
ATOM     37  C   UNL     1       4.843   5.922  16.858  0.00  0.00    +0.000 A 
ATOM     38  C   UNL     1       4.151   7.051  17.301  0.00  0.00    +0.000 A 
BRANCH  37  39
ATOM     39  N   UNL     1       5.915   6.057  15.958  0.00  0.00    +0.000 N 
ATOM     40  H   UNL     1       5.848   5.358  15.217  0.00  0.00    +0.000 HD
ATOM     41  H   UNL     1       6.827   6.089  16.398  0.00  0.00    +0.000 HD
ENDBRANCH  37  39
BRANCH  36  42
ATOM     42  O   UNL     1       5.000   3.559  16.662  0.00  0.00    +0.000 OA
ATOM     43  H   UNL     1       5.155   3.694  15.713  0.00  0.00    +0.000 HD
ENDBRANCH  36  42
ENDBRANCH  30  33
ENDBRANCH  26  29
ENDBRANCH   9  23
TORSDOF 7
ENDMDL
MODEL 5
REMARK VINA RESULT:      -7.7     10.010     11.180
REMARK  Name = 
REMARK  8 active torsions:
REMARK  status: ('A' for Active; 'I' for Inactive)
REMARK    1  A    between atoms: C_1  and  O_2
REMARK    2  A    between atoms: O_2  and  C_3
REMARK    3  A    between atoms: C_6  and  C_7
REMARK    4  A    between atoms: C_15  and  N_16
REMARK    5  A    between atoms: N_19  and  N_20
REMARK    6  A    between atoms: C_21  and  C_23
REMARK    7  A    between atoms: C_26  and  O_27
REMARK    8  A    between atoms: C_28  and  N_29
REMARK                            x       y       z     vdW  Elec       q    Type
REMARK                         _______ _______ _______ _____ _____    ______ ____
ROOT
ATOM      1  C   UNL     1      -5.731  13.183  21.057  0.00  0.00    +0.000 A 
ATOM      2  N   UNL     1      -6.898  12.522  20.680  0.00  0.00    +0.000 N 
ATOM      3  N   UNL     1      -6.808  11.870  19.496  0.00  0.00    +0.000 NA
ATOM      4  C   UNL     1      -5.505  11.931  19.272  0.00  0.00    +0.000 A 
ATOM      5  C   UNL     1      -4.774  12.581  20.270  0.00  0.00    +0.000 A 
ATOM      6  C   UNL     1      -3.363  12.557  19.931  0.00  0.00    +0.000 C 
ATOM      7  O   UNL     1      -2.467  13.162  20.489  0.00  0.00    +0.000 OA
ATOM      8  C   UNL     1      -3.307  11.769  18.617  0.00  0.00    +0.000 A 
ATOM      9  C   UNL     1      -2.262  11.422  17.769  0.00  0.00    +0.000 A 
ATOM     10  C   UNL     1      -2.606  11.110  16.435  0.00  0.00    +0.000 A 
ATOM     11  C   UNL     1      -3.947  11.046  16.002  0.00  0.00    +0.000 A 
ATOM     12  C   UNL     1      -4.991  11.232  16.902  0.00  0.00    +0.000 A 
ATOM     13  C   UNL     1      -4.647  11.564  18.196  0.00  0.00    +0.000 A 
ATOM     14  H   UNL     1      -7.807  12.587  21.124  0.00  0.00    +0.000 HD
ENDROOT
BRANCH   1  18
ATOM     15  C   UNL     1      -5.868  16.668  23.542  0.00  0.00    +0.000 A 
ATOM     16  C   UNL     1      -4.765  15.811  23.600  0.00  0.00    +0.000 A 
ATOM     17  C   UNL     1      -4.701  14.655  22.805  0.00  0.00    +0.000 A 
ATOM     18  C   UNL     1      -5.760  14.329  21.960  0.00  0.00    +0.000 A 
ATOM     19  C   UNL     1      -6.874  15.192  21.927  0.00  0.00    +0.000 A 
ATOM     20  C   UNL     1      -6.933  16.348  22.708  0.00  0.00    +0.000 A 
BRANCH  15  22
ATOM     21  C   UNL     1      -4.880  17.702  25.431  0.00  0.00    +0.000 C 
ATOM     22  O   UNL     1      -5.815  17.768  24.356  0.00  0.00    +0.000 OA
ENDBRANCH  15  22
ENDBRANCH   1  18
BRANCH   9  23
ATOM     23  N   UNL     1      -0.897  11.284  18.113  0.00  0.00    +0.000 N 
ATOM     24  C   UNL     1      -0.136  10.161  17.849  0.00  0.00    +0.000 C 
ATOM     25  O   UNL     1      -0.535   9.143  17.289  0.00  0.00    +0.000 OA
ATOM     26  N   UNL     1       1.177  10.297  18.288  0.00  0.00    +0.000 N 
ATOM     27  H   UNL     1      -0.366  12.135  18.221  0.00  0.00    +0.000 HD
ATOM     28  H   UNL     1       1.641  11.201  18.290  0.00  0.00    +0.000 HD
BRANCH  26  29
ATOM     29  N   UNL     1       2.034   9.206  18.036  0.00  0.00    +0.000 N 
ATOM     30  C   UNL     1       2.138   8.194  18.971  0.00  0.00    +0.000 C 
ATOM     31  O   UNL     1       1.608   8.249  20.079  0.00  0.00    +0.000 OA
ATOM     32  H   UNL     1       2.307   9.093  17.059  0.00  0.00    +0.000 HD
BRANCH  30  33
ATOM     33  C   UNL     1       2.933   7.000  18.561  0.00  0.00    +0.000 A 
ATOM     34  C   UNL     1       3.786   7.106  17.459  0.00  0.00    +0.000 A 
ATOM     35  C   UNL     1       4.567   6.012  17.058  0.00  0.00    +0.000 A 
ATOM     36  C   UNL     1       4.450   4.808  17.744  0.00  0.00    +0.000 A 
ATOM     37  C   UNL     1       3.548   4.663  18.810  0.00  0.00    +0.000 A 
ATOM     38  C   UNL     1       2.823   5.777  19.240  0.00  0.00    +0.000 A 
BRANCH  37  39
ATOM     39  N   UNL     1       3.533   3.476  19.563  0.00  0.00    +0.000 N 
ATOM     40  H   UNL     1       2.587   3.270  19.886  0.00  0.00    +0.000 HD
ATOM     41  H   UNL     1       4.224   3.443  20.303  0.00  0.00    +0.000 HD
ENDBRANCH  37  39
BRANCH  36  42
ATOM     42  O   UNL     1       5.186   3.712  17.376  0.00  0.00    +0.000 OA
ATOM     43  H   UNL     1       4.575   2.996  17.136  0.00  0.00    +0.000 HD
ENDBRANCH  36  42
ENDBRANCH  30  33
ENDBRANCH  26  29
ENDBRANCH   9  23
TORSDOF 7
ENDMDL
MODEL 6
REMARK VINA RESULT:      -7.7      1.131      1.424
REMARK  Name = 
REMARK  8 active torsions:
REMARK  status: ('A' for Active; 'I' for Inactive)
REMARK    1  A    between atoms: C_1  and  O_2
REMARK    2  A    between atoms: O_2  and  C_3
REMARK    3  A    between atoms: C_6  and  C_7
REMARK    4  A    between atoms: C_15  and  N_16
REMARK    5  A    between atoms: N_19  and  N_20
REMARK    6  A    between atoms: C_21  and  C_23
REMARK    7  A    between atoms: C_26  and  O_27
REMARK    8  A    between atoms: C_28  and  N_29
REMARK                            x       y       z     vdW  Elec       q    Type
REMARK                         _______ _______ _______ _____ _____    ______ ____
ROOT
ATOM      1  C   UNL     1       7.616  14.651  22.322  0.00  0.00    +0.000 A 
ATOM      2  N   UNL     1       7.350  15.760  21.523  0.00  0.00    +0.000 N 
ATOM      3  N   UNL     1       7.921  15.708  20.294  0.00  0.00    +0.000 NA
ATOM      4  C   UNL     1       8.330  14.451  20.259  0.00  0.00    +0.000 A 
ATOM      5  C   UNL     1       8.031  13.710  21.406  0.00  0.00    +0.000 A 
ATOM      6  C   UNL     1       8.498  12.346  21.239  0.00  0.00    +0.000 C 
ATOM      7  O   UNL     1       8.546  11.480  22.092  0.00  0.00    +0.000 OA
ATOM      8  C   UNL     1       9.086  12.323  19.823  0.00  0.00    +0.000 A 
ATOM      9  C   UNL     1       9.713  11.332  19.078  0.00  0.00    +0.000 A 
ATOM     10  C   UNL     1      10.537  11.763  18.015  0.00  0.00    +0.000 A 
ATOM     11  C   UNL     1      10.641  13.123  17.652  0.00  0.00    +0.000 A 
ATOM     12  C   UNL     1       9.879  14.088  18.300  0.00  0.00    +0.000 A 
ATOM     13  C   UNL     1       9.098  13.663  19.354  0.00  0.00    +0.000 A 
ATOM     14  H   UNL     1       6.899  16.623  21.805  0.00  0.00    +0.000 HD
ENDROOT
BRANCH   1  18
ATOM     15  C   UNL     1       7.505  14.677  26.603  0.00  0.00    +0.000 A 
ATOM     16  C   UNL     1       6.518  15.349  25.874  0.00  0.00    +0.000 A 
ATOM     17  C   UNL     1       6.539  15.366  24.470  0.00  0.00    +0.000 A 
ATOM     18  C   UNL     1       7.569  14.731  23.779  0.00  0.00    +0.000 A 
ATOM     19  C   UNL     1       8.567  14.076  24.528  0.00  0.00    +0.000 A 
ATOM     20  C   UNL     1       8.541  14.048  25.923  0.00  0.00    +0.000 A 
BRANCH  15  22
ATOM     21  C   UNL     1       6.446  15.677  28.472  0.00  0.00    +0.000 C 
ATOM     22  O   UNL     1       7.376  14.722  27.966  0.00  0.00    +0.000 OA
ENDBRANCH  15  22
ENDBRANCH   1  18
BRANCH   9  23
ATOM     23  N   UNL     1       9.564   9.933  19.226  0.00  0.00    +0.000 N 
ATOM     24  C   UNL     1       8.586   9.181  18.603  0.00  0.00    +0.000 C 
ATOM     25  O   UNL     1       7.724   9.619  17.845  0.00  0.00    +0.000 OA
ATOM     26  N   UNL     1       8.675   7.830  18.919  0.00  0.00    +0.000 N 
ATOM     27  H   UNL     1      10.387   9.413  19.494  0.00  0.00    +0.000 HD
ATOM     28  H   UNL     1       9.572   7.390  19.105  0.00  0.00    +0.000 HD
BRANCH  26  29
ATOM     29  N   UNL     1       7.730   6.983  18.304  0.00  0.00    +0.000 N 
ATOM     30  C   UNL     1       7.273   5.870  18.984  0.00  0.00    +0.000 C 
ATOM     31  O   UNL     1       7.738   5.506  20.063  0.00  0.00    +0.000 OA
ATOM     32  H   UNL     1       7.234   7.397  17.514  0.00  0.00    +0.000 HD
BRANCH  30  33
ATOM     33  C   UNL     1       6.157   5.120  18.339  0.00  0.00    +0.000 A 
ATOM     34  C   UNL     1       5.139   4.602  19.144  0.00  0.00    +0.000 A 
ATOM     35  C   UNL     1       4.061   3.911  18.571  0.00  0.00    +0.000 A 
ATOM     36  C   UNL     1       4.040   3.711  17.195  0.00  0.00    +0.000 A 
ATOM     37  C   UNL     1       5.088   4.165  16.377  0.00  0.00    +0.000 A 
ATOM     38  C   UNL     1       6.123   4.906  16.952  0.00  0.00    +0.000 A 
BRANCH  37  39
ATOM     39  N   UNL     1       4.987   4.057  14.979  0.00  0.00    +0.000 N 
ATOM     40  H   UNL     1       5.883   3.779  14.577  0.00  0.00    +0.000 HD
ATOM     41  H   UNL     1       4.579   4.867  14.527  0.00  0.00    +0.000 HD
ENDBRANCH  37  39
BRANCH  36  42
ATOM     42  O   UNL     1       3.011   3.031  16.597  0.00  0.00    +0.000 OA
ATOM     43  H   UNL     1       3.282   2.794  15.695  0.00  0.00    +0.000 HD
ENDBRANCH  36  42
ENDBRANCH  30  33
ENDBRANCH  26  29
ENDBRANCH   9  23
TORSDOF 7
ENDMDL
MODEL 7
REMARK VINA RESULT:      -7.6      9.485     10.695
REMARK  Name = 
REMARK  8 active torsions:
REMARK  status: ('A' for Active; 'I' for Inactive)
REMARK    1  A    between atoms: C_1  and  O_2
REMARK    2  A    between atoms: O_2  and  C_3
REMARK    3  A    between atoms: C_6  and  C_7
REMARK    4  A    between atoms: C_15  and  N_16
REMARK    5  A    between atoms: N_19  and  N_20
REMARK    6  A    between atoms: C_21  and  C_23
REMARK    7  A    between atoms: C_26  and  O_27
REMARK    8  A    between atoms: C_28  and  N_29
REMARK                            x       y       z     vdW  Elec       q    Type
REMARK                         _______ _______ _______ _____ _____    ______ ____
ROOT
ATOM      1  C   UNL     1      -4.004  13.616  23.148  0.00  0.00    +0.000 A 
ATOM      2  N   UNL     1      -5.246  13.148  23.569  0.00  0.00    +0.000 N 
ATOM      3  N   UNL     1      -6.022  12.658  22.572  0.00  0.00    +0.000 NA
ATOM      4  C   UNL     1      -5.151  12.604  21.577  0.00  0.00    +0.000 A 
ATOM      5  C   UNL     1      -3.861  13.026  21.912  0.00  0.00    +0.000 A 
ATOM      6  C   UNL     1      -2.992  12.892  20.756  0.00  0.00    +0.000 C 
ATOM      7  O   UNL     1      -1.856  13.311  20.644  0.00  0.00    +0.000 OA
ATOM      8  C   UNL     1      -3.897  12.290  19.675  0.00  0.00    +0.000 A 
ATOM      9  C   UNL     1      -3.681  11.949  18.346  0.00  0.00    +0.000 A 
ATOM     10  C   UNL     1      -4.822  11.864  17.519  0.00  0.00    +0.000 A 
ATOM     11  C   UNL     1      -6.130  12.010  18.030  0.00  0.00    +0.000 A 
ATOM     12  C   UNL     1      -6.341  12.186  19.393  0.00  0.00    +0.000 A 
ATOM     13  C   UNL     1      -5.221  12.296  20.189  0.00  0.00    +0.000 A 
ATOM     14  H   UNL     1      -5.658  13.252  24.490  0.00  0.00    +0.000 HD
ENDROOT
BRANCH   1  18
ATOM     15  C   UNL     1      -1.804  16.425  25.518  0.00  0.00    +0.000 A 
ATOM     16  C   UNL     1      -3.090  16.743  25.069  0.00  0.00    +0.000 A 
ATOM     17  C   UNL     1      -3.827  15.845  24.281  0.00  0.00    +0.000 A 
ATOM     18  C   UNL     1      -3.270  14.624  23.907  0.00  0.00    +0.000 A 
ATOM     19  C   UNL     1      -1.965  14.325  24.350  0.00  0.00    +0.000 A 
ATOM     20  C   UNL     1      -1.237  15.213  25.144  0.00  0.00    +0.000 A 
BRANCH  15  22
ATOM     21  C   UNL     1      -1.854  18.631  26.379  0.00  0.00    +0.000 C 
ATOM     22  O   UNL     1      -1.186  17.374  26.287  0.00  0.00    +0.000 OA
ENDBRANCH  15  22
ENDBRANCH   1  18
BRANCH   9  23
ATOM     23  N   UNL     1      -2.445  11.614  17.744  0.00  0.00    +0.000 N 
ATOM     24  C   UNL     1      -1.711  10.483  18.047  0.00  0.00    +0.000 C 
ATOM     25  O   UNL     1      -2.026   9.626  18.869  0.00  0.00    +0.000 OA
ATOM     26  N   UNL     1      -0.540  10.397  17.302  0.00  0.00    +0.000 N 
ATOM     27  H   UNL     1      -2.265  12.000  16.829  0.00  0.00    +0.000 HD
ATOM     28  H   UNL     1      -0.490  10.761  16.354  0.00  0.00    +0.000 HD
BRANCH  26  29
ATOM     29  N   UNL     1       0.260   9.258  17.527  0.00  0.00    +0.000 N 
ATOM     30  C   UNL     1       1.570   9.419  17.936  0.00  0.00    +0.000 C 
ATOM     31  O   UNL     1       2.121  10.516  18.002  0.00  0.00    +0.000 OA
ATOM     32  H   UNL     1      -0.260   8.387  17.647  0.00  0.00    +0.000 HD
BRANCH  30  33
ATOM     33  C   UNL     1       2.297   8.172  18.313  0.00  0.00    +0.000 A 
ATOM     34  C   UNL     1       3.332   7.721  17.489  0.00  0.00    +0.000 A 
ATOM     35  C   UNL     1       4.055   6.566  17.823  0.00  0.00    +0.000 A 
ATOM     36  C   UNL     1       3.700   5.851  18.962  0.00  0.00    +0.000 A 
ATOM     37  C   UNL     1       2.619   6.251  19.764  0.00  0.00    +0.000 A 
ATOM     38  C   UNL     1       1.949   7.437  19.457  0.00  0.00    +0.000 A 
BRANCH  37  39
ATOM     39  N   UNL     1       2.355   5.582  20.973  0.00  0.00    +0.000 N 
ATOM     40  H   UNL     1       2.922   5.971  21.727  0.00  0.00    +0.000 HD
ATOM     41  H   UNL     1       2.409   4.572  20.911  0.00  0.00    +0.000 HD
ENDBRANCH  37  39
BRANCH  36  42
ATOM     42  O   UNL     1       4.372   4.710  19.317  0.00  0.00    +0.000 OA
ATOM     43  H   UNL     1       5.228   4.963  19.698  0.00  0.00    +0.000 HD
ENDBRANCH  36  42
ENDBRANCH  30  33
ENDBRANCH  26  29
ENDBRANCH   9  23
TORSDOF 7
ENDMDL
MODEL 8
REMARK VINA RESULT:      -7.6      8.754      9.780
REMARK  Name = 
REMARK  8 active torsions:
REMARK  status: ('A' for Active; 'I' for Inactive)
REMARK    1  A    between atoms: C_1  and  O_2
REMARK    2  A    between atoms: O_2  and  C_3
REMARK    3  A    between atoms: C_6  and  C_7
REMARK    4  A    between atoms: C_15  and  N_16
REMARK    5  A    between atoms: N_19  and  N_20
REMARK    6  A    between atoms: C_21  and  C_23
REMARK    7  A    between atoms: C_26  and  O_27
REMARK    8  A    between atoms: C_28  and  N_29
REMARK                            x       y       z     vdW  Elec       q    Type
REMARK                         _______ _______ _______ _____ _____    ______ ____
ROOT
ATOM      1  C   UNL     1      -3.630  13.358  22.661  0.00  0.00    +0.000 A 
ATOM      2  N   UNL     1      -4.927  12.851  22.649  0.00  0.00    +0.000 N 
ATOM      3  N   UNL     1      -5.305  12.325  21.459  0.00  0.00    +0.000 NA
ATOM      4  C   UNL     1      -4.149  12.290  20.818  0.00  0.00    +0.000 A 
ATOM      5  C   UNL     1      -3.060  12.760  21.559  0.00  0.00    +0.000 A 
ATOM      6  C   UNL     1      -1.848  12.643  20.768  0.00  0.00    +0.000 C 
ATOM      7  O   UNL     1      -0.754  13.100  21.038  0.00  0.00    +0.000 OA
ATOM      8  C   UNL     1      -2.317  12.000  19.458  0.00  0.00    +0.000 A 
ATOM      9  C   UNL     1      -1.654  11.652  18.288  0.00  0.00    +0.000 A 
ATOM     10  C   UNL     1      -2.445  11.518  17.126  0.00  0.00    +0.000 A 
ATOM     11  C   UNL     1      -3.852  11.625  17.162  0.00  0.00    +0.000 A 
ATOM     12  C   UNL     1      -4.517  11.807  18.370  0.00  0.00    +0.000 A 
ATOM     13  C   UNL     1      -3.736  11.965  19.495  0.00  0.00    +0.000 A 
ATOM     14  H   UNL     1      -5.628  12.951  23.374  0.00  0.00    +0.000 HD
ENDROOT
BRANCH   1  18
ATOM     15  C   UNL     1      -2.528  16.554  25.292  0.00  0.00    +0.000 A 
ATOM     16  C   UNL     1      -1.581  15.593  24.923  0.00  0.00    +0.000 A 
ATOM     17  C   UNL     1      -1.920  14.529  24.071  0.00  0.00    +0.000 A 
ATOM     18  C   UNL     1      -3.225  14.398  23.602  0.00  0.00    +0.000 A 
ATOM     19  C   UNL     1      -4.174  15.362  23.999  0.00  0.00    +0.000 A 
ATOM     20  C   UNL     1      -3.835  16.427  24.835  0.00  0.00    +0.000 A 
BRANCH  15  22
ATOM     21  C   UNL     1      -0.668  17.738  26.156  0.00  0.00    +0.000 C 
ATOM     22  O   UNL     1      -2.081  17.549  26.118  0.00  0.00    +0.000 OA
ENDBRANCH  15  22
ENDBRANCH   1  18
BRANCH   9  23
ATOM     23  N   UNL     1      -0.278  11.353  18.146  0.00  0.00    +0.000 N 
ATOM     24  C   UNL     1       0.230  10.080  17.967  0.00  0.00    +0.000 C 
ATOM     25  O   UNL     1      -0.434   9.049  17.908  0.00  0.00    +0.000 OA
ATOM     26  N   UNL     1       1.615  10.075  17.848  0.00  0.00    +0.000 N 
ATOM     27  H   UNL     1       0.316  12.095  17.805  0.00  0.00    +0.000 HD
ATOM     28  H   UNL     1       2.111  10.853  17.422  0.00  0.00    +0.000 HD
BRANCH  26  29
ATOM     29  N   UNL     1       2.218   8.818  17.636  0.00  0.00    +0.000 N 
ATOM     30  C   UNL     1       2.339   7.936  18.693  0.00  0.00    +0.000 C 
ATOM     31  O   UNL     1       2.054   8.235  19.851  0.00  0.00    +0.000 OA
ATOM     32  H   UNL     1       2.270   8.529  16.658  0.00  0.00    +0.000 HD
BRANCH  30  33
ATOM     33  C   UNL     1       2.834   6.570  18.354  0.00  0.00    +0.000 A 
ATOM     34  C   UNL     1       2.278   5.470  19.012  0.00  0.00    +0.000 A 
ATOM     35  C   UNL     1       2.699   4.169  18.703  0.00  0.00    +0.000 A 
ATOM     36  C   UNL     1       3.709   3.990  17.763  0.00  0.00    +0.000 A 
ATOM     37  C   UNL     1       4.327   5.087  17.141  0.00  0.00    +0.000 A 
ATOM     38  C   UNL     1       3.854   6.373  17.410  0.00  0.00    +0.000 A 
BRANCH  37  39
ATOM     39  N   UNL     1       5.260   4.878  16.109  0.00  0.00    +0.000 N 
ATOM     40  H   UNL     1       5.943   5.636  16.087  0.00  0.00    +0.000 HD
ATOM     41  H   UNL     1       4.845   4.686  15.205  0.00  0.00    +0.000 HD
ENDBRANCH  37  39
BRANCH  36  42
ATOM     42  O   UNL     1       4.159   2.736  17.441  0.00  0.00    +0.000 OA
ATOM     43  H   UNL     1       3.583   2.369  16.751  0.00  0.00    +0.000 HD
ENDBRANCH  36  42
ENDBRANCH  30  33
ENDBRANCH  26  29
ENDBRANCH   9  23
TORSDOF 7
ENDMDL
MODEL 9
REMARK VINA RESULT:      -7.5      8.374      9.028
REMARK  Name = 
REMARK  8 active torsions:
REMARK  status: ('A' for Active; 'I' for Inactive)
REMARK    1  A    between atoms: C_1  and  O_2
REMARK    2  A    between atoms: O_2  and  C_3
REMARK    3  A    between atoms: C_6  and  C_7
REMARK    4  A    between atoms: C_15  and  N_16
REMARK    5  A    between atoms: N_19  and  N_20
REMARK    6  A    between atoms: C_21  and  C_23
REMARK    7  A    between atoms: C_26  and  O_27
REMARK    8  A    between atoms: C_28  and  N_29
REMARK                            x       y       z     vdW  Elec       q    Type
REMARK                         _______ _______ _______ _____ _____    ______ ____
ROOT
ATOM      1  C   UNL     1      -2.354  14.637  20.853  0.00  0.00    +0.000 A 
ATOM      2  N   UNL     1      -2.230  16.024  20.815  0.00  0.00    +0.000 N 
ATOM      3  N   UNL     1      -0.995  16.461  20.468  0.00  0.00    +0.000 NA
ATOM      4  C   UNL     1      -0.436  15.336  20.055  0.00  0.00    +0.000 A 
ATOM      5  C   UNL     1      -1.270  14.216  20.117  0.00  0.00    +0.000 A 
ATOM      6  C   UNL     1      -0.560  13.054  19.611  0.00  0.00    +0.000 C 
ATOM      7  O   UNL     1      -0.924  11.895  19.667  0.00  0.00    +0.000 OA
ATOM      8  C   UNL     1       0.805  13.605  19.186  0.00  0.00    +0.000 A 
ATOM      9  C   UNL     1       1.941  13.006  18.655  0.00  0.00    +0.000 A 
ATOM     10  C   UNL     1       3.159  13.701  18.817  0.00  0.00    +0.000 A 
ATOM     11  C   UNL     1       3.216  14.989  19.391  0.00  0.00    +0.000 A 
ATOM     12  C   UNL     1       2.051  15.648  19.767  0.00  0.00    +0.000 A 
ATOM     13  C   UNL     1       0.869  14.952  19.632  0.00  0.00    +0.000 A 
ATOM     14  H   UNL     1      -2.908  16.707  21.133  0.00  0.00    +0.000 HD
ENDROOT
BRANCH   1  18
ATOM     15  C   UNL     1      -5.465  12.836  23.183  0.00  0.00    +0.000 A 
ATOM     16  C   UNL     1      -4.315  13.327  23.810  0.00  0.00    +0.000 A 
ATOM     17  C   UNL     1      -3.276  13.911  23.068  0.00  0.00    +0.000 A 
ATOM     18  C   UNL     1      -3.364  13.983  21.679  0.00  0.00    +0.000 A 
ATOM     19  C   UNL     1      -4.520  13.466  21.059  0.00  0.00    +0.000 A 
ATOM     20  C   UNL     1      -5.559  12.897  21.798  0.00  0.00    +0.000 A 
BRANCH  15  22
ATOM     21  C   UNL     1      -7.770  12.516  23.624  0.00  0.00    +0.000 C 
ATOM     22  O   UNL     1      -6.414  12.298  24.009  0.00  0.00    +0.000 OA
ENDBRANCH  15  22
ENDBRANCH   1  18
BRANCH   9  23
ATOM     23  N   UNL     1       2.000  11.804  17.912  0.00  0.00    +0.000 N 
ATOM     24  C   UNL     1       1.773  10.547  18.440  0.00  0.00    +0.000 C 
ATOM     25  O   UNL     1       1.493  10.306  19.612  0.00  0.00    +0.000 OA
ATOM     26  N   UNL     1       1.888   9.543  17.486  0.00  0.00    +0.000 N 
ATOM     27  H   UNL     1       1.845  11.876  16.917  0.00  0.00    +0.000 HD
ATOM     28  H   UNL     1       1.636   9.707  16.514  0.00  0.00    +0.000 HD
BRANCH  26  29
ATOM     29  N   UNL     1       1.645   8.228  17.932  0.00  0.00    +0.000 N 
ATOM     30  C   UNL     1       2.654   7.287  17.852  0.00  0.00    +0.000 C 
ATOM     31  O   UNL     1       3.729   7.503  17.296  0.00  0.00    +0.000 OA
ATOM     32  H   UNL     1       0.835   8.127  18.545  0.00  0.00    +0.000 HD
BRANCH  30  33
ATOM     33  C   UNL     1       2.376   5.970  18.495  0.00  0.00    +0.000 A 
ATOM     34  C   UNL     1       1.942   4.908  17.696  0.00  0.00    +0.000 A 
ATOM     35  C   UNL     1       1.693   3.649  18.260  0.00  0.00    +0.000 A 
ATOM     36  C   UNL     1       1.842   3.481  19.633  0.00  0.00    +0.000 A 
ATOM     37  C   UNL     1       2.211   4.553  20.461  0.00  0.00    +0.000 A 
ATOM     38  C   UNL     1       2.518   5.785  19.879  0.00  0.00    +0.000 A 
BRANCH  37  39
ATOM     39  N   UNL     1       2.471   4.331  21.825  0.00  0.00    +0.000 N 
ATOM     40  H   UNL     1       2.989   5.116  22.222  0.00  0.00    +0.000 HD
ATOM     41  H   UNL     1       2.889   3.431  22.029  0.00  0.00    +0.000 HD
ENDBRANCH  37  39
BRANCH  36  42
ATOM     42  O   UNL     1       1.596   2.270  20.226  0.00  0.00    +0.000 OA
ATOM     43  H   UNL     1       2.122   2.213  21.040  0.00  0.00    +0.000 HD
ENDBRANCH  36  42
ENDBRANCH  30  33
ENDBRANCH  26  29
ENDBRANCH   9  23
TORSDOF 7
ENDMDL
