MODEL 1
REMARK VINA RESULT:      -7.9      0.000      0.000
REMARK  Name = 
REMARK  7 active torsions:
REMARK  status: ('A' for Active; 'I' for Inactive)
REMARK    1  A    between atoms: C_2  and  O_3
REMARK    2  A    between atoms: C_2  and  C_4
REMARK    3  A    between atoms: C_4  and  O_5
REMARK    4  A    between atoms: O_5  and  C_6
REMARK    5  A    between atoms: C_12  and  C_13
REMARK    6  A    between atoms: C_13  and  C_15
REMARK    7  A    between atoms: N_18  and  C_19
REMARK                            x       y       z     vdW  Elec       q    Type
REMARK                         _______ _______ _______ _____ _____    ______ ____
ROOT
ATOM      1  C   UNL     1       3.647   3.703  17.545  0.00  0.00    +0.000 C 
ATOM      2  O   UNL     1       3.130   2.596  17.404  0.00  0.00    +0.000 OA
ENDROOT
BRANCH   1   9
ATOM      3  C   UNL     1       6.135   4.283  17.330  0.00  0.00    +0.000 A 
ATOM      4  C   UNL     1       7.225   4.538  16.486  0.00  0.00    +0.000 A 
ATOM      5  C   UNL     1       7.098   4.409  15.102  0.00  0.00    +0.000 A 
ATOM      6  C   UNL     1       5.874   4.056  14.549  0.00  0.00    +0.000 A 
ATOM      7 BR   UNL     1       5.721   3.805  12.684  0.00  0.00    +0.000 Br
ATOM      8  C   UNL     1       4.763   3.870  15.367  0.00  0.00    +0.000 A 
ATOM      9  C   UNL     1       4.876   4.004  16.762  0.00  0.00    +0.000 A 
BRANCH   3  10
ATOM     10  O   UNL     1       6.263   4.261  18.696  0.00  0.00    +0.000 OA
BRANCH  10  11
ATOM     11  C   UNL     1       6.318   5.542  19.336  0.00  0.00    +0.000 C 
BRANCH  11  13
ATOM     12  O   UNL     1       8.375   6.750  18.938  0.00  0.00    +0.000 OA
ATOM     13  C   UNL     1       7.758   5.936  19.613  0.00  0.00    +0.000 C 
BRANCH  13  14
ATOM     14  O   UNL     1       8.312   5.297  20.668  0.00  0.00    +0.000 OA
ATOM     15  H   UNL     1       8.496   5.927  21.396  0.00  0.00    +0.000 HD
ENDBRANCH  13  14
ENDBRANCH  11  13
ENDBRANCH  10  11
ENDBRANCH   3  10
ENDBRANCH   1   9
BRANCH   1  16
ATOM     16  C   UNL     1       3.082   4.664  18.471  0.00  0.00    +0.000 A 
ATOM     17  C   UNL     1       2.611   4.549  19.793  0.00  0.00    +0.000 A 
ATOM     18  N   UNL     1       2.099   5.691  20.257  0.00  0.00    +0.000 NA
ATOM     19  N   UNL     1       2.290   6.593  19.259  0.00  0.00    +0.000 N 
ATOM     20  C   UNL     1       2.911   6.003  18.185  0.00  0.00    +0.000 A 
BRANCH  19  21
ATOM     21  C   UNL     1       1.816   7.929  19.359  0.00  0.00    +0.000 A 
ATOM     22  C   UNL     1       1.866   8.772  18.238  0.00  0.00    +0.000 A 
ATOM     23  C   UNL     1       1.448  10.103  18.345  0.00  0.00    +0.000 A 
ATOM     24  C   UNL     1       0.987  10.592  19.565  0.00  0.00    +0.000 A 
ATOM     25 CL   UNL     1       0.502  12.237  19.704  0.00  0.00    +0.000 Cl
ATOM     26  C   UNL     1       0.922   9.759  20.678  0.00  0.00    +0.000 A 
ATOM     27  C   UNL     1       1.330   8.424  20.577  0.00  0.00    +0.000 A 
ENDBRANCH  19  21
ENDBRANCH   1  16
TORSDOF 7
ENDMDL
MODEL 2
REMARK VINA RESULT:      -7.9      0.338      1.007
REMARK  Name = 
REMARK  7 active torsions:
REMARK  status: ('A' for Active; 'I' for Inactive)
REMARK    1  A    between atoms: C_2  and  O_3
REMARK    2  A    between atoms: C_2  and  C_4
REMARK    3  A    between atoms: C_4  and  O_5
REMARK    4  A    between atoms: O_5  and  C_6
REMARK    5  A    between atoms: C_12  and  C_13
REMARK    6  A    between atoms: C_13  and  C_15
REMARK    7  A    between atoms: N_18  and  C_19
REMARK                            x       y       z     vdW  Elec       q    Type
REMARK                         _______ _______ _______ _____ _____    ______ ____
ROOT
ATOM      1  C   UNL     1       3.972   3.472  17.620  0.00  0.00    +0.000 C 
ATOM      2  O   UNL     1       3.663   2.282  17.634  0.00  0.00    +0.000 OA
ENDROOT
BRANCH   1   9
ATOM      3  C   UNL     1       6.376   4.258  17.199  0.00  0.00    +0.000 A 
ATOM      4  C   UNL     1       7.359   4.621  16.268  0.00  0.00    +0.000 A 
ATOM      5  C   UNL     1       7.115   4.516  14.898  0.00  0.00    +0.000 A 
ATOM      6  C   UNL     1       5.876   4.076  14.448  0.00  0.00    +0.000 A 
ATOM      7 BR   UNL     1       5.571   3.859  12.597  0.00  0.00    +0.000 Br
ATOM      8  C   UNL     1       4.865   3.781  15.356  0.00  0.00    +0.000 A 
ATOM      9  C   UNL     1       5.095   3.891  16.739  0.00  0.00    +0.000 A 
BRANCH   3  10
ATOM     10  O   UNL     1       6.632   4.214  18.546  0.00  0.00    +0.000 OA
BRANCH  10  11
ATOM     11  C   UNL     1       6.586   5.473  19.229  0.00  0.00    +0.000 C 
BRANCH  11  13
ATOM     12  O   UNL     1       8.444   6.981  18.874  0.00  0.00    +0.000 OA
ATOM     13  C   UNL     1       7.990   6.005  19.457  0.00  0.00    +0.000 C 
BRANCH  13  14
ATOM     14  O   UNL     1       8.710   5.295  20.355  0.00  0.00    +0.000 OA
ATOM     15  H   UNL     1       9.164   4.545  19.918  0.00  0.00    +0.000 HD
ENDBRANCH  13  14
ENDBRANCH  11  13
ENDBRANCH  10  11
ENDBRANCH   3  10
ENDBRANCH   1   9
BRANCH   1  16
ATOM     16  C   UNL     1       3.273   4.421  18.463  0.00  0.00    +0.000 A 
ATOM     17  C   UNL     1       2.571   4.281  19.675  0.00  0.00    +0.000 A 
ATOM     18  N   UNL     1       2.011   5.423  20.080  0.00  0.00    +0.000 NA
ATOM     19  N   UNL     1       2.400   6.348  19.165  0.00  0.00    +0.000 N 
ATOM     20  C   UNL     1       3.190   5.773  18.198  0.00  0.00    +0.000 A 
BRANCH  19  21
ATOM     21  C   UNL     1       1.948   7.694  19.225  0.00  0.00    +0.000 A 
ATOM     22  C   UNL     1       1.467   8.216  20.435  0.00  0.00    +0.000 A 
ATOM     23  C   UNL     1       0.973   9.523  20.488  0.00  0.00    +0.000 A 
ATOM     24  C   UNL     1       0.955  10.307  19.336  0.00  0.00    +0.000 A 
ATOM     25 CL   UNL     1       0.319  11.905  19.393  0.00  0.00    +0.000 Cl
ATOM     26  C   UNL     1       1.443   9.803  18.133  0.00  0.00    +0.000 A 
ATOM     27  C   UNL     1       1.946   8.498  18.076  0.00  0.00    +0.000 A 
ENDBRANCH  19  21
ENDBRANCH   1  16
TORSDOF 7
ENDMDL
MODEL 3
REMARK VINA RESULT:      -7.8      2.910      4.307
REMARK  Name = 
REMARK  7 active torsions:
REMARK  status: ('A' for Active; 'I' for Inactive)
REMARK    1  A    between atoms: C_2  and  O_3
REMARK    2  A    between atoms: C_2  and  C_4
REMARK    3  A    between atoms: C_4  and  O_5
REMARK    4  A    between atoms: O_5  and  C_6
REMARK    5  A    between atoms: C_12  and  C_13
REMARK    6  A    between atoms: C_13  and  C_15
REMARK    7  A    between atoms: N_18  and  C_19
REMARK                            x       y       z     vdW  Elec       q    Type
REMARK                         _______ _______ _______ _____ _____    ______ ____
ROOT
ATOM      1  C   UNL     1       3.737   6.287  18.374  0.00  0.00    +0.000 C 
ATOM      2  O   UNL     1       4.932   6.501  18.179  0.00  0.00    +0.000 OA
ENDROOT
BRANCH   1   9
ATOM      3  C   UNL     1       3.482   3.917  17.431  0.00  0.00    +0.000 A 
ATOM      4  C   UNL     1       3.022   2.606  17.625  0.00  0.00    +0.000 A 
ATOM      5  C   UNL     1       2.475   2.218  18.849  0.00  0.00    +0.000 A 
ATOM      6  C   UNL     1       2.355   3.143  19.878  0.00  0.00    +0.000 A 
ATOM      7 BR   UNL     1       1.689   2.600  21.559  0.00  0.00    +0.000 Br
ATOM      8  C   UNL     1       2.740   4.466  19.680  0.00  0.00    +0.000 A 
ATOM      9  C   UNL     1       3.284   4.872  18.449  0.00  0.00    +0.000 A 
BRANCH   3  10
ATOM     10  O   UNL     1       4.152   4.291  16.294  0.00  0.00    +0.000 OA
BRANCH  10  11
ATOM     11  C   UNL     1       5.510   3.842  16.197  0.00  0.00    +0.000 C 
BRANCH  11  13
ATOM     12  O   UNL     1       7.548   4.735  15.248  0.00  0.00    +0.000 OA
ATOM     13  C   UNL     1       6.380   4.915  15.568  0.00  0.00    +0.000 C 
BRANCH  13  14
ATOM     14  O   UNL     1       5.757   6.104  15.401  0.00  0.00    +0.000 OA
ATOM     15  H   UNL     1       5.864   6.665  16.197  0.00  0.00    +0.000 HD
ENDBRANCH  13  14
ENDBRANCH  11  13
ENDBRANCH  10  11
ENDBRANCH   3  10
ENDBRANCH   1   9
BRANCH   1  16
ATOM     16  C   UNL     1       2.805   7.390  18.497  0.00  0.00    +0.000 A 
ATOM     17  C   UNL     1       2.378   8.381  17.592  0.00  0.00    +0.000 A 
ATOM     18  N   UNL     1       1.545   9.262  18.150  0.00  0.00    +0.000 NA
ATOM     19  N   UNL     1       1.362   8.816  19.420  0.00  0.00    +0.000 N 
ATOM     20  C   UNL     1       2.087   7.669  19.641  0.00  0.00    +0.000 A 
BRANCH  19  21
ATOM     21  C   UNL     1       0.573   9.535  20.358  0.00  0.00    +0.000 A 
ATOM     22  C   UNL     1      -0.073  10.717  19.965  0.00  0.00    +0.000 A 
ATOM     23  C   UNL     1      -0.809  11.456  20.897  0.00  0.00    +0.000 A 
ATOM     24  C   UNL     1      -0.897  11.020  22.218  0.00  0.00    +0.000 A 
ATOM     25 CL   UNL     1      -1.776  11.945  23.372  0.00  0.00    +0.000 Cl
ATOM     26  C   UNL     1      -0.270   9.842  22.613  0.00  0.00    +0.000 A 
ATOM     27  C   UNL     1       0.461   9.093  21.684  0.00  0.00    +0.000 A 
ENDBRANCH  19  21
ENDBRANCH   1  16
TORSDOF 7
ENDMDL
MODEL 4
REMARK VINA RESULT:      -7.8      4.711      6.379
REMARK  Name = 
REMARK  7 active torsions:
REMARK  status: ('A' for Active; 'I' for Inactive)
REMARK    1  A    between atoms: C_2  and  O_3
REMARK    2  A    between atoms: C_2  and  C_4
REMARK    3  A    between atoms: C_4  and  O_5
REMARK    4  A    between atoms: O_5  and  C_6
REMARK    5  A    between atoms: C_12  and  C_13
REMARK    6  A    between atoms: C_13  and  C_15
REMARK    7  A    between atoms: N_18  and  C_19
REMARK                            x       y       z     vdW  Elec       q    Type
REMARK                         _______ _______ _______ _____ _____    ______ ____
ROOT
ATOM      1  C   UNL     1       5.657   6.668  16.692  0.00  0.00    +0.000 C 
ATOM      2  O   UNL     1       5.327   7.122  15.598  0.00  0.00    +0.000 OA
ENDROOT
BRANCH   1   9
ATOM      3  C   UNL     1       5.059   4.186  16.922  0.00  0.00    +0.000 A 
ATOM      4  C   UNL     1       4.252   3.211  17.525  0.00  0.00    +0.000 A 
ATOM      5  C   UNL     1       3.336   3.561  18.518  0.00  0.00    +0.000 A 
ATOM      6  C   UNL     1       3.198   4.891  18.895  0.00  0.00    +0.000 A 
ATOM      7 BR   UNL     1       2.016   5.356  20.292  0.00  0.00    +0.000 Br
ATOM      8  C   UNL     1       3.939   5.880  18.256  0.00  0.00    +0.000 A 
ATOM      9  C   UNL     1       4.859   5.542  17.248  0.00  0.00    +0.000 A 
BRANCH   3  10
ATOM     10  O   UNL     1       6.065   3.857  16.049  0.00  0.00    +0.000 OA
BRANCH  10  11
ATOM     11  C   UNL     1       5.695   3.806  14.665  0.00  0.00    +0.000 C 
BRANCH  11  13
ATOM     12  O   UNL     1       6.948   4.149  12.625  0.00  0.00    +0.000 OA
ATOM     13  C   UNL     1       6.776   4.433  13.803  0.00  0.00    +0.000 C 
BRANCH  13  14
ATOM     14  O   UNL     1       7.551   5.330  14.455  0.00  0.00    +0.000 OA
ATOM     15  H   UNL     1       7.939   5.974  13.825  0.00  0.00    +0.000 HD
ENDBRANCH  13  14
ENDBRANCH  11  13
ENDBRANCH  10  11
ENDBRANCH   3  10
ENDBRANCH   1   9
BRANCH   1  16
ATOM     16  C   UNL     1       6.772   7.240  17.418  0.00  0.00    +0.000 A 
ATOM     17  C   UNL     1       7.732   6.682  18.283  0.00  0.00    +0.000 A 
ATOM     18  N   UNL     1       8.555   7.597  18.799  0.00  0.00    +0.000 NA
ATOM     19  N   UNL     1       8.183   8.769  18.219  0.00  0.00    +0.000 N 
ATOM     20  C   UNL     1       7.131   8.572  17.358  0.00  0.00    +0.000 A 
BRANCH  19  21
ATOM     21  C   UNL     1       8.798  10.002  18.567  0.00  0.00    +0.000 A 
ATOM     22  C   UNL     1       9.458  10.131  19.798  0.00  0.00    +0.000 A 
ATOM     23  C   UNL     1      10.019  11.357  20.167  0.00  0.00    +0.000 A 
ATOM     24  C   UNL     1       9.920  12.454  19.313  0.00  0.00    +0.000 A 
ATOM     25 CL   UNL     1      10.584  13.971  19.779  0.00  0.00    +0.000 Cl
ATOM     26  C   UNL     1       9.278  12.332  18.084  0.00  0.00    +0.000 A 
ATOM     27  C   UNL     1       8.721  11.105  17.705  0.00  0.00    +0.000 A 
ENDBRANCH  19  21
ENDBRANCH   1  16
TORSDOF 7
ENDMDL
MODEL 5
REMARK VINA RESULT:      -7.8      4.621      6.482
REMARK  Name = 
REMARK  7 active torsions:
REMARK  status: ('A' for Active; 'I' for Inactive)
REMARK    1  A    between atoms: C_2  and  O_3
REMARK    2  A    between atoms: C_2  and  C_4
REMARK    3  A    between atoms: C_4  and  O_5
REMARK    4  A    between atoms: O_5  and  C_6
REMARK    5  A    between atoms: C_12  and  C_13
REMARK    6  A    between atoms: C_13  and  C_15
REMARK    7  A    between atoms: N_18  and  C_19
REMARK                            x       y       z     vdW  Elec       q    Type
REMARK                         _______ _______ _______ _____ _____    ______ ____
ROOT
ATOM      1  C   UNL     1       5.826   6.700  16.733  0.00  0.00    +0.000 C 
ATOM      2  O   UNL     1       6.010   6.335  15.573  0.00  0.00    +0.000 OA
ENDROOT
BRANCH   1   9
ATOM      3  C   UNL     1       3.884   5.438  17.832  0.00  0.00    +0.000 A 
ATOM      4  C   UNL     1       2.575   5.479  18.333  0.00  0.00    +0.000 A 
ATOM      5  C   UNL     1       1.873   6.684  18.391  0.00  0.00    +0.000 A 
ATOM      6  C   UNL     1       2.461   7.851  17.921  0.00  0.00    +0.000 A 
ATOM      7 BR   UNL     1       1.543   9.494  18.071  0.00  0.00    +0.000 Br
ATOM      8  C   UNL     1       3.732   7.816  17.354  0.00  0.00    +0.000 A 
ATOM      9  C   UNL     1       4.446   6.608  17.282  0.00  0.00    +0.000 A 
BRANCH   3  10
ATOM     10  O   UNL     1       4.650   4.302  17.893  0.00  0.00    +0.000 OA
BRANCH  10  11
ATOM     11  C   UNL     1       4.971   3.839  19.211  0.00  0.00    +0.000 C 
BRANCH  11  13
ATOM     12  O   UNL     1       3.264   2.132  19.064  0.00  0.00    +0.000 OA
ATOM     13  C   UNL     1       4.378   2.462  19.448  0.00  0.00    +0.000 C 
BRANCH  13  14
ATOM     14  O   UNL     1       5.185   1.625  20.140  0.00  0.00    +0.000 OA
ATOM     15  H   UNL     1       4.760   1.349  20.978  0.00  0.00    +0.000 HD
ENDBRANCH  13  14
ENDBRANCH  11  13
ENDBRANCH  10  11
ENDBRANCH   3  10
ENDBRANCH   1   9
BRANCH   1  16
ATOM     16  C   UNL     1       6.922   7.230  17.518  0.00  0.00    +0.000 A 
ATOM     17  C   UNL     1       7.791   6.642  18.458  0.00  0.00    +0.000 A 
ATOM     18  N   UNL     1       8.628   7.525  19.007  0.00  0.00    +0.000 NA
ATOM     19  N   UNL     1       8.361   8.700  18.377  0.00  0.00    +0.000 N 
ATOM     20  C   UNL     1       7.358   8.537  17.452  0.00  0.00    +0.000 A 
BRANCH  19  21
ATOM     21  C   UNL     1       9.021   9.906  18.737  0.00  0.00    +0.000 A 
ATOM     22  C   UNL     1       9.516  10.756  17.736  0.00  0.00    +0.000 A 
ATOM     23  C   UNL     1      10.211  11.918  18.085  0.00  0.00    +0.000 A 
ATOM     24  C   UNL     1      10.415  12.231  19.428  0.00  0.00    +0.000 A 
ATOM     25 CL   UNL     1      11.296  13.645  19.857  0.00  0.00    +0.000 Cl
ATOM     26  C   UNL     1       9.916  11.400  20.427  0.00  0.00    +0.000 A 
ATOM     27  C   UNL     1       9.212  10.240  20.085  0.00  0.00    +0.000 A 
ENDBRANCH  19  21
ENDBRANCH   1  16
TORSDOF 7
ENDMDL
MODEL 6
REMARK VINA RESULT:      -7.7      4.673      6.560
REMARK  Name = 
REMARK  7 active torsions:
REMARK  status: ('A' for Active; 'I' for Inactive)
REMARK    1  A    between atoms: C_2  and  O_3
REMARK    2  A    between atoms: C_2  and  C_4
REMARK    3  A    between atoms: C_4  and  O_5
REMARK    4  A    between atoms: O_5  and  C_6
REMARK    5  A    between atoms: C_12  and  C_13
REMARK    6  A    between atoms: C_13  and  C_15
REMARK    7  A    between atoms: N_18  and  C_19
REMARK                            x       y       z     vdW  Elec       q    Type
REMARK                         _______ _______ _______ _____ _____    ______ ____
ROOT
ATOM      1  C   UNL     1       7.068   5.363  18.144  0.00  0.00    +0.000 C 
ATOM      2  O   UNL     1       8.004   4.596  18.361  0.00  0.00    +0.000 OA
ENDROOT
BRANCH   1   9
ATOM      3  C   UNL     1       5.227   4.015  16.975  0.00  0.00    +0.000 A 
ATOM      4  C   UNL     1       3.919   3.511  17.014  0.00  0.00    +0.000 A 
ATOM      5  C   UNL     1       3.128   3.672  18.153  0.00  0.00    +0.000 A 
ATOM      6  C   UNL     1       3.627   4.364  19.249  0.00  0.00    +0.000 A 
ATOM      7 BR   UNL     1       2.589   4.514  20.819  0.00  0.00    +0.000 Br
ATOM      8  C   UNL     1       4.896   4.933  19.201  0.00  0.00    +0.000 A 
ATOM      9  C   UNL     1       5.699   4.785  18.056  0.00  0.00    +0.000 A 
BRANCH   3  10
ATOM     10  O   UNL     1       6.076   3.751  15.930  0.00  0.00    +0.000 OA
BRANCH  10  11
ATOM     11  C   UNL     1       5.755   4.394  14.690  0.00  0.00    +0.000 C 
BRANCH  11  13
ATOM     12  O   UNL     1       7.875   5.543  14.502  0.00  0.00    +0.000 OA
ATOM     13  C   UNL     1       7.020   4.839  13.979  0.00  0.00    +0.000 C 
BRANCH  13  14
ATOM     14  O   UNL     1       7.120   4.402  12.704  0.00  0.00    +0.000 OA
ATOM     15  H   UNL     1       7.981   3.957  12.557  0.00  0.00    +0.000 HD
ENDBRANCH  13  14
ENDBRANCH  11  13
ENDBRANCH  10  11
ENDBRANCH   3  10
ENDBRANCH   1   9
BRANCH   1  16
ATOM     16  C   UNL     1       7.308   6.779  17.954  0.00  0.00    +0.000 A 
ATOM     17  C   UNL     1       6.784   7.720  17.047  0.00  0.00    +0.000 A 
ATOM     18  N   UNL     1       7.342   8.925  17.176  0.00  0.00    +0.000 NA
ATOM     19  N   UNL     1       8.198   8.805  18.225  0.00  0.00    +0.000 N 
ATOM     20  C   UNL     1       8.169   7.527  18.730  0.00  0.00    +0.000 A 
BRANCH  19  21
ATOM     21  C   UNL     1       9.033   9.879  18.635  0.00  0.00    +0.000 A 
ATOM     22  C   UNL     1       9.714  10.640  17.674  0.00  0.00    +0.000 A 
ATOM     23  C   UNL     1      10.577  11.665  18.075  0.00  0.00    +0.000 A 
ATOM     24  C   UNL     1      10.763  11.928  19.430  0.00  0.00    +0.000 A 
ATOM     25 CL   UNL     1      11.847  13.169  19.925  0.00  0.00    +0.000 Cl
ATOM     26  C   UNL     1      10.081  11.187  20.391  0.00  0.00    +0.000 A 
ATOM     27  C   UNL     1       9.210  10.165  19.996  0.00  0.00    +0.000 A 
ENDBRANCH  19  21
ENDBRANCH   1  16
TORSDOF 7
ENDMDL
MODEL 7
REMARK VINA RESULT:      -7.7      2.932      4.505
REMARK  Name = 
REMARK  7 active torsions:
REMARK  status: ('A' for Active; 'I' for Inactive)
REMARK    1  A    between atoms: C_2  and  O_3
REMARK    2  A    between atoms: C_2  and  C_4
REMARK    3  A    between atoms: C_4  and  O_5
REMARK    4  A    between atoms: O_5  and  C_6
REMARK    5  A    between atoms: C_12  and  C_13
REMARK    6  A    between atoms: C_13  and  C_15
REMARK    7  A    between atoms: N_18  and  C_19
REMARK                            x       y       z     vdW  Elec       q    Type
REMARK                         _______ _______ _______ _____ _____    ______ ____
ROOT
ATOM      1  C   UNL     1       3.742   6.344  18.284  0.00  0.00    +0.000 C 
ATOM      2  O   UNL     1       4.922   6.588  18.038  0.00  0.00    +0.000 OA
ENDROOT
BRANCH   1   9
ATOM      3  C   UNL     1       3.580   3.946  17.392  0.00  0.00    +0.000 A 
ATOM      4  C   UNL     1       3.155   2.627  17.605  0.00  0.00    +0.000 A 
ATOM      5  C   UNL     1       2.593   2.249  18.826  0.00  0.00    +0.000 A 
ATOM      6  C   UNL     1       2.423   3.193  19.831  0.00  0.00    +0.000 A 
ATOM      7 BR   UNL     1       1.736   2.668  21.509  0.00  0.00    +0.000 Br
ATOM      8  C   UNL     1       2.771   4.522  19.610  0.00  0.00    +0.000 A 
ATOM      9  C   UNL     1       3.331   4.917  18.382  0.00  0.00    +0.000 A 
BRANCH   3  10
ATOM     10  O   UNL     1       4.263   4.315  16.261  0.00  0.00    +0.000 OA
BRANCH  10  11
ATOM     11  C   UNL     1       5.561   3.729  16.101  0.00  0.00    +0.000 C 
BRANCH  11  13
ATOM     12  O   UNL     1       6.608   5.439  14.747  0.00  0.00    +0.000 OA
ATOM     13  C   UNL     1       6.241   4.276  14.858  0.00  0.00    +0.000 C 
BRANCH  13  14
ATOM     14  O   UNL     1       6.395   3.368  13.868  0.00  0.00    +0.000 OA
ATOM     15  H   UNL     1       7.343   3.260  13.643  0.00  0.00    +0.000 HD
ENDBRANCH  13  14
ENDBRANCH  11  13
ENDBRANCH  10  11
ENDBRANCH   3  10
ENDBRANCH   1   9
BRANCH   1  16
ATOM     16  C   UNL     1       2.787   7.422  18.444  0.00  0.00    +0.000 A 
ATOM     17  C   UNL     1       2.266   8.373  17.545  0.00  0.00    +0.000 A 
ATOM     18  N   UNL     1       1.448   9.246  18.137  0.00  0.00    +0.000 NA
ATOM     19  N   UNL     1       1.369   8.831  19.429  0.00  0.00    +0.000 N 
ATOM     20  C   UNL     1       2.143   7.713  19.628  0.00  0.00    +0.000 A 
BRANCH  19  21
ATOM     21  C   UNL     1       0.625   9.554  20.401  0.00  0.00    +0.000 A 
ATOM     22  C   UNL     1       0.578   9.096  21.726  0.00  0.00    +0.000 A 
ATOM     23  C   UNL     1      -0.194   9.774  22.675  0.00  0.00    +0.000 A 
ATOM     24  C   UNL     1      -0.920  10.904  22.302  0.00  0.00    +0.000 A 
ATOM     25 CL   UNL     1      -1.894  11.721  23.461  0.00  0.00    +0.000 Cl
ATOM     26  C   UNL     1      -0.868  11.373  20.993  0.00  0.00    +0.000 A 
ATOM     27  C   UNL     1      -0.091  10.704  20.040  0.00  0.00    +0.000 A 
ENDBRANCH  19  21
ENDBRANCH   1  16
TORSDOF 7
ENDMDL
MODEL 8
REMARK VINA RESULT:      -7.6      4.742      6.716
REMARK  Name = 
REMARK  7 active torsions:
REMARK  status: ('A' for Active; 'I' for Inactive)
REMARK    1  A    between atoms: C_2  and  O_3
REMARK    2  A    between atoms: C_2  and  C_4
REMARK    3  A    between atoms: C_4  and  O_5
REMARK    4  A    between atoms: O_5  and  C_6
REMARK    5  A    between atoms: C_12  and  C_13
REMARK    6  A    between atoms: C_13  and  C_15
REMARK    7  A    between atoms: N_18  and  C_19
REMARK                            x       y       z     vdW  Elec       q    Type
REMARK                         _______ _______ _______ _____ _____    ______ ____
ROOT
ATOM      1  C   UNL     1       7.344   5.416  18.351  0.00  0.00    +0.000 C 
ATOM      2  O   UNL     1       8.272   4.707  18.736  0.00  0.00    +0.000 OA
ENDROOT
BRANCH   1   9
ATOM      3  C   UNL     1       5.634   4.234  16.851  0.00  0.00    +0.000 A 
ATOM      4  C   UNL     1       4.373   3.631  16.735  0.00  0.00    +0.000 A 
ATOM      5  C   UNL     1       3.563   3.456  17.859  0.00  0.00    +0.000 A 
ATOM      6  C   UNL     1       3.993   3.911  19.099  0.00  0.00    +0.000 A 
ATOM      7 BR   UNL     1       2.933   3.605  20.632  0.00  0.00    +0.000 Br
ATOM      8  C   UNL     1       5.209   4.576  19.219  0.00  0.00    +0.000 A 
ATOM      9  C   UNL     1       6.030   4.765  18.094  0.00  0.00    +0.000 A 
BRANCH   3  10
ATOM     10  O   UNL     1       6.510   4.291  15.797  0.00  0.00    +0.000 OA
BRANCH  10  11
ATOM     11  C   UNL     1       5.993   4.863  14.589  0.00  0.00    +0.000 C 
BRANCH  11  13
ATOM     12  O   UNL     1       7.677   5.023  12.859  0.00  0.00    +0.000 OA
ATOM     13  C   UNL     1       6.784   4.373  13.389  0.00  0.00    +0.000 C 
BRANCH  13  14
ATOM     14  O   UNL     1       6.409   3.154  12.939  0.00  0.00    +0.000 OA
ATOM     15  H   UNL     1       7.164   2.693  12.518  0.00  0.00    +0.000 HD
ENDBRANCH  13  14
ENDBRANCH  11  13
ENDBRANCH  10  11
ENDBRANCH   3  10
ENDBRANCH   1   9
BRANCH   1  16
ATOM     16  C   UNL     1       7.546   6.834  18.131  0.00  0.00    +0.000 A 
ATOM     17  C   UNL     1       7.002   7.740  17.200  0.00  0.00    +0.000 A 
ATOM     18  N   UNL     1       7.525   8.962  17.307  0.00  0.00    +0.000 NA
ATOM     19  N   UNL     1       8.377   8.889  18.363  0.00  0.00    +0.000 N 
ATOM     20  C   UNL     1       8.380   7.622  18.896  0.00  0.00    +0.000 A 
BRANCH  19  21
ATOM     21  C   UNL     1       9.178   9.995  18.756  0.00  0.00    +0.000 A 
ATOM     22  C   UNL     1       9.277  10.339  20.112  0.00  0.00    +0.000 A 
ATOM     23  C   UNL     1      10.022  11.457  20.499  0.00  0.00    +0.000 A 
ATOM     24  C   UNL     1      10.663  12.234  19.535  0.00  0.00    +0.000 A 
ATOM     25 CL   UNL     1      11.555  13.627  20.007  0.00  0.00    +0.000 Cl
ATOM     26  C   UNL     1      10.581  11.893  18.188  0.00  0.00    +0.000 A 
ATOM     27  C   UNL     1       9.843  10.770  17.795  0.00  0.00    +0.000 A 
ENDBRANCH  19  21
ENDBRANCH   1  16
TORSDOF 7
ENDMDL
MODEL 9
REMARK VINA RESULT:      -7.6      4.867      6.565
REMARK  Name = 
REMARK  7 active torsions:
REMARK  status: ('A' for Active; 'I' for Inactive)
REMARK    1  A    between atoms: C_2  and  O_3
REMARK    2  A    between atoms: C_2  and  C_4
REMARK    3  A    between atoms: C_4  and  O_5
REMARK    4  A    between atoms: O_5  and  C_6
REMARK    5  A    between atoms: C_12  and  C_13
REMARK    6  A    between atoms: C_13  and  C_15
REMARK    7  A    between atoms: N_18  and  C_19
REMARK                            x       y       z     vdW  Elec       q    Type
REMARK                         _______ _______ _______ _____ _____    ______ ____
ROOT
ATOM      1  C   UNL     1       5.508   6.670  16.685  0.00  0.00    +0.000 C 
ATOM      2  O   UNL     1       5.411   6.762  15.462  0.00  0.00    +0.000 OA
ENDROOT
BRANCH   1   9
ATOM      3  C   UNL     1       3.283   6.664  17.959  0.00  0.00    +0.000 A 
ATOM      4  C   UNL     1       2.298   5.919  18.623  0.00  0.00    +0.000 A 
ATOM      5  C   UNL     1       2.365   4.525  18.659  0.00  0.00    +0.000 A 
ATOM      6  C   UNL     1       3.432   3.867  18.059  0.00  0.00    +0.000 A 
ATOM      7 BR   UNL     1       3.482   1.980  18.039  0.00  0.00    +0.000 Br
ATOM      8  C   UNL     1       4.455   4.594  17.459  0.00  0.00    +0.000 A 
ATOM      9  C   UNL     1       4.404   5.999  17.423  0.00  0.00    +0.000 A 
BRANCH   3  10
ATOM     10  O   UNL     1       3.172   8.020  17.783  0.00  0.00    +0.000 OA
BRANCH  10  11
ATOM     11  C   UNL     1       1.835   8.526  17.678  0.00  0.00    +0.000 C 
BRANCH  11  13
ATOM     12  O   UNL     1       1.243  10.192  19.328  0.00  0.00    +0.000 OA
ATOM     13  C   UNL     1       1.754   9.931  18.246  0.00  0.00    +0.000 C 
BRANCH  13  14
ATOM     14  O   UNL     1       2.283  10.883  17.444  0.00  0.00    +0.000 OA
ATOM     15  H   UNL     1       1.811  10.914  16.586  0.00  0.00    +0.000 HD
ENDBRANCH  13  14
ENDBRANCH  11  13
ENDBRANCH  10  11
ENDBRANCH   3  10
ENDBRANCH   1   9
BRANCH   1  16
ATOM     16  C   UNL     1       6.653   7.229  17.375  0.00  0.00    +0.000 A 
ATOM     17  C   UNL     1       7.653   6.652  18.181  0.00  0.00    +0.000 A 
ATOM     18  N   UNL     1       8.495   7.558  18.683  0.00  0.00    +0.000 NA
ATOM     19  N   UNL     1       8.093   8.743  18.152  0.00  0.00    +0.000 N 
ATOM     20  C   UNL     1       7.004   8.563  17.333  0.00  0.00    +0.000 A 
BRANCH  19  21
ATOM     21  C   UNL     1       8.718   9.970  18.503  0.00  0.00    +0.000 A 
ATOM     22  C   UNL     1       8.623  11.073  17.642  0.00  0.00    +0.000 A 
ATOM     23  C   UNL     1       9.280  12.267  17.958  0.00  0.00    +0.000 A 
ATOM     24  C   UNL     1      10.032  12.359  19.127  0.00  0.00    +0.000 A 
ATOM     25 CL   UNL     1      10.865  13.817  19.502  0.00  0.00    +0.000 Cl
ATOM     26  C   UNL     1      10.121  11.274  19.994  0.00  0.00    +0.000 A 
ATOM     27  C   UNL     1       9.459  10.079  19.688  0.00  0.00    +0.000 A 
ENDBRANCH  19  21
ENDBRANCH   1  16
TORSDOF 7
ENDMDL
