MODEL 1
REMARK VINA RESULT:      -7.9      0.000      0.000
REMARK  Name = 
REMARK  11 active torsions:
REMARK  status: ('A' for Active; 'I' for Inactive)
REMARK    1  A    between atoms: C_5  and  N_6
REMARK    2  A    between atoms: N_10  and  C_11
REMARK    3  A    between atoms: C_11  and  C_12
REMARK    4  A    between atoms: C_12  and  C_13
REMARK    5  A    between atoms: C_13  and  C_14
REMARK    6  A    between atoms: C_14  and  C_15
REMARK    7  A    between atoms: C_15  and  C_16
REMARK    8  A    between atoms: C_16  and  C_17
REMARK    9  A    between atoms: C_17  and  C_18
REMARK   10  A    between atoms: C_18  and  N_19
REMARK   11  A    between atoms: N_23  and  C_24
REMARK                            x       y       z     vdW  Elec       q    Type
REMARK                         _______ _______ _______ _____ _____    ______ ____
ROOT
ATOM      1  C   UNL     1      10.459  11.330  18.508  0.00  0.00    +0.000 C 
ENDROOT
BRANCH   1   2
ATOM      2  C   UNL     1       8.995  10.941  18.657  0.00  0.00    +0.000 C 
BRANCH   2   3
ATOM      3  C   UNL     1       8.871   9.424  18.631  0.00  0.00    +0.000 C 
BRANCH   3   4
ATOM      4  C   UNL     1       7.833   8.969  17.612  0.00  0.00    +0.000 C 
BRANCH   4   9
ATOM      5  N   UNL     1       5.660   4.122  19.321  0.00  0.00    +0.000 NA
ATOM      6  C   UNL     1       6.239   5.117  18.705  0.00  0.00    +0.000 A 
ATOM      7  C   UNL     1       7.649   5.508  19.072  0.00  0.00    +0.000 A 
ATOM      8  C   UNL     1       8.100   6.718  18.688  0.00  0.00    +0.000 A 
ATOM      9  N   UNL     1       7.357   7.613  17.930  0.00  0.00    +0.000 N 
ATOM     10  C   UNL     1       6.171   7.164  17.383  0.00  0.00    +0.000 A 
ATOM     11  C   UNL     1       5.631   5.961  17.640  0.00  0.00    +0.000 A 
BRANCH   5  16
ATOM     12  F   UNL     1       0.422   2.476  18.282  0.00  0.00    +0.000 F 
ATOM     13  C   UNL     1       1.676   2.868  18.544  0.00  0.00    +0.000 A 
ATOM     14  C   UNL     1       2.668   2.714  17.589  0.00  0.00    +0.000 A 
ATOM     15  C   UNL     1       3.974   3.149  17.872  0.00  0.00    +0.000 A 
ATOM     16  C   UNL     1       4.317   3.720  19.108  0.00  0.00    +0.000 A 
ATOM     17  C   UNL     1       3.302   3.760  20.075  0.00  0.00    +0.000 A 
ATOM     18  C   UNL     1       1.977   3.400  19.784  0.00  0.00    +0.000 A 
ENDBRANCH   5  16
ENDBRANCH   4   9
ENDBRANCH   3   4
ENDBRANCH   2   3
ENDBRANCH   1   2
BRANCH   1  19
ATOM     19  C   UNL     1      10.645  12.187  17.271  0.00  0.00    +0.000 C 
BRANCH  19  20
ATOM     20  C   UNL     1      11.850  13.099  17.430  0.00  0.00    +0.000 C 
BRANCH  20  21
ATOM     21  C   UNL     1      11.374  14.517  17.709  0.00  0.00    +0.000 C 
BRANCH  21  22
ATOM     22  C   UNL     1      11.236  14.749  19.207  0.00  0.00    +0.000 C 
BRANCH  22  23
ATOM     23  N   UNL     1       9.825  14.853  19.579  0.00  0.00    +0.000 N 
ATOM     24  C   UNL     1       9.284  14.120  20.630  0.00  0.00    +0.000 A 
ATOM     25  C   UNL     1       7.979  14.094  20.943  0.00  0.00    +0.000 A 
ATOM     26  C   UNL     1       7.038  14.932  20.132  0.00  0.00    +0.000 A 
ATOM     27  N   UNL     1       5.755  14.730  20.237  0.00  0.00    +0.000 NA
ATOM     28  C   UNL     1       7.717  15.928  19.240  0.00  0.00    +0.000 A 
ATOM     29  C   UNL     1       9.007  15.764  18.947  0.00  0.00    +0.000 A 
BRANCH  27  30
ATOM     30  C   UNL     1       4.826  15.446  19.453  0.00  0.00    +0.000 A 
ATOM     31  C   UNL     1       4.113  16.559  19.931  0.00  0.00    +0.000 A 
ATOM     32  C   UNL     1       3.061  17.119  19.216  0.00  0.00    +0.000 A 
ATOM     33  C   UNL     1       2.835  16.687  17.923  0.00  0.00    +0.000 A 
ATOM     34  F   UNL     1       1.864  17.264  17.204  0.00  0.00    +0.000 F 
ATOM     35  C   UNL     1       3.620  15.687  17.359  0.00  0.00    +0.000 A 
ATOM     36  C   UNL     1       4.604  15.054  18.130  0.00  0.00    +0.000 A 
ENDBRANCH  27  30
ENDBRANCH  22  23
ENDBRANCH  21  22
ENDBRANCH  20  21
ENDBRANCH  19  20
ENDBRANCH   1  19
TORSDOF 11
ENDMDL
MODEL 2
REMARK VINA RESULT:      -7.7      1.349      2.233
REMARK  Name = 
REMARK  11 active torsions:
REMARK  status: ('A' for Active; 'I' for Inactive)
REMARK    1  A    between atoms: C_5  and  N_6
REMARK    2  A    between atoms: N_10  and  C_11
REMARK    3  A    between atoms: C_11  and  C_12
REMARK    4  A    between atoms: C_12  and  C_13
REMARK    5  A    between atoms: C_13  and  C_14
REMARK    6  A    between atoms: C_14  and  C_15
REMARK    7  A    between atoms: C_15  and  C_16
REMARK    8  A    between atoms: C_16  and  C_17
REMARK    9  A    between atoms: C_17  and  C_18
REMARK   10  A    between atoms: C_18  and  N_19
REMARK   11  A    between atoms: N_23  and  C_24
REMARK                            x       y       z     vdW  Elec       q    Type
REMARK                         _______ _______ _______ _____ _____    ______ ____
ROOT
ATOM      1  C   UNL     1      10.488  11.357  19.223  0.00  0.00    +0.000 C 
ENDROOT
BRANCH   1   2
ATOM      2  C   UNL     1       9.614  10.828  18.096  0.00  0.00    +0.000 C 
BRANCH   2   3
ATOM      3  C   UNL     1       8.880   9.581  18.569  0.00  0.00    +0.000 C 
BRANCH   3   4
ATOM      4  C   UNL     1       7.889   9.088  17.520  0.00  0.00    +0.000 C 
BRANCH   4   9
ATOM      5  N   UNL     1       5.749   4.241  19.266  0.00  0.00    +0.000 NA
ATOM      6  C   UNL     1       6.320   5.234  18.642  0.00  0.00    +0.000 A 
ATOM      7  C   UNL     1       7.729   5.637  19.004  0.00  0.00    +0.000 A 
ATOM      8  C   UNL     1       8.171   6.847  18.611  0.00  0.00    +0.000 A 
ATOM      9  N   UNL     1       7.422   7.732  17.848  0.00  0.00    +0.000 N 
ATOM     10  C   UNL     1       6.238   7.272  17.306  0.00  0.00    +0.000 A 
ATOM     11  C   UNL     1       5.705   6.068  17.573  0.00  0.00    +0.000 A 
BRANCH   5  16
ATOM     12  F   UNL     1       0.510   2.590  18.238  0.00  0.00    +0.000 F 
ATOM     13  C   UNL     1       1.765   2.981  18.496  0.00  0.00    +0.000 A 
ATOM     14  C   UNL     1       2.709   3.010  17.482  0.00  0.00    +0.000 A 
ATOM     15  C   UNL     1       4.015   3.443  17.766  0.00  0.00    +0.000 A 
ATOM     16  C   UNL     1       4.407   3.828  19.058  0.00  0.00    +0.000 A 
ATOM     17  C   UNL     1       3.444   3.684  20.067  0.00  0.00    +0.000 A 
ATOM     18  C   UNL     1       2.117   3.326  19.788  0.00  0.00    +0.000 A 
ENDBRANCH   5  16
ENDBRANCH   4   9
ENDBRANCH   3   4
ENDBRANCH   2   3
ENDBRANCH   1   2
BRANCH   1  19
ATOM     19  C   UNL     1       9.623  11.778  20.396  0.00  0.00    +0.000 C 
BRANCH  19  20
ATOM     20  C   UNL     1      10.203  13.010  21.072  0.00  0.00    +0.000 C 
BRANCH  20  21
ATOM     21  C   UNL     1       9.641  14.258  20.409  0.00  0.00    +0.000 C 
BRANCH  21  22
ATOM     22  C   UNL     1       8.402  14.743  21.147  0.00  0.00    +0.000 C 
BRANCH  22  23
ATOM     23  N   UNL     1       7.241  14.735  20.255  0.00  0.00    +0.000 N 
ATOM     24  C   UNL     1       7.355  14.446  18.900  0.00  0.00    +0.000 A 
ATOM     25  C   UNL     1       6.346  14.531  18.019  0.00  0.00    +0.000 A 
ATOM     26  C   UNL     1       4.995  14.934  18.526  0.00  0.00    +0.000 A 
ATOM     27  N   UNL     1       4.072  15.277  17.673  0.00  0.00    +0.000 NA
ATOM     28  C   UNL     1       4.869  14.916  20.021  0.00  0.00    +0.000 A 
ATOM     29  C   UNL     1       5.975  14.924  20.764  0.00  0.00    +0.000 A 
BRANCH  27  30
ATOM     30  C   UNL     1       2.801  15.724  18.095  0.00  0.00    +0.000 A 
ATOM     31  C   UNL     1       1.802  14.858  18.573  0.00  0.00    +0.000 A 
ATOM     32  C   UNL     1       0.499  15.291  18.788  0.00  0.00    +0.000 A 
ATOM     33  C   UNL     1       0.227  16.642  18.708  0.00  0.00    +0.000 A 
ATOM     34  F   UNL     1      -1.011  17.075  18.975  0.00  0.00    +0.000 F 
ATOM     35  C   UNL     1       1.229  17.551  18.384  0.00  0.00    +0.000 A 
ATOM     36  C   UNL     1       2.512  17.090  18.060  0.00  0.00    +0.000 A 
ENDBRANCH  27  30
ENDBRANCH  22  23
ENDBRANCH  21  22
ENDBRANCH  20  21
ENDBRANCH  19  20
ENDBRANCH   1  19
TORSDOF 11
ENDMDL
MODEL 3
REMARK VINA RESULT:      -7.5      7.901     13.500
REMARK  Name = 
REMARK  11 active torsions:
REMARK  status: ('A' for Active; 'I' for Inactive)
REMARK    1  A    between atoms: C_5  and  N_6
REMARK    2  A    between atoms: N_10  and  C_11
REMARK    3  A    between atoms: C_11  and  C_12
REMARK    4  A    between atoms: C_12  and  C_13
REMARK    5  A    between atoms: C_13  and  C_14
REMARK    6  A    between atoms: C_14  and  C_15
REMARK    7  A    between atoms: C_15  and  C_16
REMARK    8  A    between atoms: C_16  and  C_17
REMARK    9  A    between atoms: C_17  and  C_18
REMARK   10  A    between atoms: C_18  and  N_19
REMARK   11  A    between atoms: N_23  and  C_24
REMARK                            x       y       z     vdW  Elec       q    Type
REMARK                         _______ _______ _______ _____ _____    ______ ____
ROOT
ATOM      1  C   UNL     1      -3.166  10.672  17.115  0.00  0.00    +0.000 C 
ENDROOT
BRANCH   1   2
ATOM      2  C   UNL     1      -4.132  11.464  17.982  0.00  0.00    +0.000 C 
BRANCH   2   3
ATOM      3  C   UNL     1      -5.209  12.083  17.103  0.00  0.00    +0.000 C 
BRANCH   3   4
ATOM      4  C   UNL     1      -6.604  11.802  17.651  0.00  0.00    +0.000 C 
BRANCH   4   9
ATOM      5  N   UNL     1      -6.244  12.811  23.127  0.00  0.00    +0.000 NA
ATOM      6  C   UNL     1      -6.534  12.744  21.856  0.00  0.00    +0.000 A 
ATOM      7  C   UNL     1      -7.344  11.585  21.332  0.00  0.00    +0.000 A 
ATOM      8  C   UNL     1      -7.343  11.349  20.005  0.00  0.00    +0.000 A 
ATOM      9  N   UNL     1      -6.674  12.141  19.082  0.00  0.00    +0.000 N 
ATOM     10  C   UNL     1      -6.143  13.336  19.524  0.00  0.00    +0.000 A 
ATOM     11  C   UNL     1      -6.122  13.721  20.811  0.00  0.00    +0.000 A 
BRANCH   5  16
ATOM     12  F   UNL     1      -2.877  16.609  25.465  0.00  0.00    +0.000 F 
ATOM     13  C   UNL     1      -3.689  15.708  24.897  0.00  0.00    +0.000 A 
ATOM     14  C   UNL     1      -3.276  14.394  24.748  0.00  0.00    +0.000 A 
ATOM     15  C   UNL     1      -4.149  13.457  24.169  0.00  0.00    +0.000 A 
ATOM     16  C   UNL     1      -5.428  13.813  23.712  0.00  0.00    +0.000 A 
ATOM     17  C   UNL     1      -5.758  15.174  23.792  0.00  0.00    +0.000 A 
ATOM     18  C   UNL     1      -4.930  16.107  24.435  0.00  0.00    +0.000 A 
ENDBRANCH   5  16
ENDBRANCH   4   9
ENDBRANCH   3   4
ENDBRANCH   2   3
ENDBRANCH   1   2
BRANCH   1  19
ATOM     19  C   UNL     1      -1.984  10.209  17.945  0.00  0.00    +0.000 C 
BRANCH  19  20
ATOM     20  C   UNL     1      -1.656  11.229  19.022  0.00  0.00    +0.000 C 
BRANCH  20  21
ATOM     21  C   UNL     1      -0.489  10.723  19.856  0.00  0.00    +0.000 C 
BRANCH  21  22
ATOM     22  C   UNL     1       0.812  10.829  19.073  0.00  0.00    +0.000 C 
BRANCH  22  23
ATOM     23  N   UNL     1       1.442   9.514  18.950  0.00  0.00    +0.000 N 
ATOM     24  C   UNL     1       2.211   9.165  17.846  0.00  0.00    +0.000 A 
ATOM     25  C   UNL     1       2.719   7.942  17.630  0.00  0.00    +0.000 A 
ATOM     26  C   UNL     1       2.472   6.881  18.659  0.00  0.00    +0.000 A 
ATOM     27  N   UNL     1       2.719   5.636  18.361  0.00  0.00    +0.000 NA
ATOM     28  C   UNL     1       1.922   7.399  19.955  0.00  0.00    +0.000 A 
ATOM     29  C   UNL     1       1.364   8.608  19.985  0.00  0.00    +0.000 A 
BRANCH  27  30
ATOM     30  C   UNL     1       2.448   4.590  19.268  0.00  0.00    +0.000 A 
ATOM     31  C   UNL     1       1.160   4.062  19.469  0.00  0.00    +0.000 A 
ATOM     32  C   UNL     1       0.883   3.180  20.507  0.00  0.00    +0.000 A 
ATOM     33  C   UNL     1       1.936   2.669  21.241  0.00  0.00    +0.000 A 
ATOM     34  F   UNL     1       1.684   1.770  22.201  0.00  0.00    +0.000 F 
ATOM     35  C   UNL     1       3.245   3.054  20.972  0.00  0.00    +0.000 A 
ATOM     36  C   UNL     1       3.499   4.028  19.997  0.00  0.00    +0.000 A 
ENDBRANCH  27  30
ENDBRANCH  22  23
ENDBRANCH  21  22
ENDBRANCH  20  21
ENDBRANCH  19  20
ENDBRANCH   1  19
TORSDOF 11
ENDMDL
MODEL 4
REMARK VINA RESULT:      -7.4      7.625     12.637
REMARK  Name = 
REMARK  11 active torsions:
REMARK  status: ('A' for Active; 'I' for Inactive)
REMARK    1  A    between atoms: C_5  and  N_6
REMARK    2  A    between atoms: N_10  and  C_11
REMARK    3  A    between atoms: C_11  and  C_12
REMARK    4  A    between atoms: C_12  and  C_13
REMARK    5  A    between atoms: C_13  and  C_14
REMARK    6  A    between atoms: C_14  and  C_15
REMARK    7  A    between atoms: C_15  and  C_16
REMARK    8  A    between atoms: C_16  and  C_17
REMARK    9  A    between atoms: C_17  and  C_18
REMARK   10  A    between atoms: C_18  and  N_19
REMARK   11  A    between atoms: N_23  and  C_24
REMARK                            x       y       z     vdW  Elec       q    Type
REMARK                         _______ _______ _______ _____ _____    ______ ____
ROOT
ATOM      1  C   UNL     1      -2.062  10.088  18.137  0.00  0.00    +0.000 C 
ENDROOT
BRANCH   1   2
ATOM      2  C   UNL     1      -3.232   9.823  17.200  0.00  0.00    +0.000 C 
BRANCH   2   3
ATOM      3  C   UNL     1      -3.489  11.059  16.351  0.00  0.00    +0.000 C 
BRANCH   3   4
ATOM      4  C   UNL     1      -4.950  11.489  16.424  0.00  0.00    +0.000 C 
BRANCH   4   9
ATOM      5  N   UNL     1      -5.833  12.181  21.890  0.00  0.00    +0.000 NA
ATOM      6  C   UNL     1      -5.848  12.165  20.585  0.00  0.00    +0.000 A 
ATOM      7  C   UNL     1      -6.396  10.963  19.855  0.00  0.00    +0.000 A 
ATOM      8  C   UNL     1      -6.097  10.813  18.551  0.00  0.00    +0.000 A 
ATOM      9  N   UNL     1      -5.350  11.727  17.821  0.00  0.00    +0.000 N 
ATOM     10  C   UNL     1      -5.061  12.941  18.412  0.00  0.00    +0.000 A 
ATOM     11  C   UNL     1      -5.347  13.243  19.689  0.00  0.00    +0.000 A 
BRANCH   5  16
ATOM     12  F   UNL     1      -3.830  16.369  24.998  0.00  0.00    +0.000 F 
ATOM     13  C   UNL     1      -4.301  15.358  24.258  0.00  0.00    +0.000 A 
ATOM     14  C   UNL     1      -5.661  15.241  24.020  0.00  0.00    +0.000 A 
ATOM     15  C   UNL     1      -6.135  14.186  23.223  0.00  0.00    +0.000 A 
ATOM     16  C   UNL     1      -5.274  13.223  22.673  0.00  0.00    +0.000 A 
ATOM     17  C   UNL     1      -3.921  13.327  23.026  0.00  0.00    +0.000 A 
ATOM     18  C   UNL     1      -3.421  14.416  23.757  0.00  0.00    +0.000 A 
ENDBRANCH   5  16
ENDBRANCH   4   9
ENDBRANCH   3   4
ENDBRANCH   2   3
ENDBRANCH   1   2
BRANCH   1  19
ATOM     19  C   UNL     1      -1.651  11.545  18.054  0.00  0.00    +0.000 C 
BRANCH  19  20
ATOM     20  C   UNL     1      -1.561  12.154  19.443  0.00  0.00    +0.000 C 
BRANCH  20  21
ATOM     21  C   UNL     1      -0.366  11.561  20.175  0.00  0.00    +0.000 C 
BRANCH  21  22
ATOM     22  C   UNL     1       0.791  11.334  19.212  0.00  0.00    +0.000 C 
BRANCH  22  23
ATOM     23  N   UNL     1       1.209   9.932  19.239  0.00  0.00    +0.000 N 
ATOM     24  C   UNL     1       1.079   9.146  20.378  0.00  0.00    +0.000 A 
ATOM     25  C   UNL     1       1.544   7.892  20.492  0.00  0.00    +0.000 A 
ATOM     26  C   UNL     1       2.224   7.278  19.306  0.00  0.00    +0.000 A 
ATOM     27  N   UNL     1       2.909   6.181  19.464  0.00  0.00    +0.000 NA
ATOM     28  C   UNL     1       2.047   8.047  18.031  0.00  0.00    +0.000 A 
ATOM     29  C   UNL     1       1.663   9.322  18.090  0.00  0.00    +0.000 A 
BRANCH  27  30
ATOM     30  C   UNL     1       3.621   5.593  18.396  0.00  0.00    +0.000 A 
ATOM     31  C   UNL     1       3.079   4.591  17.572  0.00  0.00    +0.000 A 
ATOM     32  C   UNL     1       3.861   3.886  16.664  0.00  0.00    +0.000 A 
ATOM     33  C   UNL     1       5.157   4.307  16.439  0.00  0.00    +0.000 A 
ATOM     34  F   UNL     1       5.897   3.673  15.521  0.00  0.00    +0.000 F 
ATOM     35  C   UNL     1       5.683   5.394  17.130  0.00  0.00    +0.000 A 
ATOM     36  C   UNL     1       4.920   6.025  18.122  0.00  0.00    +0.000 A 
ENDBRANCH  27  30
ENDBRANCH  22  23
ENDBRANCH  21  22
ENDBRANCH  20  21
ENDBRANCH  19  20
ENDBRANCH   1  19
TORSDOF 11
ENDMDL
MODEL 5
REMARK VINA RESULT:      -7.4      1.450     10.448
REMARK  Name = 
REMARK  11 active torsions:
REMARK  status: ('A' for Active; 'I' for Inactive)
REMARK    1  A    between atoms: C_5  and  N_6
REMARK    2  A    between atoms: N_10  and  C_11
REMARK    3  A    between atoms: C_11  and  C_12
REMARK    4  A    between atoms: C_12  and  C_13
REMARK    5  A    between atoms: C_13  and  C_14
REMARK    6  A    between atoms: C_14  and  C_15
REMARK    7  A    between atoms: C_15  and  C_16
REMARK    8  A    between atoms: C_16  and  C_17
REMARK    9  A    between atoms: C_17  and  C_18
REMARK   10  A    between atoms: C_18  and  N_19
REMARK   11  A    between atoms: N_23  and  C_24
REMARK                            x       y       z     vdW  Elec       q    Type
REMARK                         _______ _______ _______ _____ _____    ______ ____
ROOT
ATOM      1  C   UNL     1       9.909  10.654  19.769  0.00  0.00    +0.000 C 
ENDROOT
BRANCH   1   2
ATOM      2  C   UNL     1      10.305  11.861  20.607  0.00  0.00    +0.000 C 
BRANCH   2   3
ATOM      3  C   UNL     1       9.101  12.777  20.773  0.00  0.00    +0.000 C 
BRANCH   3   4
ATOM      4  C   UNL     1       9.429  14.206  20.356  0.00  0.00    +0.000 C 
BRANCH   4   9
ATOM      5  N   UNL     1       4.725  16.412  18.322  0.00  0.00    +0.000 NA
ATOM      6  C   UNL     1       5.782  16.061  19.003  0.00  0.00    +0.000 A 
ATOM      7  C   UNL     1       7.128  16.644  18.652  0.00  0.00    +0.000 A 
ATOM      8  C   UNL     1       8.234  16.032  19.118  0.00  0.00    +0.000 A 
ATOM      9  N   UNL     1       8.207  14.918  19.945  0.00  0.00    +0.000 N 
ATOM     10  C   UNL     1       6.989  14.533  20.469  0.00  0.00    +0.000 A 
ATOM     11  C   UNL     1       5.814  15.090  20.131  0.00  0.00    +0.000 A 
BRANCH   5  16
ATOM     12  F   UNL     1      -0.454  14.479  19.135  0.00  0.00    +0.000 F 
ATOM     13  C   UNL     1       0.789  14.933  18.932  0.00  0.00    +0.000 A 
ATOM     14  C   UNL     1       1.061  16.288  19.027  0.00  0.00    +0.000 A 
ATOM     15  C   UNL     1       2.375  16.745  18.831  0.00  0.00    +0.000 A 
ATOM     16  C   UNL     1       3.428  15.871  18.518  0.00  0.00    +0.000 A 
ATOM     17  C   UNL     1       3.082  14.524  18.333  0.00  0.00    +0.000 A 
ATOM     18  C   UNL     1       1.792  14.041  18.599  0.00  0.00    +0.000 A 
ENDBRANCH   5  16
ENDBRANCH   4   9
ENDBRANCH   3   4
ENDBRANCH   2   3
ENDBRANCH   1   2
BRANCH   1  19
ATOM     19  C   UNL     1       9.818  11.045  18.306  0.00  0.00    +0.000 C 
BRANCH  19  20
ATOM     20  C   UNL     1       8.587  10.428  17.664  0.00  0.00    +0.000 C 
BRANCH  20  21
ATOM     21  C   UNL     1       8.348   9.048  18.258  0.00  0.00    +0.000 C 
BRANCH  21  22
ATOM     22  C   UNL     1       7.583   8.170  17.278  0.00  0.00    +0.000 C 
BRANCH  22  23
ATOM     23  N   UNL     1       6.989   7.028  17.974  0.00  0.00    +0.000 N 
ATOM     24  C   UNL     1       7.735   6.203  18.807  0.00  0.00    +0.000 A 
ATOM     25  C   UNL     1       7.269   5.082  19.381  0.00  0.00    +0.000 A 
ATOM     26  C   UNL     1       5.839   4.704  19.138  0.00  0.00    +0.000 A 
ATOM     27  N   UNL     1       5.436   3.507  19.457  0.00  0.00    +0.000 NA
ATOM     28  C   UNL     1       5.016   5.788  18.507  0.00  0.00    +0.000 A 
ATOM     29  C   UNL     1       5.633   6.796  17.892  0.00  0.00    +0.000 A 
BRANCH  27  30
ATOM     30  C   UNL     1       4.118   3.075  19.195  0.00  0.00    +0.000 A 
ATOM     31  C   UNL     1       3.716   2.540  17.958  0.00  0.00    +0.000 A 
ATOM     32  C   UNL     1       2.379   2.314  17.657  0.00  0.00    +0.000 A 
ATOM     33  C   UNL     1       1.441   2.445  18.663  0.00  0.00    +0.000 A 
ATOM     34  F   UNL     1       0.158   2.168  18.398  0.00  0.00    +0.000 F 
ATOM     35  C   UNL     1       1.821   2.829  19.944  0.00  0.00    +0.000 A 
ATOM     36  C   UNL     1       3.158   3.161  20.205  0.00  0.00    +0.000 A 
ENDBRANCH  27  30
ENDBRANCH  22  23
ENDBRANCH  21  22
ENDBRANCH  20  21
ENDBRANCH  19  20
ENDBRANCH   1  19
TORSDOF 11
ENDMDL
MODEL 6
REMARK VINA RESULT:      -7.3      6.395      8.388
REMARK  Name = 
REMARK  11 active torsions:
REMARK  status: ('A' for Active; 'I' for Inactive)
REMARK    1  A    between atoms: C_5  and  N_6
REMARK    2  A    between atoms: N_10  and  C_11
REMARK    3  A    between atoms: C_11  and  C_12
REMARK    4  A    between atoms: C_12  and  C_13
REMARK    5  A    between atoms: C_13  and  C_14
REMARK    6  A    between atoms: C_14  and  C_15
REMARK    7  A    between atoms: C_15  and  C_16
REMARK    8  A    between atoms: C_16  and  C_17
REMARK    9  A    between atoms: C_17  and  C_18
REMARK   10  A    between atoms: C_18  and  N_19
REMARK   11  A    between atoms: N_23  and  C_24
REMARK                            x       y       z     vdW  Elec       q    Type
REMARK                         _______ _______ _______ _____ _____    ______ ____
ROOT
ATOM      1  C   UNL     1       0.901   2.695  18.781  0.00  0.00    +0.000 C 
ENDROOT
BRANCH   1   2
ATOM      2  C   UNL     1       1.756   2.583  20.035  0.00  0.00    +0.000 C 
BRANCH   2   3
ATOM      3  C   UNL     1       3.073   1.904  19.689  0.00  0.00    +0.000 C 
BRANCH   3   4
ATOM      4  C   UNL     1       4.264   2.713  20.190  0.00  0.00    +0.000 C 
BRANCH   4   9
ATOM      5  N   UNL     1       6.852   5.429  16.061  0.00  0.00    +0.000 NA
ATOM      6  C   UNL     1       6.040   4.951  16.964  0.00  0.00    +0.000 A 
ATOM      7  C   UNL     1       6.140   5.430  18.391  0.00  0.00    +0.000 A 
ATOM      8  C   UNL     1       5.550   4.699  19.356  0.00  0.00    +0.000 A 
ATOM      9  N   UNL     1       4.811   3.550  19.110  0.00  0.00    +0.000 N 
ATOM     10  C   UNL     1       4.508   3.248  17.798  0.00  0.00    +0.000 A 
ATOM     11  C   UNL     1       4.987   3.923  16.740  0.00  0.00    +0.000 A 
BRANCH   5  16
ATOM     12  F   UNL     1       7.166   3.875  10.703  0.00  0.00    +0.000 F 
ATOM     13  C   UNL     1       7.088   4.235  11.990  0.00  0.00    +0.000 A 
ATOM     14  C   UNL     1       7.870   5.272  12.473  0.00  0.00    +0.000 A 
ATOM     15  C   UNL     1       7.761   5.650  13.821  0.00  0.00    +0.000 A 
ATOM     16  C   UNL     1       6.895   4.995  14.711  0.00  0.00    +0.000 A 
ATOM     17  C   UNL     1       6.202   3.889  14.199  0.00  0.00    +0.000 A 
ATOM     18  C   UNL     1       6.242   3.545  12.839  0.00  0.00    +0.000 A 
ENDBRANCH   5  16
ENDBRANCH   4   9
ENDBRANCH   3   4
ENDBRANCH   2   3
ENDBRANCH   1   2
BRANCH   1  19
ATOM     19  C   UNL     1       1.328   3.902  17.968  0.00  0.00    +0.000 C 
BRANCH  19  20
ATOM     20  C   UNL     1       1.420   5.135  18.853  0.00  0.00    +0.000 C 
BRANCH  20  21
ATOM     21  C   UNL     1       2.370   6.139  18.217  0.00  0.00    +0.000 C 
BRANCH  21  22
ATOM     22  C   UNL     1       2.787   7.195  19.230  0.00  0.00    +0.000 C 
BRANCH  22  23
ATOM     23  N   UNL     1       1.847   8.317  19.213  0.00  0.00    +0.000 N 
ATOM     24  C   UNL     1       1.570   9.029  18.052  0.00  0.00    +0.000 A 
ATOM     25  C   UNL     1       0.804  10.130  18.002  0.00  0.00    +0.000 A 
ATOM     26  C   UNL     1       0.175  10.614  19.273  0.00  0.00    +0.000 A 
ATOM     27  N   UNL     1      -0.348  11.807  19.309  0.00  0.00    +0.000 NA
ATOM     28  C   UNL     1       0.249   9.635  20.406  0.00  0.00    +0.000 A 
ATOM     29  C   UNL     1       1.133   8.639  20.347  0.00  0.00    +0.000 A 
BRANCH  27  30
ATOM     30  C   UNL     1      -0.898  12.339  20.495  0.00  0.00    +0.000 A 
ATOM     31  C   UNL     1      -0.121  12.947  21.496  0.00  0.00    +0.000 A 
ATOM     32  C   UNL     1      -0.653  13.277  22.737  0.00  0.00    +0.000 A 
ATOM     33  C   UNL     1      -2.018  13.175  22.922  0.00  0.00    +0.000 A 
ATOM     34  F   UNL     1      -2.547  13.550  24.093  0.00  0.00    +0.000 F 
ATOM     35  C   UNL     1      -2.842  12.718  21.899  0.00  0.00    +0.000 A 
ATOM     36  C   UNL     1      -2.279  12.283  20.691  0.00  0.00    +0.000 A 
ENDBRANCH  27  30
ENDBRANCH  22  23
ENDBRANCH  21  22
ENDBRANCH  20  21
ENDBRANCH  19  20
ENDBRANCH   1  19
TORSDOF 11
ENDMDL
MODEL 7
REMARK VINA RESULT:      -7.1      6.623      8.454
REMARK  Name = 
REMARK  11 active torsions:
REMARK  status: ('A' for Active; 'I' for Inactive)
REMARK    1  A    between atoms: C_5  and  N_6
REMARK    2  A    between atoms: N_10  and  C_11
REMARK    3  A    between atoms: C_11  and  C_12
REMARK    4  A    between atoms: C_12  and  C_13
REMARK    5  A    between atoms: C_13  and  C_14
REMARK    6  A    between atoms: C_14  and  C_15
REMARK    7  A    between atoms: C_15  and  C_16
REMARK    8  A    between atoms: C_16  and  C_17
REMARK    9  A    between atoms: C_17  and  C_18
REMARK   10  A    between atoms: C_18  and  N_19
REMARK   11  A    between atoms: N_23  and  C_24
REMARK                            x       y       z     vdW  Elec       q    Type
REMARK                         _______ _______ _______ _____ _____    ______ ____
ROOT
ATOM      1  C   UNL     1       1.700   4.445  20.826  0.00  0.00    +0.000 C 
ENDROOT
BRANCH   1   2
ATOM      2  C   UNL     1       1.132   3.656  19.656  0.00  0.00    +0.000 C 
BRANCH   2   3
ATOM      3  C   UNL     1       2.049   2.482  19.346  0.00  0.00    +0.000 C 
BRANCH   3   4
ATOM      4  C   UNL     1       3.444   2.700  19.921  0.00  0.00    +0.000 C 
BRANCH   4   9
ATOM      5  N   UNL     1       6.960   5.065  16.291  0.00  0.00    +0.000 NA
ATOM      6  C   UNL     1       5.987   4.726  17.092  0.00  0.00    +0.000 A 
ATOM      7  C   UNL     1       6.111   4.983  18.574  0.00  0.00    +0.000 A 
ATOM      8  C   UNL     1       5.277   4.334  19.409  0.00  0.00    +0.000 A 
ATOM      9  N   UNL     1       4.274   3.475  18.984  0.00  0.00    +0.000 N 
ATOM     10  C   UNL     1       3.994   3.430  17.633  0.00  0.00    +0.000 A 
ATOM     11  C   UNL     1       4.712   4.068  16.694  0.00  0.00    +0.000 A 
BRANCH   5  16
ATOM     12  F   UNL     1       7.183   4.187  10.777  0.00  0.00    +0.000 F 
ATOM     13  C   UNL     1       7.127   4.385  12.100  0.00  0.00    +0.000 A 
ATOM     14  C   UNL     1       7.936   5.338  12.698  0.00  0.00    +0.000 A 
ATOM     15  C   UNL     1       7.849   5.547  14.085  0.00  0.00    +0.000 A 
ATOM     16  C   UNL     1       6.979   4.802  14.897  0.00  0.00    +0.000 A 
ATOM     17  C   UNL     1       6.257   3.782  14.260  0.00  0.00    +0.000 A 
ATOM     18  C   UNL     1       6.276   3.611  12.867  0.00  0.00    +0.000 A 
ENDBRANCH   5  16
ENDBRANCH   4   9
ENDBRANCH   3   4
ENDBRANCH   2   3
ENDBRANCH   1   2
BRANCH   1  19
ATOM     19  C   UNL     1       1.980   5.874  20.401  0.00  0.00    +0.000 C 
BRANCH  19  20
ATOM     20  C   UNL     1       1.818   6.024  18.897  0.00  0.00    +0.000 C 
BRANCH  20  21
ATOM     21  C   UNL     1       2.299   7.404  18.476  0.00  0.00    +0.000 C 
BRANCH  21  22
ATOM     22  C   UNL     1       2.227   8.375  19.646  0.00  0.00    +0.000 C 
BRANCH  22  23
ATOM     23  N   UNL     1       1.067   9.256  19.506  0.00  0.00    +0.000 N 
ATOM     24  C   UNL     1       0.587   9.653  18.263  0.00  0.00    +0.000 A 
ATOM     25  C   UNL     1      -0.401  10.543  18.080  0.00  0.00    +0.000 A 
ATOM     26  C   UNL     1      -1.058  11.131  19.291  0.00  0.00    +0.000 A 
ATOM     27  N   UNL     1      -1.825  12.175  19.154  0.00  0.00    +0.000 NA
ATOM     28  C   UNL     1      -0.720  10.431  20.574  0.00  0.00    +0.000 A 
ATOM     29  C   UNL     1       0.354   9.644  20.620  0.00  0.00    +0.000 A 
BRANCH  27  30
ATOM     30  C   UNL     1      -2.421  12.808  20.266  0.00  0.00    +0.000 A 
ATOM     31  C   UNL     1      -1.718  13.666  21.129  0.00  0.00    +0.000 A 
ATOM     32  C   UNL     1      -2.266  14.112  22.326  0.00  0.00    +0.000 A 
ATOM     33  C   UNL     1      -3.598  13.856  22.581  0.00  0.00    +0.000 A 
ATOM     34  F   UNL     1      -4.151  14.336  23.702  0.00  0.00    +0.000 F 
ATOM     35  C   UNL     1      -4.370  13.135  21.676  0.00  0.00    +0.000 A 
ATOM     36  C   UNL     1      -3.777  12.596  20.527  0.00  0.00    +0.000 A 
ENDBRANCH  27  30
ENDBRANCH  22  23
ENDBRANCH  21  22
ENDBRANCH  20  21
ENDBRANCH  19  20
ENDBRANCH   1  19
TORSDOF 11
ENDMDL
MODEL 8
REMARK VINA RESULT:      -7.1      1.615     10.470
REMARK  Name = 
REMARK  11 active torsions:
REMARK  status: ('A' for Active; 'I' for Inactive)
REMARK    1  A    between atoms: C_5  and  N_6
REMARK    2  A    between atoms: N_10  and  C_11
REMARK    3  A    between atoms: C_11  and  C_12
REMARK    4  A    between atoms: C_12  and  C_13
REMARK    5  A    between atoms: C_13  and  C_14
REMARK    6  A    between atoms: C_14  and  C_15
REMARK    7  A    between atoms: C_15  and  C_16
REMARK    8  A    between atoms: C_16  and  C_17
REMARK    9  A    between atoms: C_17  and  C_18
REMARK   10  A    between atoms: C_18  and  N_19
REMARK   11  A    between atoms: N_23  and  C_24
REMARK                            x       y       z     vdW  Elec       q    Type
REMARK                         _______ _______ _______ _____ _____    ______ ____
ROOT
ATOM      1  C   UNL     1       8.976  11.030  20.334  0.00  0.00    +0.000 C 
ENDROOT
BRANCH   1   2
ATOM      2  C   UNL     1      10.253  11.639  20.895  0.00  0.00    +0.000 C 
BRANCH   2   3
ATOM      3  C   UNL     1      11.251  11.849  19.766  0.00  0.00    +0.000 C 
BRANCH   3   4
ATOM      4  C   UNL     1      11.307  13.311  19.338  0.00  0.00    +0.000 C 
BRANCH   4   9
ATOM      5  N   UNL     1       6.108  14.509  17.704  0.00  0.00    +0.000 NA
ATOM      6  C   UNL     1       7.390  14.443  17.941  0.00  0.00    +0.000 A 
ATOM      7  C   UNL     1       8.250  13.485  17.154  0.00  0.00    +0.000 A 
ATOM      8  C   UNL     1       9.473  13.182  17.630  0.00  0.00    +0.000 A 
ATOM      9  N   UNL     1      10.011  13.737  18.784  0.00  0.00    +0.000 N 
ATOM     10  C   UNL     1       9.337  14.791  19.366  0.00  0.00    +0.000 A 
ATOM     11  C   UNL     1       8.134  15.231  18.962  0.00  0.00    +0.000 A 
BRANCH   5  16
ATOM     12  F   UNL     1       2.369  17.638  20.433  0.00  0.00    +0.000 F 
ATOM     13  C   UNL     1       3.271  16.886  19.790  0.00  0.00    +0.000 A 
ATOM     14  C   UNL     1       2.906  16.174  18.659  0.00  0.00    +0.000 A 
ATOM     15  C   UNL     1       3.871  15.406  17.984  0.00  0.00    +0.000 A 
ATOM     16  C   UNL     1       5.198  15.316  18.433  0.00  0.00    +0.000 A 
ATOM     17  C   UNL     1       5.490  15.972  19.638  0.00  0.00    +0.000 A 
ATOM     18  C   UNL     1       4.561  16.803  20.281  0.00  0.00    +0.000 A 
ENDBRANCH   5  16
ENDBRANCH   4   9
ENDBRANCH   3   4
ENDBRANCH   2   3
ENDBRANCH   1   2
BRANCH   1  19
ATOM     19  C   UNL     1       9.302   9.772  19.552  0.00  0.00    +0.000 C 
BRANCH  19  20
ATOM     20  C   UNL     1       8.903   9.931  18.094  0.00  0.00    +0.000 C 
BRANCH  20  21
ATOM     21  C   UNL     1       7.838   8.901  17.749  0.00  0.00    +0.000 C 
BRANCH  21  22
ATOM     22  C   UNL     1       8.207   7.540  18.320  0.00  0.00    +0.000 C 
BRANCH  22  23
ATOM     23  N   UNL     1       7.105   6.594  18.137  0.00  0.00    +0.000 N 
ATOM     24  C   UNL     1       6.588   6.299  16.881  0.00  0.00    +0.000 A 
ATOM     25  C   UNL     1       5.511   5.527  16.666  0.00  0.00    +0.000 A 
ATOM     26  C   UNL     1       4.831   4.913  17.852  0.00  0.00    +0.000 A 
ATOM     27  N   UNL     1       3.649   4.385  17.704  0.00  0.00    +0.000 NA
ATOM     28  C   UNL     1       5.617   5.006  19.126  0.00  0.00    +0.000 A 
ATOM     29  C   UNL     1       6.607   5.893  19.214  0.00  0.00    +0.000 A 
BRANCH  27  30
ATOM     30  C   UNL     1       2.936   3.848  18.797  0.00  0.00    +0.000 A 
ATOM     31  C   UNL     1       1.622   4.230  19.119  0.00  0.00    +0.000 A 
ATOM     32  C   UNL     1       1.018   3.844  20.310  0.00  0.00    +0.000 A 
ATOM     33  C   UNL     1       1.656   2.913  21.105  0.00  0.00    +0.000 A 
ATOM     34  F   UNL     1       1.053   2.488  22.223  0.00  0.00    +0.000 F 
ATOM     35  C   UNL     1       2.895   2.396  20.742  0.00  0.00    +0.000 A 
ATOM     36  C   UNL     1       3.543   2.877  19.597  0.00  0.00    +0.000 A 
ENDBRANCH  27  30
ENDBRANCH  22  23
ENDBRANCH  21  22
ENDBRANCH  20  21
ENDBRANCH  19  20
ENDBRANCH   1  19
TORSDOF 11
ENDMDL
MODEL 9
REMARK VINA RESULT:      -7.1      8.081     10.787
REMARK  Name = 
REMARK  11 active torsions:
REMARK  status: ('A' for Active; 'I' for Inactive)
REMARK    1  A    between atoms: C_5  and  N_6
REMARK    2  A    between atoms: N_10  and  C_11
REMARK    3  A    between atoms: C_11  and  C_12
REMARK    4  A    between atoms: C_12  and  C_13
REMARK    5  A    between atoms: C_13  and  C_14
REMARK    6  A    between atoms: C_14  and  C_15
REMARK    7  A    between atoms: C_15  and  C_16
REMARK    8  A    between atoms: C_16  and  C_17
REMARK    9  A    between atoms: C_17  and  C_18
REMARK   10  A    between atoms: C_18  and  N_19
REMARK   11  A    between atoms: N_23  and  C_24
REMARK                            x       y       z     vdW  Elec       q    Type
REMARK                         _______ _______ _______ _____ _____    ______ ____
ROOT
ATOM      1  C   UNL     1      -2.480  10.079  16.384  0.00  0.00    +0.000 C 
ENDROOT
BRANCH   1   2
ATOM      2  C   UNL     1      -1.599   9.730  17.573  0.00  0.00    +0.000 C 
BRANCH   2   3
ATOM      3  C   UNL     1      -0.908  10.989  18.077  0.00  0.00    +0.000 C 
BRANCH   3   4
ATOM      4  C   UNL     1      -0.439  10.827  19.519  0.00  0.00    +0.000 C 
BRANCH   4   9
ATOM      5  N   UNL     1       2.775   6.267  19.598  0.00  0.00    +0.000 NA
ATOM      6  C   UNL     1       2.249   7.460  19.645  0.00  0.00    +0.000 A 
ATOM      7  C   UNL     1       1.492   7.899  20.874  0.00  0.00    +0.000 A 
ATOM      8  C   UNL     1       0.680   8.969  20.780  0.00  0.00    +0.000 A 
ATOM      9  N   UNL     1       0.532   9.725  19.626  0.00  0.00    +0.000 N 
ATOM     10  C   UNL     1       1.402   9.484  18.581  0.00  0.00    +0.000 A 
ATOM     11  C   UNL     1       2.297   8.483  18.563  0.00  0.00    +0.000 A 
BRANCH   5  16
ATOM     12  F   UNL     1       5.278   3.959  15.167  0.00  0.00    +0.000 F 
ATOM     13  C   UNL     1       4.679   4.523  16.223  0.00  0.00    +0.000 A 
ATOM     14  C   UNL     1       3.701   3.834  16.922  0.00  0.00    +0.000 A 
ATOM     15  C   UNL     1       3.098   4.434  18.040  0.00  0.00    +0.000 A 
ATOM     16  C   UNL     1       3.439   5.727  18.466  0.00  0.00    +0.000 A 
ATOM     17  C   UNL     1       4.359   6.421  17.667  0.00  0.00    +0.000 A 
ATOM     18  C   UNL     1       5.025   5.810  16.593  0.00  0.00    +0.000 A 
ENDBRANCH   5  16
ENDBRANCH   4   9
ENDBRANCH   3   4
ENDBRANCH   2   3
ENDBRANCH   1   2
BRANCH   1  19
ATOM     19  C   UNL     1      -3.922  10.224  16.831  0.00  0.00    +0.000 C 
BRANCH  19  20
ATOM     20  C   UNL     1      -4.572  11.421  16.157  0.00  0.00    +0.000 C 
BRANCH  20  21
ATOM     21  C   UNL     1      -5.304  12.250  17.201  0.00  0.00    +0.000 C 
BRANCH  21  22
ATOM     22  C   UNL     1      -6.319  11.396  17.946  0.00  0.00    +0.000 C 
BRANCH  22  23
ATOM     23  N   UNL     1      -6.321  11.731  19.371  0.00  0.00    +0.000 N 
ATOM     24  C   UNL     1      -7.355  11.349  20.217  0.00  0.00    +0.000 A 
ATOM     25  C   UNL     1      -7.461  11.722  21.502  0.00  0.00    +0.000 A 
ATOM     26  C   UNL     1      -6.379  12.582  22.082  0.00  0.00    +0.000 A 
ATOM     27  N   UNL     1      -6.580  13.170  23.227  0.00  0.00    +0.000 NA
ATOM     28  C   UNL     1      -5.153  12.687  21.225  0.00  0.00    +0.000 A 
ATOM     29  C   UNL     1      -5.234  12.363  19.935  0.00  0.00    +0.000 A 
BRANCH  27  30
ATOM     30  C   UNL     1      -5.623  14.040  23.791  0.00  0.00    +0.000 A 
ATOM     31  C   UNL     1      -5.808  15.431  23.884  0.00  0.00    +0.000 A 
ATOM     32  C   UNL     1      -4.776  16.285  24.252  0.00  0.00    +0.000 A 
ATOM     33  C   UNL     1      -3.596  15.738  24.715  0.00  0.00    +0.000 A 
ATOM     34  F   UNL     1      -2.618  16.553  25.130  0.00  0.00    +0.000 F 
ATOM     35  C   UNL     1      -3.428  14.359  24.779  0.00  0.00    +0.000 A 
ATOM     36  C   UNL     1      -4.435  13.510  24.300  0.00  0.00    +0.000 A 
ENDBRANCH  27  30
ENDBRANCH  22  23
ENDBRANCH  21  22
ENDBRANCH  20  21
ENDBRANCH  19  20
ENDBRANCH   1  19
TORSDOF 11
ENDMDL
