MODEL 1
REMARK VINA RESULT:      -8.7      0.000      0.000
REMARK  Name = 
REMARK  7 active torsions:
REMARK  status: ('A' for Active; 'I' for Inactive)
REMARK    1  A    between atoms: C_1  and  N_2
REMARK    2  A    between atoms: C_6  and  O_8
REMARK    3  A    between atoms: O_8  and  C_9
REMARK    4  A    between atoms: C_9  and  C_10
REMARK    5  A    between atoms: C_23  and  O_25
REMARK    6  A    between atoms: O_25  and  C_26
REMARK    7  A    between atoms: C_26  and  C_27
REMARK                            x       y       z     vdW  Elec       q    Type
REMARK                         _______ _______ _______ _____ _____    ______ ____
ROOT
ATOM      1  C   UNL     1       3.691   1.757  18.404  0.00  0.00    +0.000 C 
ATOM      2  N   UNL     1       3.838   3.192  18.074  0.00  0.00    +0.000 N 
ATOM      3  C   UNL     1       4.641   3.686  17.055  0.00  0.00    +0.000 A 
ATOM      4  N   UNL     1       5.353   2.812  16.283  0.00  0.00    +0.000 N 
ATOM      5  N   UNL     1       4.714   5.035  16.807  0.00  0.00    +0.000 N 
ATOM      6  C   UNL     1       5.463   5.625  15.745  0.00  0.00    +0.000 C 
ATOM      7  O   UNL     1       5.186   6.701  15.241  0.00  0.00    +0.000 OA
ATOM      8  C   UNL     1       4.023   6.008  17.608  0.00  0.00    +0.000 A 
ATOM      9  O   UNL     1       4.235   7.199  17.501  0.00  0.00    +0.000 OA
ATOM     10  C   UNL     1       3.176   5.435  18.590  0.00  0.00    +0.000 A 
ATOM     11  C   UNL     1       3.112   4.095  18.814  0.00  0.00    +0.000 A 
ATOM     12  N   UNL     1       2.286   3.790  19.839  0.00  0.00    +0.000 NA
ATOM     13  C   UNL     1       1.823   4.955  20.253  0.00  0.00    +0.000 A 
ATOM     14  N   UNL     1       2.310   6.023  19.515  0.00  0.00    +0.000 N 
ATOM     15  C   UNL     1       1.982   7.386  19.695  0.00  0.00    +0.000 C 
ATOM     16  O   UNL     1       2.469   8.246  18.988  0.00  0.00    +0.000 OA
ATOM     17  H   UNL     1       5.349   1.811  16.402  0.00  0.00    +0.000 HD
ATOM     18  H   UNL     1       6.000   3.159  15.578  0.00  0.00    +0.000 HD
ENDROOT
BRANCH   6  19
ATOM     19  O   UNL     1       6.476   4.834  15.298  0.00  0.00    +0.000 OA
BRANCH  19  20
ATOM     20  C   UNL     1       6.962   5.140  13.976  0.00  0.00    +0.000 C 
BRANCH  20  21
ATOM     21  C   UNL     1       6.443   4.101  13.019  0.00  0.00    +0.000 A 
ATOM     22  C   UNL     1       5.064   3.931  12.828  0.00  0.00    +0.000 A 
ATOM     23  C   UNL     1       4.588   2.985  11.916  0.00  0.00    +0.000 A 
ATOM     24  C   UNL     1       5.481   2.198  11.194  0.00  0.00    +0.000 A 
ATOM     25  C   UNL     1       6.854   2.350  11.384  0.00  0.00    +0.000 A 
ATOM     26  C   UNL     1       7.334   3.294  12.295  0.00  0.00    +0.000 A 
ENDBRANCH  20  21
ENDBRANCH  19  20
ENDBRANCH   6  19
BRANCH  15  27
ATOM     27  O   UNL     1       1.106   7.555  20.719  0.00  0.00    +0.000 OA
BRANCH  27  28
ATOM     28  C   UNL     1       1.489   8.536  21.714  0.00  0.00    +0.000 C 
BRANCH  28  29
ATOM     29  C   UNL     1       0.464   9.642  21.816  0.00  0.00    +0.000 A 
ATOM     30  C   UNL     1       0.136  10.427  20.701  0.00  0.00    +0.000 A 
ATOM     31  C   UNL     1      -0.834  11.429  20.795  0.00  0.00    +0.000 A 
ATOM     32  C   UNL     1      -1.496  11.655  21.999  0.00  0.00    +0.000 A 
ATOM     33  C   UNL     1      -1.196  10.871  23.111  0.00  0.00    +0.000 A 
ATOM     34  C   UNL     1      -0.224   9.869  23.020  0.00  0.00    +0.000 A 
ENDBRANCH  28  29
ENDBRANCH  27  28
ENDBRANCH  15  27
TORSDOF 6
ENDMDL
MODEL 2
REMARK VINA RESULT:      -8.6      2.611      4.012
REMARK  Name = 
REMARK  7 active torsions:
REMARK  status: ('A' for Active; 'I' for Inactive)
REMARK    1  A    between atoms: C_1  and  N_2
REMARK    2  A    between atoms: C_6  and  O_8
REMARK    3  A    between atoms: O_8  and  C_9
REMARK    4  A    between atoms: C_9  and  C_10
REMARK    5  A    between atoms: C_23  and  O_25
REMARK    6  A    between atoms: O_25  and  C_26
REMARK    7  A    between atoms: C_26  and  C_27
REMARK                            x       y       z     vdW  Elec       q    Type
REMARK                         _______ _______ _______ _____ _____    ______ ____
ROOT
ATOM      1  C   UNL     1       2.872   3.191  20.606  0.00  0.00    +0.000 C 
ATOM      2  N   UNL     1       3.135   4.192  19.549  0.00  0.00    +0.000 N 
ATOM      3  C   UNL     1       3.894   3.954  18.411  0.00  0.00    +0.000 A 
ATOM      4  N   UNL     1       4.447   2.719  18.224  0.00  0.00    +0.000 N 
ATOM      5  N   UNL     1       4.081   4.938  17.471  0.00  0.00    +0.000 N 
ATOM      6  C   UNL     1       4.793   4.765  16.247  0.00  0.00    +0.000 C 
ATOM      7  O   UNL     1       4.585   5.430  15.245  0.00  0.00    +0.000 OA
ATOM      8  C   UNL     1       3.563   6.269  17.630  0.00  0.00    +0.000 A 
ATOM      9  O   UNL     1       3.883   7.179  16.891  0.00  0.00    +0.000 OA
ATOM     10  C   UNL     1       2.748   6.427  18.780  0.00  0.00    +0.000 A 
ATOM     11  C   UNL     1       2.568   5.436  19.694  0.00  0.00    +0.000 A 
ATOM     12  N   UNL     1       1.806   5.838  20.735  0.00  0.00    +0.000 NA
ATOM     13  C   UNL     1       1.499   7.092  20.461  0.00  0.00    +0.000 A 
ATOM     14  N   UNL     1       2.028   7.525  19.254  0.00  0.00    +0.000 N 
ATOM     15  C   UNL     1       1.855   8.802  18.673  0.00  0.00    +0.000 C 
ATOM     16  O   UNL     1       2.364   9.078  17.605  0.00  0.00    +0.000 OA
ATOM     17  H   UNL     1       4.352   1.948  18.866  0.00  0.00    +0.000 HD
ATOM     18  H   UNL     1       5.063   2.547  17.432  0.00  0.00    +0.000 HD
ENDROOT
BRANCH   6  19
ATOM     19  O   UNL     1       5.680   3.734  16.283  0.00  0.00    +0.000 OA
BRANCH  19  20
ATOM     20  C   UNL     1       7.060   4.099  16.086  0.00  0.00    +0.000 C 
BRANCH  20  21
ATOM     21  C   UNL     1       7.417   5.183  17.067  0.00  0.00    +0.000 A 
ATOM     22  C   UNL     1       7.765   4.866  18.387  0.00  0.00    +0.000 A 
ATOM     23  C   UNL     1       8.124   5.873  19.286  0.00  0.00    +0.000 A 
ATOM     24  C   UNL     1       8.132   7.205  18.878  0.00  0.00    +0.000 A 
ATOM     25  C   UNL     1       7.777   7.534  17.571  0.00  0.00    +0.000 A 
ATOM     26  C   UNL     1       7.416   6.530  16.669  0.00  0.00    +0.000 A 
ENDBRANCH  20  21
ENDBRANCH  19  20
ENDBRANCH   6  19
BRANCH  15  27
ATOM     27  O   UNL     1       1.090   9.606  19.457  0.00  0.00    +0.000 OA
BRANCH  27  28
ATOM     28  C   UNL     1       0.668  10.852  18.851  0.00  0.00    +0.000 C 
BRANCH  28  29
ATOM     29  C   UNL     1      -0.805  10.827  18.515  0.00  0.00    +0.000 A 
ATOM     30  C   UNL     1      -1.698  11.724  19.121  0.00  0.00    +0.000 A 
ATOM     31  C   UNL     1      -3.055  11.715  18.784  0.00  0.00    +0.000 A 
ATOM     32  C   UNL     1      -3.537  10.819  17.833  0.00  0.00    +0.000 A 
ATOM     33  C   UNL     1      -2.659   9.936  17.208  0.00  0.00    +0.000 A 
ATOM     34  C   UNL     1      -1.302   9.941  17.545  0.00  0.00    +0.000 A 
ENDBRANCH  28  29
ENDBRANCH  27  28
ENDBRANCH  15  27
TORSDOF 6
ENDMDL
MODEL 3
REMARK VINA RESULT:      -8.4      4.503      7.632
REMARK  Name = 
REMARK  7 active torsions:
REMARK  status: ('A' for Active; 'I' for Inactive)
REMARK    1  A    between atoms: C_1  and  N_2
REMARK    2  A    between atoms: C_6  and  O_8
REMARK    3  A    between atoms: O_8  and  C_9
REMARK    4  A    between atoms: C_9  and  C_10
REMARK    5  A    between atoms: C_23  and  O_25
REMARK    6  A    between atoms: O_25  and  C_26
REMARK    7  A    between atoms: C_26  and  C_27
REMARK                            x       y       z     vdW  Elec       q    Type
REMARK                         _______ _______ _______ _____ _____    ______ ____
ROOT
ATOM      1  C   UNL     1       0.165   9.345  23.306  0.00  0.00    +0.000 C 
ATOM      2  N   UNL     1       0.458   9.795  21.927  0.00  0.00    +0.000 N 
ATOM      3  C   UNL     1       1.061   9.008  20.955  0.00  0.00    +0.000 A 
ATOM      4  N   UNL     1       1.416   7.724  21.260  0.00  0.00    +0.000 N 
ATOM      5  N   UNL     1       1.289   9.500  19.693  0.00  0.00    +0.000 N 
ATOM      6  C   UNL     1       1.846   8.745  18.617  0.00  0.00    +0.000 C 
ATOM      7  O   UNL     1       1.634   8.991  17.440  0.00  0.00    +0.000 OA
ATOM      8  C   UNL     1       0.979  10.853  19.321  0.00  0.00    +0.000 A 
ATOM      9  O   UNL     1       1.348  11.334  18.269  0.00  0.00    +0.000 OA
ATOM     10  C   UNL     1       0.312  11.582  20.339  0.00  0.00    +0.000 A 
ATOM     11  C   UNL     1       0.087  11.072  21.580  0.00  0.00    +0.000 A 
ATOM     12  N   UNL     1      -0.506  11.969  22.398  0.00  0.00    +0.000 NA
ATOM     13  C   UNL     1      -0.661  13.049  21.654  0.00  0.00    +0.000 A 
ATOM     14  N   UNL     1      -0.199  12.881  20.357  0.00  0.00    +0.000 N 
ATOM     15  C   UNL     1      -0.250  13.838  19.318  0.00  0.00    +0.000 C 
ATOM     16  O   UNL     1       0.185  13.585  18.212  0.00  0.00    +0.000 OA
ATOM     17  H   UNL     1       1.279   7.293  22.161  0.00  0.00    +0.000 HD
ATOM     18  H   UNL     1       1.921   7.157  20.583  0.00  0.00    +0.000 HD
ENDROOT
BRANCH   6  19
ATOM     19  O   UNL     1       2.580   7.678  19.033  0.00  0.00    +0.000 OA
BRANCH  19  20
ATOM     20  C   UNL     1       2.979   6.761  17.995  0.00  0.00    +0.000 C 
BRANCH  20  21
ATOM     21  C   UNL     1       2.687   5.358  18.452  0.00  0.00    +0.000 A 
ATOM     22  C   UNL     1       3.466   4.753  19.449  0.00  0.00    +0.000 A 
ATOM     23  C   UNL     1       3.172   3.462  19.891  0.00  0.00    +0.000 A 
ATOM     24  C   UNL     1       2.104   2.759  19.338  0.00  0.00    +0.000 A 
ATOM     25  C   UNL     1       1.329   3.345  18.339  0.00  0.00    +0.000 A 
ATOM     26  C   UNL     1       1.620   4.636  17.893  0.00  0.00    +0.000 A 
ENDBRANCH  20  21
ENDBRANCH  19  20
ENDBRANCH   6  19
BRANCH  15  27
ATOM     27  O   UNL     1      -0.814  15.000  19.739  0.00  0.00    +0.000 OA
BRANCH  27  28
ATOM     28  C   UNL     1       0.105  16.096  19.965  0.00  0.00    +0.000 C 
BRANCH  28  29
ATOM     29  C   UNL     1       0.255  16.950  18.727  0.00  0.00    +0.000 A 
ATOM     30  C   UNL     1      -0.832  17.671  18.212  0.00  0.00    +0.000 A 
ATOM     31  C   UNL     1      -0.680  18.482  17.083  0.00  0.00    +0.000 A 
ATOM     32  C   UNL     1       0.561  18.591  16.459  0.00  0.00    +0.000 A 
ATOM     33  C   UNL     1       1.655  17.896  16.970  0.00  0.00    +0.000 A 
ATOM     34  C   UNL     1       1.505  17.083  18.097  0.00  0.00    +0.000 A 
ENDBRANCH  28  29
ENDBRANCH  27  28
ENDBRANCH  15  27
TORSDOF 6
ENDMDL
MODEL 4
REMARK VINA RESULT:      -8.2      1.035      9.743
REMARK  Name = 
REMARK  7 active torsions:
REMARK  status: ('A' for Active; 'I' for Inactive)
REMARK    1  A    between atoms: C_1  and  N_2
REMARK    2  A    between atoms: C_6  and  O_8
REMARK    3  A    between atoms: O_8  and  C_9
REMARK    4  A    between atoms: C_9  and  C_10
REMARK    5  A    between atoms: C_23  and  O_25
REMARK    6  A    between atoms: O_25  and  C_26
REMARK    7  A    between atoms: C_26  and  C_27
REMARK                            x       y       z     vdW  Elec       q    Type
REMARK                         _______ _______ _______ _____ _____    ______ ____
ROOT
ATOM      1  C   UNL     1       2.684   3.979  20.732  0.00  0.00    +0.000 C 
ATOM      2  N   UNL     1       2.910   5.024  19.709  0.00  0.00    +0.000 N 
ATOM      3  C   UNL     1       2.343   6.292  19.741  0.00  0.00    +0.000 A 
ATOM      4  N   UNL     1       1.519   6.629  20.778  0.00  0.00    +0.000 N 
ATOM      5  N   UNL     1       2.614   7.209  18.755  0.00  0.00    +0.000 N 
ATOM      6  C   UNL     1       2.126   8.550  18.740  0.00  0.00    +0.000 C 
ATOM      7  O   UNL     1       2.694   9.468  18.170  0.00  0.00    +0.000 OA
ATOM      8  C   UNL     1       3.437   6.903  17.617  0.00  0.00    +0.000 A 
ATOM      9  O   UNL     1       3.523   7.650  16.664  0.00  0.00    +0.000 OA
ATOM     10  C   UNL     1       4.031   5.617  17.677  0.00  0.00    +0.000 A 
ATOM     11  C   UNL     1       3.757   4.726  18.668  0.00  0.00    +0.000 A 
ATOM     12  N   UNL     1       4.389   3.547  18.481  0.00  0.00    +0.000 NA
ATOM     13  C   UNL     1       5.074   3.708  17.364  0.00  0.00    +0.000 A 
ATOM     14  N   UNL     1       4.922   4.973  16.816  0.00  0.00    +0.000 N 
ATOM     15  C   UNL     1       5.544   5.459  15.643  0.00  0.00    +0.000 C 
ATOM     16  O   UNL     1       5.341   6.591  15.250  0.00  0.00    +0.000 OA
ATOM     17  H   UNL     1       1.277   6.012  21.537  0.00  0.00    +0.000 HD
ATOM     18  H   UNL     1       1.041   7.527  20.782  0.00  0.00    +0.000 HD
ENDROOT
BRANCH   6  19
ATOM     19  O   UNL     1       1.001   8.721  19.485  0.00  0.00    +0.000 OA
BRANCH  19  20
ATOM     20  C   UNL     1       0.329   9.984  19.308  0.00  0.00    +0.000 C 
BRANCH  20  21
ATOM     21  C   UNL     1      -0.252  10.410  20.629  0.00  0.00    +0.000 A 
ATOM     22  C   UNL     1      -1.036  11.568  20.725  0.00  0.00    +0.000 A 
ATOM     23  C   UNL     1      -1.598  11.944  21.947  0.00  0.00    +0.000 A 
ATOM     24  C   UNL     1      -1.375  11.173  23.085  0.00  0.00    +0.000 A 
ATOM     25  C   UNL     1      -0.588  10.025  23.005  0.00  0.00    +0.000 A 
ATOM     26  C   UNL     1      -0.024   9.646  21.785  0.00  0.00    +0.000 A 
ENDBRANCH  20  21
ENDBRANCH  19  20
ENDBRANCH   6  19
BRANCH  15  27
ATOM     27  O   UNL     1       6.337   4.515  15.073  0.00  0.00    +0.000 OA
BRANCH  27  28
ATOM     28  C   UNL     1       6.788   4.807  13.728  0.00  0.00    +0.000 C 
BRANCH  28  29
ATOM     29  C   UNL     1       6.219   3.821  12.733  0.00  0.00    +0.000 A 
ATOM     30  C   UNL     1       7.023   2.818  12.173  0.00  0.00    +0.000 A 
ATOM     31  C   UNL     1       6.485   1.891  11.276  0.00  0.00    +0.000 A 
ATOM     32  C   UNL     1       5.136   1.946  10.933  0.00  0.00    +0.000 A 
ATOM     33  C   UNL     1       4.320   2.925  11.496  0.00  0.00    +0.000 A 
ATOM     34  C   UNL     1       4.856   3.855  12.392  0.00  0.00    +0.000 A 
ENDBRANCH  28  29
ENDBRANCH  27  28
ENDBRANCH  15  27
TORSDOF 6
ENDMDL
MODEL 5
REMARK VINA RESULT:      -8.2      0.959      1.109
REMARK  Name = 
REMARK  7 active torsions:
REMARK  status: ('A' for Active; 'I' for Inactive)
REMARK    1  A    between atoms: C_1  and  N_2
REMARK    2  A    between atoms: C_6  and  O_8
REMARK    3  A    between atoms: O_8  and  C_9
REMARK    4  A    between atoms: C_9  and  C_10
REMARK    5  A    between atoms: C_23  and  O_25
REMARK    6  A    between atoms: O_25  and  C_26
REMARK    7  A    between atoms: C_26  and  C_27
REMARK                            x       y       z     vdW  Elec       q    Type
REMARK                         _______ _______ _______ _____ _____    ______ ____
ROOT
ATOM      1  C   UNL     1       3.041   2.058  19.278  0.00  0.00    +0.000 C 
ATOM      2  N   UNL     1       3.273   3.465  18.882  0.00  0.00    +0.000 N 
ATOM      3  C   UNL     1       4.138   3.865  17.871  0.00  0.00    +0.000 A 
ATOM      4  N   UNL     1       4.833   2.918  17.174  0.00  0.00    +0.000 N 
ATOM      5  N   UNL     1       4.287   5.194  17.559  0.00  0.00    +0.000 N 
ATOM      6  C   UNL     1       5.104   5.690  16.499  0.00  0.00    +0.000 C 
ATOM      7  O   UNL     1       4.901   6.751  15.931  0.00  0.00    +0.000 OA
ATOM      8  C   UNL     1       3.617   6.240  18.281  0.00  0.00    +0.000 A 
ATOM      9  O   UNL     1       3.892   7.412  18.123  0.00  0.00    +0.000 OA
ATOM     10  C   UNL     1       2.706   5.761  19.257  0.00  0.00    +0.000 A 
ATOM     11  C   UNL     1       2.566   4.439  19.545  0.00  0.00    +0.000 A 
ATOM     12  N   UNL     1       1.688   4.229  20.551  0.00  0.00    +0.000 NA
ATOM     13  C   UNL     1       1.269   5.435  20.887  0.00  0.00    +0.000 A 
ATOM     14  N   UNL     1       1.837   6.438  20.116  0.00  0.00    +0.000 N 
ATOM     15  C   UNL     1       1.571   7.822  20.213  0.00  0.00    +0.000 C 
ATOM     16  O   UNL     1       2.127   8.620  19.483  0.00  0.00    +0.000 OA
ATOM     17  H   UNL     1       4.774   1.926  17.344  0.00  0.00    +0.000 HD
ATOM     18  H   UNL     1       5.522   3.196  16.479  0.00  0.00    +0.000 HD
ENDROOT
BRANCH   6  19
ATOM     19  O   UNL     1       6.092   4.829  16.134  0.00  0.00    +0.000 OA
BRANCH  19  20
ATOM     20  C   UNL     1       7.094   5.376  15.255  0.00  0.00    +0.000 C 
BRANCH  20  21
ATOM     21  C   UNL     1       6.938   4.751  13.895  0.00  0.00    +0.000 A 
ATOM     22  C   UNL     1       5.970   3.761  13.671  0.00  0.00    +0.000 A 
ATOM     23  C   UNL     1       5.808   3.204  12.400  0.00  0.00    +0.000 A 
ATOM     24  C   UNL     1       6.615   3.624  11.345  0.00  0.00    +0.000 A 
ATOM     25  C   UNL     1       7.588   4.599  11.558  0.00  0.00    +0.000 A 
ATOM     26  C   UNL     1       7.754   5.157  12.828  0.00  0.00    +0.000 A 
ENDBRANCH  20  21
ENDBRANCH  19  20
ENDBRANCH   6  19
BRANCH  15  27
ATOM     27  O   UNL     1       0.668   8.088  21.192  0.00  0.00    +0.000 OA
BRANCH  27  28
ATOM     28  C   UNL     1       1.076   9.075  22.170  0.00  0.00    +0.000 C 
BRANCH  28  29
ATOM     29  C   UNL     1       0.153  10.271  22.161  0.00  0.00    +0.000 A 
ATOM     30  C   UNL     1       0.257  11.254  21.166  0.00  0.00    +0.000 A 
ATOM     31  C   UNL     1      -0.619  12.344  21.146  0.00  0.00    +0.000 A 
ATOM     32  C   UNL     1      -1.615  12.463  22.112  0.00  0.00    +0.000 A 
ATOM     33  C   UNL     1      -1.743  11.484  23.096  0.00  0.00    +0.000 A 
ATOM     34  C   UNL     1      -0.867  10.394  23.119  0.00  0.00    +0.000 A 
ENDBRANCH  28  29
ENDBRANCH  27  28
ENDBRANCH  15  27
TORSDOF 6
ENDMDL
MODEL 6
REMARK VINA RESULT:      -8.2      1.548      9.431
REMARK  Name = 
REMARK  7 active torsions:
REMARK  status: ('A' for Active; 'I' for Inactive)
REMARK    1  A    between atoms: C_1  and  N_2
REMARK    2  A    between atoms: C_6  and  O_8
REMARK    3  A    between atoms: O_8  and  C_9
REMARK    4  A    between atoms: C_9  and  C_10
REMARK    5  A    between atoms: C_23  and  O_25
REMARK    6  A    between atoms: O_25  and  C_26
REMARK    7  A    between atoms: C_26  and  C_27
REMARK                            x       y       z     vdW  Elec       q    Type
REMARK                         _______ _______ _______ _____ _____    ______ ____
ROOT
ATOM      1  C   UNL     1       2.432   4.522  21.120  0.00  0.00    +0.000 C 
ATOM      2  N   UNL     1       2.696   5.485  20.029  0.00  0.00    +0.000 N 
ATOM      3  C   UNL     1       2.129   6.750  19.941  0.00  0.00    +0.000 A 
ATOM      4  N   UNL     1       1.266   7.163  20.916  0.00  0.00    +0.000 N 
ATOM      5  N   UNL     1       2.437   7.588  18.898  0.00  0.00    +0.000 N 
ATOM      6  C   UNL     1       1.950   8.923  18.760  0.00  0.00    +0.000 C 
ATOM      7  O   UNL     1       2.538   9.795  18.143  0.00  0.00    +0.000 OA
ATOM      8  C   UNL     1       3.302   7.198  17.819  0.00  0.00    +0.000 A 
ATOM      9  O   UNL     1       3.424   7.869  16.814  0.00  0.00    +0.000 OA
ATOM     10  C   UNL     1       3.894   5.922  18.001  0.00  0.00    +0.000 A 
ATOM     11  C   UNL     1       3.582   5.110  19.047  0.00  0.00    +0.000 A 
ATOM     12  N   UNL     1       4.221   3.922  18.975  0.00  0.00    +0.000 NA
ATOM     13  C   UNL     1       4.947   3.998  17.876  0.00  0.00    +0.000 A 
ATOM     14  N   UNL     1       4.816   5.216  17.226  0.00  0.00    +0.000 N 
ATOM     15  C   UNL     1       5.482   5.612  16.044  0.00  0.00    +0.000 C 
ATOM     16  O   UNL     1       5.294   6.709  15.556  0.00  0.00    +0.000 OA
ATOM     17  H   UNL     1       0.995   6.607  21.712  0.00  0.00    +0.000 HD
ATOM     18  H   UNL     1       0.788   8.058  20.833  0.00  0.00    +0.000 HD
ENDROOT
BRANCH   6  19
ATOM     19  O   UNL     1       0.797   9.148  19.447  0.00  0.00    +0.000 OA
BRANCH  19  20
ATOM     20  C   UNL     1       0.523  10.528  19.759  0.00  0.00    +0.000 C 
BRANCH  20  21
ATOM     21  C   UNL     1      -0.847  10.877  19.242  0.00  0.00    +0.000 A 
ATOM     22  C   UNL     1      -1.411  10.164  18.175  0.00  0.00    +0.000 A 
ATOM     23  C   UNL     1      -2.695  10.472  17.718  0.00  0.00    +0.000 A 
ATOM     24  C   UNL     1      -3.423  11.497  18.317  0.00  0.00    +0.000 A 
ATOM     25  C   UNL     1      -2.868  12.221  19.371  0.00  0.00    +0.000 A 
ATOM     26  C   UNL     1      -1.584  11.917  19.830  0.00  0.00    +0.000 A 
ENDBRANCH  20  21
ENDBRANCH  19  20
ENDBRANCH   6  19
BRANCH  15  27
ATOM     27  O   UNL     1       6.296   4.629  15.578  0.00  0.00    +0.000 OA
BRANCH  27  28
ATOM     28  C   UNL     1       6.916   4.885  14.295  0.00  0.00    +0.000 C 
BRANCH  28  29
ATOM     29  C   UNL     1       6.336   3.998  13.218  0.00  0.00    +0.000 A 
ATOM     30  C   UNL     1       4.951   3.931  13.008  0.00  0.00    +0.000 A 
ATOM     31  C   UNL     1       4.422   3.130  11.992  0.00  0.00    +0.000 A 
ATOM     32  C   UNL     1       5.268   2.392  11.166  0.00  0.00    +0.000 A 
ATOM     33  C   UNL     1       6.647   2.464  11.350  0.00  0.00    +0.000 A 
ATOM     34  C   UNL     1       7.179   3.263  12.367  0.00  0.00    +0.000 A 
ENDBRANCH  28  29
ENDBRANCH  27  28
ENDBRANCH  15  27
TORSDOF 6
ENDMDL
MODEL 7
REMARK VINA RESULT:      -8.2      1.189      1.682
REMARK  Name = 
REMARK  7 active torsions:
REMARK  status: ('A' for Active; 'I' for Inactive)
REMARK    1  A    between atoms: C_1  and  N_2
REMARK    2  A    between atoms: C_6  and  O_8
REMARK    3  A    between atoms: O_8  and  C_9
REMARK    4  A    between atoms: C_9  and  C_10
REMARK    5  A    between atoms: C_23  and  O_25
REMARK    6  A    between atoms: O_25  and  C_26
REMARK    7  A    between atoms: C_26  and  C_27
REMARK                            x       y       z     vdW  Elec       q    Type
REMARK                         _______ _______ _______ _____ _____    ______ ____
ROOT
ATOM      1  C   UNL     1       3.390   2.665  20.085  0.00  0.00    +0.000 C 
ATOM      2  N   UNL     1       3.484   3.981  19.416  0.00  0.00    +0.000 N 
ATOM      3  C   UNL     1       4.290   4.249  18.317  0.00  0.00    +0.000 A 
ATOM      4  N   UNL     1       5.058   3.248  17.792  0.00  0.00    +0.000 N 
ATOM      5  N   UNL     1       4.311   5.499  17.747  0.00  0.00    +0.000 N 
ATOM      6  C   UNL     1       5.060   5.847  16.583  0.00  0.00    +0.000 C 
ATOM      7  O   UNL     1       4.750   6.753  15.828  0.00  0.00    +0.000 OA
ATOM      8  C   UNL     1       3.561   6.604  18.277  0.00  0.00    +0.000 A 
ATOM      9  O   UNL     1       3.724   7.742  17.884  0.00  0.00    +0.000 OA
ATOM     10  C   UNL     1       2.715   6.249  19.358  0.00  0.00    +0.000 A 
ATOM     11  C   UNL     1       2.702   5.002  19.902  0.00  0.00    +0.000 A 
ATOM     12  N   UNL     1       1.866   4.918  20.960  0.00  0.00    +0.000 NA
ATOM     13  C   UNL     1       1.343   6.125  21.070  0.00  0.00    +0.000 A 
ATOM     14  N   UNL     1       1.803   7.003  20.100  0.00  0.00    +0.000 N 
ATOM     15  C   UNL     1       1.413   8.351  19.936  0.00  0.00    +0.000 C 
ATOM     16  O   UNL     1       1.880   9.035  19.046  0.00  0.00    +0.000 OA
ATOM     17  H   UNL     1       5.093   2.307  18.153  0.00  0.00    +0.000 HD
ATOM     18  H   UNL     1       5.705   3.443  17.032  0.00  0.00    +0.000 HD
ENDROOT
BRANCH   6  19
ATOM     19  O   UNL     1       6.116   5.020  16.358  0.00  0.00    +0.000 OA
BRANCH  19  20
ATOM     20  C   UNL     1       7.109   5.522  15.441  0.00  0.00    +0.000 C 
BRANCH  20  21
ATOM     21  C   UNL     1       6.937   4.830  14.116  0.00  0.00    +0.000 A 
ATOM     22  C   UNL     1       5.948   3.852  13.943  0.00  0.00    +0.000 A 
ATOM     23  C   UNL     1       5.772   3.234  12.703  0.00  0.00    +0.000 A 
ATOM     24  C   UNL     1       6.585   3.581  11.627  0.00  0.00    +0.000 A 
ATOM     25  C   UNL     1       7.579   4.545  11.789  0.00  0.00    +0.000 A 
ATOM     26  C   UNL     1       7.759   5.165  13.028  0.00  0.00    +0.000 A 
ENDBRANCH  20  21
ENDBRANCH  19  20
ENDBRANCH   6  19
BRANCH  15  27
ATOM     27  O   UNL     1       0.506   8.724  20.876  0.00  0.00    +0.000 OA
BRANCH  27  28
ATOM     28  C   UNL     1       0.814   9.944  21.594  0.00  0.00    +0.000 C 
BRANCH  28  29
ATOM     29  C   UNL     1      -0.400  10.837  21.705  0.00  0.00    +0.000 A 
ATOM     30  C   UNL     1      -0.998  11.090  22.948  0.00  0.00    +0.000 A 
ATOM     31  C   UNL     1      -2.103  11.940  23.048  0.00  0.00    +0.000 A 
ATOM     32  C   UNL     1      -2.621  12.556  21.911  0.00  0.00    +0.000 A 
ATOM     33  C   UNL     1      -2.025  12.331  20.672  0.00  0.00    +0.000 A 
ATOM     34  C   UNL     1      -0.921  11.479  20.568  0.00  0.00    +0.000 A 
ENDBRANCH  28  29
ENDBRANCH  27  28
ENDBRANCH  15  27
TORSDOF 6
ENDMDL
MODEL 8
REMARK VINA RESULT:      -8.2      2.925      4.386
REMARK  Name = 
REMARK  7 active torsions:
REMARK  status: ('A' for Active; 'I' for Inactive)
REMARK    1  A    between atoms: C_1  and  N_2
REMARK    2  A    between atoms: C_6  and  O_8
REMARK    3  A    between atoms: O_8  and  C_9
REMARK    4  A    between atoms: C_9  and  C_10
REMARK    5  A    between atoms: C_23  and  O_25
REMARK    6  A    between atoms: O_25  and  C_26
REMARK    7  A    between atoms: C_26  and  C_27
REMARK                            x       y       z     vdW  Elec       q    Type
REMARK                         _______ _______ _______ _____ _____    ______ ____
ROOT
ATOM      1  C   UNL     1       2.367   4.120  21.362  0.00  0.00    +0.000 C 
ATOM      2  N   UNL     1       2.697   4.978  20.202  0.00  0.00    +0.000 N 
ATOM      3  C   UNL     1       3.497   4.587  19.137  0.00  0.00    +0.000 A 
ATOM      4  N   UNL     1       4.027   3.328  19.127  0.00  0.00    +0.000 N 
ATOM      5  N   UNL     1       3.745   5.443  18.092  0.00  0.00    +0.000 N 
ATOM      6  C   UNL     1       4.502   5.106  16.930  0.00  0.00    +0.000 C 
ATOM      7  O   UNL     1       4.351   5.646  15.846  0.00  0.00    +0.000 OA
ATOM      8  C   UNL     1       3.253   6.793  18.062  0.00  0.00    +0.000 A 
ATOM      9  O   UNL     1       3.625   7.598  17.233  0.00  0.00    +0.000 OA
ATOM     10  C   UNL     1       2.396   7.108  19.148  0.00  0.00    +0.000 A 
ATOM     11  C   UNL     1       2.155   6.241  20.168  0.00  0.00    +0.000 A 
ATOM     12  N   UNL     1       1.360   6.783  21.118  0.00  0.00    +0.000 NA
ATOM     13  C   UNL     1       1.095   7.999  20.678  0.00  0.00    +0.000 A 
ATOM     14  N   UNL     1       1.683   8.269  19.451  0.00  0.00    +0.000 N 
ATOM     15  C   UNL     1       1.564   9.467  18.711  0.00  0.00    +0.000 C 
ATOM     16  O   UNL     1       2.124   9.599  17.640  0.00  0.00    +0.000 OA
ATOM     17  H   UNL     1       3.887   2.644  19.854  0.00  0.00    +0.000 HD
ATOM     18  H   UNL     1       4.670   3.048  18.390  0.00  0.00    +0.000 HD
ENDROOT
BRANCH   6  19
ATOM     19  O   UNL     1       5.362   4.071  17.131  0.00  0.00    +0.000 OA
BRANCH  19  20
ATOM     20  C   UNL     1       6.717   4.299  16.694  0.00  0.00    +0.000 C 
BRANCH  20  21
ATOM     21  C   UNL     1       7.261   5.502  17.416  0.00  0.00    +0.000 A 
ATOM     22  C   UNL     1       7.742   5.391  18.728  0.00  0.00    +0.000 A 
ATOM     23  C   UNL     1       8.273   6.504  19.384  0.00  0.00    +0.000 A 
ATOM     24  C   UNL     1       8.322   7.738  18.740  0.00  0.00    +0.000 A 
ATOM     25  C   UNL     1       7.837   7.863  17.439  0.00  0.00    +0.000 A 
ATOM     26  C   UNL     1       7.304   6.753  16.780  0.00  0.00    +0.000 A 
ENDBRANCH  20  21
ENDBRANCH  19  20
ENDBRANCH   6  19
BRANCH  15  27
ATOM     27  O   UNL     1       0.788  10.376  19.355  0.00  0.00    +0.000 OA
BRANCH  27  28
ATOM     28  C   UNL     1       0.222  11.418  18.524  0.00  0.00    +0.000 C 
BRANCH  28  29
ATOM     29  C   UNL     1      -1.238  11.155  18.234  0.00  0.00    +0.000 A 
ATOM     30  C   UNL     1      -1.629  10.093  17.406  0.00  0.00    +0.000 A 
ATOM     31  C   UNL     1      -2.982   9.838  17.165  0.00  0.00    +0.000 A 
ATOM     32  C   UNL     1      -3.963  10.633  17.754  0.00  0.00    +0.000 A 
ATOM     33  C   UNL     1      -3.591  11.679  18.595  0.00  0.00    +0.000 A 
ATOM     34  C   UNL     1      -2.238  11.939  18.836  0.00  0.00    +0.000 A 
ENDBRANCH  28  29
ENDBRANCH  27  28
ENDBRANCH  15  27
TORSDOF 6
ENDMDL
MODEL 9
REMARK VINA RESULT:      -8.1      1.973      3.346
REMARK  Name = 
REMARK  7 active torsions:
REMARK  status: ('A' for Active; 'I' for Inactive)
REMARK    1  A    between atoms: C_1  and  N_2
REMARK    2  A    between atoms: C_6  and  O_8
REMARK    3  A    between atoms: O_8  and  C_9
REMARK    4  A    between atoms: C_9  and  C_10
REMARK    5  A    between atoms: C_23  and  O_25
REMARK    6  A    between atoms: O_25  and  C_26
REMARK    7  A    between atoms: C_26  and  C_27
REMARK                            x       y       z     vdW  Elec       q    Type
REMARK                         _______ _______ _______ _____ _____    ______ ____
ROOT
ATOM      1  C   UNL     1       3.065   1.896  19.026  0.00  0.00    +0.000 C 
ATOM      2  N   UNL     1       3.258   3.301  18.605  0.00  0.00    +0.000 N 
ATOM      3  C   UNL     1       3.995   3.696  17.495  0.00  0.00    +0.000 A 
ATOM      4  N   UNL     1       4.591   2.745  16.717  0.00  0.00    +0.000 N 
ATOM      5  N   UNL     1       4.116   5.024  17.167  0.00  0.00    +0.000 N 
ATOM      6  C   UNL     1       4.799   5.516  16.015  0.00  0.00    +0.000 C 
ATOM      7  O   UNL     1       4.537   6.579  15.477  0.00  0.00    +0.000 OA
ATOM      8  C   UNL     1       3.550   6.075  17.968  0.00  0.00    +0.000 A 
ATOM      9  O   UNL     1       3.813   7.245  17.777  0.00  0.00    +0.000 OA
ATOM     10  C   UNL     1       2.762   5.602  19.049  0.00  0.00    +0.000 A 
ATOM     11  C   UNL     1       2.647   4.281  19.351  0.00  0.00    +0.000 A 
ATOM     12  N   UNL     1       1.899   4.076  20.457  0.00  0.00    +0.000 NA
ATOM     13  C   UNL     1       1.535   5.285  20.844  0.00  0.00    +0.000 A 
ATOM     14  N   UNL     1       2.012   6.284  20.009  0.00  0.00    +0.000 N 
ATOM     15  C   UNL     1       1.773   7.671  20.139  0.00  0.00    +0.000 C 
ATOM     16  O   UNL     1       2.241   8.465  19.347  0.00  0.00    +0.000 OA
ATOM     17  H   UNL     1       4.544   1.753  16.892  0.00  0.00    +0.000 HD
ATOM     18  H   UNL     1       5.190   3.018  15.941  0.00  0.00    +0.000 HD
ENDROOT
BRANCH   6  19
ATOM     19  O   UNL     1       5.727   4.647  15.530  0.00  0.00    +0.000 OA
BRANCH  19  20
ATOM     20  C   UNL     1       7.075   5.154  15.466  0.00  0.00    +0.000 C 
BRANCH  20  21
ATOM     21  C   UNL     1       7.478   5.626  16.837  0.00  0.00    +0.000 A 
ATOM     22  C   UNL     1       7.648   6.992  17.102  0.00  0.00    +0.000 A 
ATOM     23  C   UNL     1       7.994   7.428  18.383  0.00  0.00    +0.000 A 
ATOM     24  C   UNL     1       8.180   6.504  19.409  0.00  0.00    +0.000 A 
ATOM     25  C   UNL     1       8.025   5.142  19.156  0.00  0.00    +0.000 A 
ATOM     26  C   UNL     1       7.680   4.703  17.875  0.00  0.00    +0.000 A 
ENDBRANCH  20  21
ENDBRANCH  19  20
ENDBRANCH   6  19
BRANCH  15  27
ATOM     27  O   UNL     1       0.999   7.943  21.223  0.00  0.00    +0.000 OA
BRANCH  27  28
ATOM     28  C   UNL     1       1.354   9.137  21.961  0.00  0.00    +0.000 C 
BRANCH  28  29
ATOM     29  C   UNL     1       0.220  10.137  21.964  0.00  0.00    +0.000 A 
ATOM     30  C   UNL     1      -0.587  10.308  23.098  0.00  0.00    +0.000 A 
ATOM     31  C   UNL     1      -1.616  11.254  23.105  0.00  0.00    +0.000 A 
ATOM     32  C   UNL     1      -1.847  12.049  21.984  0.00  0.00    +0.000 A 
ATOM     33  C   UNL     1      -1.041  11.904  20.857  0.00  0.00    +0.000 A 
ATOM     34  C   UNL     1      -0.013  10.957  20.847  0.00  0.00    +0.000 A 
ENDBRANCH  28  29
ENDBRANCH  27  28
ENDBRANCH  15  27
TORSDOF 6
ENDMDL
