MODEL 1
REMARK VINA RESULT:      -7.8      0.000      0.000
REMARK  Name = 
REMARK  2 active torsions:
REMARK  status: ('A' for Active; 'I' for Inactive)
REMARK    1  A    between atoms: S_2  and  C_4
REMARK    2  A    between atoms: S_2  and  N_9
REMARK                            x       y       z     vdW  Elec       q    Type
REMARK                         _______ _______ _______ _____ _____    ______ ____
ROOT
ATOM      1  N   UNL     1       5.732   5.629  16.791  0.00  0.00    +0.000 NA
ATOM      2  C   UNL     1       6.267   6.188  18.060  0.00  0.00    +0.000 C 
ATOM      3  C   UNL     1       5.927   5.323  19.273  0.00  0.00    +0.000 C 
ATOM      4  S   UNL     1       4.141   5.129  19.537  0.00  0.00    +0.000 S 
ATOM      5  C   UNL     1       3.591   4.595  17.837  0.00  0.00    +0.000 C 
ATOM      6  C   UNL     1       3.890   3.117  17.524  0.00  0.00    +0.000 C 
ATOM      7  C   UNL     1       3.159   2.144  18.426  0.00  0.00    +0.000 C 
ATOM      8  O   UNL     1       1.758   2.347  18.319  0.00  0.00    +0.000 OA
ATOM      9  C   UNL     1       1.373   3.661  18.730  0.00  0.00    +0.000 C 
ATOM     10  C   UNL     1       2.040   4.722  17.842  0.00  0.00    +0.000 C 
ATOM     11  C   UNL     1       4.225   5.544  16.777  0.00  0.00    +0.000 C 
ENDROOT
BRANCH   1  13
ATOM     12  O   UNL     1       5.757   3.201  15.999  0.00  0.00    +0.000 OA
ATOM     13  S   UNL     1       6.610   4.369  16.061  0.00  0.00    +0.000 S 
ATOM     14  O   UNL     1       7.924   4.308  16.667  0.00  0.00    +0.000 OA
BRANCH  13  15
ATOM     15  C   UNL     1       7.026   4.694  14.353  0.00  0.00    +0.000 A 
ATOM     16  C   UNL     1       6.559   4.030  13.222  0.00  0.00    +0.000 A 
ATOM     17  C   UNL     1       7.222   4.559  12.099  0.00  0.00    +0.000 A 
ATOM     18  C   UNL     1       8.060   5.529  12.590  0.00  0.00    +0.000 A 
ATOM     19  O   UNL     1       7.956   5.627  13.942  0.00  0.00    +0.000 OA
ENDBRANCH  13  15
ENDBRANCH   1  13
TORSDOF 2
ENDMDL
MODEL 2
REMARK VINA RESULT:      -7.5      2.614      3.476
REMARK  Name = 
REMARK  2 active torsions:
REMARK  status: ('A' for Active; 'I' for Inactive)
REMARK    1  A    between atoms: S_2  and  C_4
REMARK    2  A    between atoms: S_2  and  N_9
REMARK                            x       y       z     vdW  Elec       q    Type
REMARK                         _______ _______ _______ _____ _____    ______ ____
ROOT
ATOM      1  N   UNL     1       5.390   5.129  16.613  0.00  0.00    +0.000 NA
ATOM      2  C   UNL     1       4.611   6.395  16.608  0.00  0.00    +0.000 C 
ATOM      3  C   UNL     1       3.717   6.539  17.838  0.00  0.00    +0.000 C 
ATOM      4  S   UNL     1       2.489   5.209  17.992  0.00  0.00    +0.000 S 
ATOM      5  C   UNL     1       3.578   3.705  17.811  0.00  0.00    +0.000 C 
ATOM      6  C   UNL     1       4.378   3.363  19.082  0.00  0.00    +0.000 C 
ATOM      7  C   UNL     1       3.509   2.999  20.268  0.00  0.00    +0.000 C 
ATOM      8  O   UNL     1       2.690   1.884  19.942  0.00  0.00    +0.000 OA
ATOM      9  C   UNL     1       1.808   2.166  18.854  0.00  0.00    +0.000 C 
ATOM     10  C   UNL     1       2.605   2.512  17.588  0.00  0.00    +0.000 C 
ATOM     11  C   UNL     1       4.514   3.901  16.581  0.00  0.00    +0.000 C 
ENDROOT
BRANCH   1  13
ATOM     12  O   UNL     1       7.810   4.345  16.842  0.00  0.00    +0.000 OA
ATOM     13  S   UNL     1       6.797   5.081  17.567  0.00  0.00    +0.000 S 
ATOM     14  O   UNL     1       6.428   4.717  18.919  0.00  0.00    +0.000 OA
BRANCH  13  15
ATOM     15  C   UNL     1       7.532   6.691  17.825  0.00  0.00    +0.000 A 
ATOM     16  C   UNL     1       8.310   7.108  18.901  0.00  0.00    +0.000 A 
ATOM     17  C   UNL     1       8.594   8.476  18.731  0.00  0.00    +0.000 A 
ATOM     18  C   UNL     1       7.985   8.834  17.554  0.00  0.00    +0.000 A 
ATOM     19  O   UNL     1       7.343   7.776  16.994  0.00  0.00    +0.000 OA
ENDBRANCH  13  15
ENDBRANCH   1  13
TORSDOF 2
ENDMDL
MODEL 3
REMARK VINA RESULT:      -7.4      2.860      4.043
REMARK  Name = 
REMARK  2 active torsions:
REMARK  status: ('A' for Active; 'I' for Inactive)
REMARK    1  A    between atoms: S_2  and  C_4
REMARK    2  A    between atoms: S_2  and  N_9
REMARK                            x       y       z     vdW  Elec       q    Type
REMARK                         _______ _______ _______ _____ _____    ______ ____
ROOT
ATOM      1  N   UNL     1       4.989   4.002  17.943  0.00  0.00    +0.000 NA
ATOM      2  C   UNL     1       4.007   2.969  17.523  0.00  0.00    +0.000 C 
ATOM      3  C   UNL     1       2.659   3.566  17.121  0.00  0.00    +0.000 C 
ATOM      4  S   UNL     1       1.856   4.488  18.464  0.00  0.00    +0.000 S 
ATOM      5  C   UNL     1       3.245   5.613  18.997  0.00  0.00    +0.000 C 
ATOM      6  C   UNL     1       3.465   6.814  18.058  0.00  0.00    +0.000 C 
ATOM      7  C   UNL     1       2.284   7.760  17.992  0.00  0.00    +0.000 C 
ATOM      8  O   UNL     1       1.991   8.256  19.290  0.00  0.00    +0.000 OA
ATOM      9  C   UNL     1       1.635   7.211  20.198  0.00  0.00    +0.000 C 
ATOM     10  C   UNL     1       2.793   6.216  20.358  0.00  0.00    +0.000 C 
ATOM     11  C   UNL     1       4.545   4.771  19.164  0.00  0.00    +0.000 C 
ENDROOT
BRANCH   1  13
ATOM     12  O   UNL     1       4.813   5.546  15.916  0.00  0.00    +0.000 OA
ATOM     13  S   UNL     1       5.801   4.853  16.715  0.00  0.00    +0.000 S 
ATOM     14  O   UNL     1       6.775   3.971  16.107  0.00  0.00    +0.000 OA
BRANCH  13  15
ATOM     15  C   UNL     1       6.851   6.161  17.336  0.00  0.00    +0.000 A 
ATOM     16  C   UNL     1       7.660   6.136  18.469  0.00  0.00    +0.000 A 
ATOM     17  C   UNL     1       8.233   7.412  18.624  0.00  0.00    +0.000 A 
ATOM     18  C   UNL     1       7.758   8.159  17.575  0.00  0.00    +0.000 A 
ATOM     19  O   UNL     1       6.927   7.425  16.790  0.00  0.00    +0.000 OA
ENDBRANCH  13  15
ENDBRANCH   1  13
TORSDOF 2
ENDMDL
MODEL 4
REMARK VINA RESULT:      -7.1      2.210      6.154
REMARK  Name = 
REMARK  2 active torsions:
REMARK  status: ('A' for Active; 'I' for Inactive)
REMARK    1  A    between atoms: S_2  and  C_4
REMARK    2  A    between atoms: S_2  and  N_9
REMARK                            x       y       z     vdW  Elec       q    Type
REMARK                         _______ _______ _______ _____ _____    ______ ____
ROOT
ATOM      1  N   UNL     1       5.284   4.438  19.202  0.00  0.00    +0.000 NA
ATOM      2  C   UNL     1       4.490   5.690  19.300  0.00  0.00    +0.000 C 
ATOM      3  C   UNL     1       3.883   6.108  17.962  0.00  0.00    +0.000 C 
ATOM      4  S   UNL     1       5.127   6.416  16.675  0.00  0.00    +0.000 S 
ATOM      5  C   UNL     1       6.139   4.852  16.784  0.00  0.00    +0.000 C 
ATOM      6  C   UNL     1       5.477   3.637  16.110  0.00  0.00    +0.000 C 
ATOM      7  C   UNL     1       5.284   3.799  14.616  0.00  0.00    +0.000 C 
ATOM      8  O   UNL     1       6.539   4.028  13.991  0.00  0.00    +0.000 OA
ATOM      9  C   UNL     1       7.163   5.225  14.461  0.00  0.00    +0.000 C 
ATOM     10  C   UNL     1       7.433   5.137  15.970  0.00  0.00    +0.000 C 
ATOM     11  C   UNL     1       6.472   4.567  18.279  0.00  0.00    +0.000 C 
ENDROOT
BRANCH   1  13
ATOM     12  O   UNL     1       5.197   1.997  19.950  0.00  0.00    +0.000 OA
ATOM     13  S   UNL     1       4.429   2.968  19.202  0.00  0.00    +0.000 S 
ATOM     14  O   UNL     1       3.981   2.693  17.852  0.00  0.00    +0.000 OA
BRANCH  13  15
ATOM     15  C   UNL     1       2.871   3.056  20.076  0.00  0.00    +0.000 A 
ATOM     16  C   UNL     1       2.621   2.716  21.403  0.00  0.00    +0.000 A 
ATOM     17  C   UNL     1       1.240   2.855  21.636  0.00  0.00    +0.000 A 
ATOM     18  C   UNL     1       0.707   3.283  20.445  0.00  0.00    +0.000 A 
ATOM     19  O   UNL     1       1.671   3.411  19.496  0.00  0.00    +0.000 OA
ENDBRANCH  13  15
ENDBRANCH   1  13
TORSDOF 2
ENDMDL
MODEL 5
REMARK VINA RESULT:      -7.1      2.121      6.257
REMARK  Name = 
REMARK  2 active torsions:
REMARK  status: ('A' for Active; 'I' for Inactive)
REMARK    1  A    between atoms: S_2  and  C_4
REMARK    2  A    between atoms: S_2  and  N_9
REMARK                            x       y       z     vdW  Elec       q    Type
REMARK                         _______ _______ _______ _____ _____    ______ ____
ROOT
ATOM      1  N   UNL     1       4.775   4.504  18.554  0.00  0.00    +0.000 NA
ATOM      2  C   UNL     1       4.338   5.917  18.699  0.00  0.00    +0.000 C 
ATOM      3  C   UNL     1       4.038   6.580  17.356  0.00  0.00    +0.000 C 
ATOM      4  S   UNL     1       5.471   6.622  16.241  0.00  0.00    +0.000 S 
ATOM      5  C   UNL     1       6.007   4.836  16.292  0.00  0.00    +0.000 C 
ATOM      6  C   UNL     1       5.135   3.903  15.432  0.00  0.00    +0.000 C 
ATOM      7  C   UNL     1       5.183   4.218  13.951  0.00  0.00    +0.000 C 
ATOM      8  O   UNL     1       6.522   4.134  13.484  0.00  0.00    +0.000 OA
ATOM      9  C   UNL     1       7.379   5.075  14.136  0.00  0.00    +0.000 C 
ATOM     10  C   UNL     1       7.423   4.808  15.647  0.00  0.00    +0.000 C 
ATOM     11  C   UNL     1       6.060   4.364  17.775  0.00  0.00    +0.000 C 
ENDROOT
BRANCH   1  13
ATOM     12  O   UNL     1       4.210   2.068  18.035  0.00  0.00    +0.000 OA
ATOM     13  S   UNL     1       3.565   3.333  18.315  0.00  0.00    +0.000 S 
ATOM     14  O   UNL     1       2.562   3.878  17.424  0.00  0.00    +0.000 OA
BRANCH  13  15
ATOM     15  C   UNL     1       2.593   3.009  19.781  0.00  0.00    +0.000 A 
ATOM     16  C   UNL     1       1.227   3.208  19.956  0.00  0.00    +0.000 A 
ATOM     17  C   UNL     1       0.910   2.906  21.294  0.00  0.00    +0.000 A 
ATOM     18  C   UNL     1       2.094   2.528  21.877  0.00  0.00    +0.000 A 
ATOM     19  O   UNL     1       3.117   2.582  20.983  0.00  0.00    +0.000 OA
ENDBRANCH  13  15
ENDBRANCH   1  13
TORSDOF 2
ENDMDL
MODEL 6
REMARK VINA RESULT:      -6.8      2.515      6.227
REMARK  Name = 
REMARK  2 active torsions:
REMARK  status: ('A' for Active; 'I' for Inactive)
REMARK    1  A    between atoms: S_2  and  C_4
REMARK    2  A    between atoms: S_2  and  N_9
REMARK                            x       y       z     vdW  Elec       q    Type
REMARK                         _______ _______ _______ _____ _____    ______ ____
ROOT
ATOM      1  N   UNL     1       4.090   4.201  17.049  0.00  0.00    +0.000 NA
ATOM      2  C   UNL     1       4.560   3.663  15.746  0.00  0.00    +0.000 C 
ATOM      3  C   UNL     1       6.084   3.652  15.629  0.00  0.00    +0.000 C 
ATOM      4  S   UNL     1       6.825   5.304  15.773  0.00  0.00    +0.000 S 
ATOM      5  C   UNL     1       6.021   5.913  17.343  0.00  0.00    +0.000 C 
ATOM      6  C   UNL     1       6.639   5.324  18.624  0.00  0.00    +0.000 C 
ATOM      7  C   UNL     1       8.092   5.703  18.830  0.00  0.00    +0.000 C 
ATOM      8  O   UNL     1       8.217   7.117  18.883  0.00  0.00    +0.000 OA
ATOM      9  C   UNL     1       7.794   7.740  17.669  0.00  0.00    +0.000 C 
ATOM     10  C   UNL     1       6.313   7.440  17.394  0.00  0.00    +0.000 C 
ATOM     11  C   UNL     1       4.489   5.640  17.268  0.00  0.00    +0.000 C 
ENDROOT
BRANCH   1  13
ATOM     12  O   UNL     1       5.326   3.424  19.145  0.00  0.00    +0.000 OA
ATOM     13  S   UNL     1       4.125   3.150  18.386  0.00  0.00    +0.000 S 
ATOM     14  O   UNL     1       3.813   1.811  17.931  0.00  0.00    +0.000 OA
BRANCH  13  15
ATOM     15  C   UNL     1       2.800   3.443  19.550  0.00  0.00    +0.000 A 
ATOM     16  C   UNL     1       1.594   4.100  19.319  0.00  0.00    +0.000 A 
ATOM     17  C   UNL     1       0.899   4.178  20.540  0.00  0.00    +0.000 A 
ATOM     18  C   UNL     1       1.704   3.559  21.463  0.00  0.00    +0.000 A 
ATOM     19  O   UNL     1       2.850   3.110  20.888  0.00  0.00    +0.000 OA
ENDBRANCH  13  15
ENDBRANCH   1  13
TORSDOF 2
ENDMDL
MODEL 7
REMARK VINA RESULT:      -6.8      1.837      2.181
REMARK  Name = 
REMARK  2 active torsions:
REMARK  status: ('A' for Active; 'I' for Inactive)
REMARK    1  A    between atoms: S_2  and  C_4
REMARK    2  A    between atoms: S_2  and  N_9
REMARK                            x       y       z     vdW  Elec       q    Type
REMARK                         _______ _______ _______ _____ _____    ______ ____
ROOT
ATOM      1  N   UNL     1       3.600   4.937  17.176  0.00  0.00    +0.000 NA
ATOM      2  C   UNL     1       3.698   6.333  17.675  0.00  0.00    +0.000 C 
ATOM      3  C   UNL     1       3.835   6.406  19.195  0.00  0.00    +0.000 C 
ATOM      4  S   UNL     1       2.430   5.668  20.078  0.00  0.00    +0.000 S 
ATOM      5  C   UNL     1       2.322   4.006  19.237  0.00  0.00    +0.000 C 
ATOM      6  C   UNL     1       3.386   3.000  19.714  0.00  0.00    +0.000 C 
ATOM      7  C   UNL     1       3.265   2.635  21.179  0.00  0.00    +0.000 C 
ATOM      8  O   UNL     1       1.981   2.081  21.433  0.00  0.00    +0.000 OA
ATOM      9  C   UNL     1       0.931   3.008  21.149  0.00  0.00    +0.000 C 
ATOM     10  C   UNL     1       0.951   3.410  19.667  0.00  0.00    +0.000 C 
ATOM     11  C   UNL     1       2.381   4.213  17.694  0.00  0.00    +0.000 C 
ENDROOT
BRANCH   1  13
ATOM     12  O   UNL     1       4.716   2.651  16.950  0.00  0.00    +0.000 OA
ATOM     13  S   UNL     1       5.047   4.058  17.026  0.00  0.00    +0.000 S 
ATOM     14  O   UNL     1       5.994   4.554  18.003  0.00  0.00    +0.000 OA
BRANCH  13  15
ATOM     15  C   UNL     1       5.917   4.381  15.497  0.00  0.00    +0.000 A 
ATOM     16  C   UNL     1       5.564   3.972  14.215  0.00  0.00    +0.000 A 
ATOM     17  C   UNL     1       6.584   4.372  13.332  0.00  0.00    +0.000 A 
ATOM     18  C   UNL     1       7.513   5.017  14.111  0.00  0.00    +0.000 A 
ATOM     19  O   UNL     1       7.130   5.034  15.415  0.00  0.00    +0.000 OA
ENDBRANCH  13  15
ENDBRANCH   1  13
TORSDOF 2
ENDMDL
MODEL 8
REMARK VINA RESULT:      -6.7      2.928      3.723
REMARK  Name = 
REMARK  2 active torsions:
REMARK  status: ('A' for Active; 'I' for Inactive)
REMARK    1  A    between atoms: S_2  and  C_4
REMARK    2  A    between atoms: S_2  and  N_9
REMARK                            x       y       z     vdW  Elec       q    Type
REMARK                         _______ _______ _______ _____ _____    ______ ____
ROOT
ATOM      1  N   UNL     1       3.180   5.191  17.268  0.00  0.00    +0.000 NA
ATOM      2  C   UNL     1       3.158   6.569  17.824  0.00  0.00    +0.000 C 
ATOM      3  C   UNL     1       3.402   6.599  19.332  0.00  0.00    +0.000 C 
ATOM      4  S   UNL     1       2.161   5.669  20.277  0.00  0.00    +0.000 S 
ATOM      5  C   UNL     1       2.177   4.039  19.370  0.00  0.00    +0.000 C 
ATOM      6  C   UNL     1       3.381   3.146  19.721  0.00  0.00    +0.000 C 
ATOM      7  C   UNL     1       3.415   2.714  21.173  0.00  0.00    +0.000 C 
ATOM      8  O   UNL     1       2.226   2.006  21.492  0.00  0.00    +0.000 OA
ATOM      9  C   UNL     1       1.059   2.815  21.328  0.00  0.00    +0.000 C 
ATOM     10  C   UNL     1       0.920   3.273  19.869  0.00  0.00    +0.000 C 
ATOM     11  C   UNL     1       2.094   4.311  17.838  0.00  0.00    +0.000 C 
ENDROOT
BRANCH   1  13
ATOM     12  O   UNL     1       5.069   4.770  15.602  0.00  0.00    +0.000 OA
ATOM     13  S   UNL     1       4.702   4.491  16.973  0.00  0.00    +0.000 S 
ATOM     14  O   UNL     1       4.697   3.138  17.490  0.00  0.00    +0.000 OA
BRANCH  13  15
ATOM     15  C   UNL     1       6.017   5.230  17.934  0.00  0.00    +0.000 A 
ATOM     16  C   UNL     1       6.865   6.268  17.558  0.00  0.00    +0.000 A 
ATOM     17  C   UNL     1       7.805   6.459  18.588  0.00  0.00    +0.000 A 
ATOM     18  C   UNL     1       7.486   5.535  19.553  0.00  0.00    +0.000 A 
ATOM     19  O   UNL     1       6.414   4.789  19.179  0.00  0.00    +0.000 OA
ENDBRANCH  13  15
ENDBRANCH   1  13
TORSDOF 2
ENDMDL
MODEL 9
REMARK VINA RESULT:      -6.7      1.147      1.267
REMARK  Name = 
REMARK  2 active torsions:
REMARK  status: ('A' for Active; 'I' for Inactive)
REMARK    1  A    between atoms: S_2  and  C_4
REMARK    2  A    between atoms: S_2  and  N_9
REMARK                            x       y       z     vdW  Elec       q    Type
REMARK                         _______ _______ _______ _____ _____    ______ ____
ROOT
ATOM      1  N   UNL     1       4.610   5.136  16.347  0.00  0.00    +0.000 NA
ATOM      2  C   UNL     1       4.903   6.453  16.968  0.00  0.00    +0.000 C 
ATOM      3  C   UNL     1       5.174   6.350  18.468  0.00  0.00    +0.000 C 
ATOM      4  S   UNL     1       3.775   5.668  19.404  0.00  0.00    +0.000 S 
ATOM      5  C   UNL     1       3.414   4.124  18.420  0.00  0.00    +0.000 C 
ATOM      6  C   UNL     1       4.396   2.971  18.694  0.00  0.00    +0.000 C 
ATOM      7  C   UNL     1       4.359   2.466  20.122  0.00  0.00    +0.000 C 
ATOM      8  O   UNL     1       3.048   2.022  20.442  0.00  0.00    +0.000 OA
ATOM      9  C   UNL     1       2.086   3.075  20.349  0.00  0.00    +0.000 C 
ATOM     10  C   UNL     1       2.027   3.628  18.918  0.00  0.00    +0.000 C 
ATOM     11  C   UNL     1       3.366   4.487  16.906  0.00  0.00    +0.000 C 
ENDROOT
BRANCH   1  13
ATOM     12  O   UNL     1       5.457   2.772  15.881  0.00  0.00    +0.000 OA
ATOM     13  S   UNL     1       5.934   4.135  15.977  0.00  0.00    +0.000 S 
ATOM     14  O   UNL     1       7.037   4.485  16.847  0.00  0.00    +0.000 OA
BRANCH  13  15
ATOM     15  C   UNL     1       6.639   4.461  14.366  0.00  0.00    +0.000 A 
ATOM     16  C   UNL     1       6.348   3.822  13.165  0.00  0.00    +0.000 A 
ATOM     17  C   UNL     1       7.205   4.340  12.176  0.00  0.00    +0.000 A 
ATOM     18  C   UNL     1       7.977   5.279  12.813  0.00  0.00    +0.000 A 
ATOM     19  O   UNL     1       7.651   5.368  14.129  0.00  0.00    +0.000 OA
ENDBRANCH  13  15
ENDBRANCH   1  13
TORSDOF 2
ENDMDL
