MODEL 1
REMARK VINA RESULT:      -6.9      0.000      0.000
REMARK  Name = 
REMARK  9 active torsions:
REMARK  status: ('A' for Active; 'I' for Inactive)
REMARK    1  A    between atoms: C_2  and  C_3
REMARK    2  A    between atoms: C_4  and  C_5
REMARK    3  A    between atoms: N_11  and  C_12
REMARK    4  A    between atoms: C_12  and  C_13
REMARK    5  A    between atoms: C_13  and  C_14
REMARK    6  A    between atoms: C_14  and  C_15
REMARK    7  A    between atoms: C_15  and  C_16
REMARK    8  A    between atoms: C_16  and  C_17
REMARK    9  A    between atoms: N_19  and  O_20
REMARK                            x       y       z     vdW  Elec       q    Type
REMARK                         _______ _______ _______ _____ _____    ______ ____
ROOT
ATOM      1  O   UNL     1       7.499   5.248  20.297  0.00  0.00    +0.000 OA
ATOM      2  C   UNL     1       6.867   5.529  19.278  0.00  0.00    +0.000 C 
ATOM      3  N   UNL     1       7.515   6.095  18.239  0.00  0.00    +0.000 N 
ATOM      4  H   UNL     1       8.507   6.205  18.407  0.00  0.00    +0.000 HD
ENDROOT
BRANCH   2   5
ATOM      5  C   UNL     1       5.418   5.293  19.197  0.00  0.00    +0.000 C 
ATOM      6  C   UNL     1       5.063   4.017  18.991  0.00  0.00    +0.000 C 
BRANCH   6   7
ATOM      7  C   UNL     1       3.695   3.584  18.778  0.00  0.00    +0.000 A 
ATOM      8  C   UNL     1       2.811   4.338  18.013  0.00  0.00    +0.000 A 
ATOM      9  C   UNL     1       1.483   3.934  17.909  0.00  0.00    +0.000 A 
ATOM     10  C   UNL     1       1.102   2.777  18.565  0.00  0.00    +0.000 A 
ATOM     11  N   UNL     1       1.932   2.014  19.313  0.00  0.00    +0.000 NA
ATOM     12  C   UNL     1       3.214   2.434  19.404  0.00  0.00    +0.000 A 
ENDBRANCH   6   7
ENDBRANCH   2   5
BRANCH   3  13
ATOM     13  C   UNL     1       7.093   6.564  16.943  0.00  0.00    +0.000 C 
BRANCH  13  14
ATOM     14  C   UNL     1       7.164   5.392  15.956  0.00  0.00    +0.000 C 
BRANCH  14  15
ATOM     15  C   UNL     1       5.772   4.972  15.523  0.00  0.00    +0.000 C 
BRANCH  15  16
ATOM     16  C   UNL     1       5.756   3.712  14.656  0.00  0.00    +0.000 C 
BRANCH  16  17
ATOM     17  C   UNL     1       6.113   4.117  13.230  0.00  0.00    +0.000 C 
BRANCH  17  18
ATOM     18  C   UNL     1       5.651   3.149  12.169  0.00  0.00    +0.000 C 
ATOM     19  O   UNL     1       4.582   3.218  11.571  0.00  0.00    +0.000 OA
ATOM     20  N   UNL     1       6.565   2.151  11.939  0.00  0.00    +0.000 N 
ATOM     21  H   UNL     1       7.465   2.062  12.398  0.00  0.00    +0.000 HD
BRANCH  20  22
ATOM     22  O   UNL     1       6.236   1.190  10.963  0.00  0.00    +0.000 OA
ATOM     23  H   UNL     1       5.260   1.134  11.047  0.00  0.00    +0.000 HD
ENDBRANCH  20  22
ENDBRANCH  17  18
ENDBRANCH  16  17
ENDBRANCH  15  16
ENDBRANCH  14  15
ENDBRANCH  13  14
ENDBRANCH   3  13
TORSDOF 9
ENDMDL
MODEL 2
REMARK VINA RESULT:      -6.9      3.382      5.456
REMARK  Name = 
REMARK  9 active torsions:
REMARK  status: ('A' for Active; 'I' for Inactive)
REMARK    1  A    between atoms: C_2  and  C_3
REMARK    2  A    between atoms: C_4  and  C_5
REMARK    3  A    between atoms: N_11  and  C_12
REMARK    4  A    between atoms: C_12  and  C_13
REMARK    5  A    between atoms: C_13  and  C_14
REMARK    6  A    between atoms: C_14  and  C_15
REMARK    7  A    between atoms: C_15  and  C_16
REMARK    8  A    between atoms: C_16  and  C_17
REMARK    9  A    between atoms: N_19  and  O_20
REMARK                            x       y       z     vdW  Elec       q    Type
REMARK                         _______ _______ _______ _____ _____    ______ ____
ROOT
ATOM      1  O   UNL     1       2.707   2.944  21.992  0.00  0.00    +0.000 OA
ATOM      2  C   UNL     1       2.105   3.224  20.955  0.00  0.00    +0.000 C 
ATOM      3  N   UNL     1       1.972   2.283  19.997  0.00  0.00    +0.000 N 
ATOM      4  H   UNL     1       2.374   1.392  20.263  0.00  0.00    +0.000 HD
ENDROOT
BRANCH   2   5
ATOM      5  C   UNL     1       1.570   4.575  20.732  0.00  0.00    +0.000 C 
ATOM      6  C   UNL     1       2.404   5.420  20.111  0.00  0.00    +0.000 C 
BRANCH   6   7
ATOM      7  C   UNL     1       2.113   6.824  19.888  0.00  0.00    +0.000 A 
ATOM      8  C   UNL     1       1.456   7.585  20.848  0.00  0.00    +0.000 A 
ATOM      9  C   UNL     1       1.115   8.904  20.558  0.00  0.00    +0.000 A 
ATOM     10  C   UNL     1       1.465   9.407  19.317  0.00  0.00    +0.000 A 
ATOM     11  N   UNL     1       2.108   8.701  18.360  0.00  0.00    +0.000 NA
ATOM     12  C   UNL     1       2.420   7.421  18.665  0.00  0.00    +0.000 A 
ENDBRANCH   6   7
ENDBRANCH   2   5
BRANCH   3  13
ATOM     13  C   UNL     1       1.369   2.277  18.688  0.00  0.00    +0.000 C 
BRANCH  13  14
ATOM     14  C   UNL     1       2.479   2.107  17.643  0.00  0.00    +0.000 C 
BRANCH  14  15
ATOM     15  C   UNL     1       2.934   3.457  17.122  0.00  0.00    +0.000 C 
BRANCH  15  16
ATOM     16  C   UNL     1       4.344   3.841  17.573  0.00  0.00    +0.000 C 
BRANCH  16  17
ATOM     17  C   UNL     1       4.993   4.647  16.453  0.00  0.00    +0.000 C 
BRANCH  17  18
ATOM     18  C   UNL     1       6.487   4.813  16.584  0.00  0.00    +0.000 C 
ATOM     19  O   UNL     1       7.177   5.553  15.891  0.00  0.00    +0.000 OA
ATOM     20  N   UNL     1       7.014   4.025  17.578  0.00  0.00    +0.000 N 
ATOM     21  H   UNL     1       6.482   3.410  18.184  0.00  0.00    +0.000 HD
BRANCH  20  22
ATOM     22  O   UNL     1       8.405   4.102  17.790  0.00  0.00    +0.000 OA
ATOM     23  H   UNL     1       8.627   3.181  18.050  0.00  0.00    +0.000 HD
ENDBRANCH  20  22
ENDBRANCH  17  18
ENDBRANCH  16  17
ENDBRANCH  15  16
ENDBRANCH  14  15
ENDBRANCH  13  14
ENDBRANCH   3  13
TORSDOF 9
ENDMDL
MODEL 3
REMARK VINA RESULT:      -6.6      2.807      6.278
REMARK  Name = 
REMARK  9 active torsions:
REMARK  status: ('A' for Active; 'I' for Inactive)
REMARK    1  A    between atoms: C_2  and  C_3
REMARK    2  A    between atoms: C_4  and  C_5
REMARK    3  A    between atoms: N_11  and  C_12
REMARK    4  A    between atoms: C_12  and  C_13
REMARK    5  A    between atoms: C_13  and  C_14
REMARK    6  A    between atoms: C_14  and  C_15
REMARK    7  A    between atoms: C_15  and  C_16
REMARK    8  A    between atoms: C_16  and  C_17
REMARK    9  A    between atoms: N_19  and  O_20
REMARK                            x       y       z     vdW  Elec       q    Type
REMARK                         _______ _______ _______ _____ _____    ______ ____
ROOT
ATOM      1  O   UNL     1       5.982   4.115  18.805  0.00  0.00    +0.000 OA
ATOM      2  C   UNL     1       5.449   4.996  18.129  0.00  0.00    +0.000 C 
ATOM      3  N   UNL     1       4.386   5.656  18.632  0.00  0.00    +0.000 N 
ATOM      4  H   UNL     1       4.149   5.363  19.571  0.00  0.00    +0.000 HD
ENDROOT
BRANCH   2   5
ATOM      5  C   UNL     1       5.931   5.306  16.775  0.00  0.00    +0.000 C 
ATOM      6  C   UNL     1       5.750   4.331  15.873  0.00  0.00    +0.000 C 
BRANCH   6   7
ATOM      7  C   UNL     1       6.243   4.391  14.510  0.00  0.00    +0.000 A 
ATOM      8  C   UNL     1       5.761   3.530  13.531  0.00  0.00    +0.000 A 
ATOM      9  C   UNL     1       6.325   3.559  12.258  0.00  0.00    +0.000 A 
ATOM     10  C   UNL     1       7.341   4.468  12.018  0.00  0.00    +0.000 A 
ATOM     11  N   UNL     1       7.833   5.325  12.942  0.00  0.00    +0.000 NA
ATOM     12  C   UNL     1       7.272   5.269  14.171  0.00  0.00    +0.000 A 
ENDBRANCH   6   7
ENDBRANCH   2   5
BRANCH   3  13
ATOM     13  C   UNL     1       3.529   6.695  18.118  0.00  0.00    +0.000 C 
BRANCH  13  14
ATOM     14  C   UNL     1       2.073   6.225  18.233  0.00  0.00    +0.000 C 
BRANCH  14  15
ATOM     15  C   UNL     1       1.948   4.766  17.836  0.00  0.00    +0.000 C 
BRANCH  15  16
ATOM     16  C   UNL     1       1.438   3.868  18.964  0.00  0.00    +0.000 C 
BRANCH  16  17
ATOM     17  C   UNL     1       1.701   2.419  18.567  0.00  0.00    +0.000 C 
BRANCH  17  18
ATOM     18  C   UNL     1       3.105   1.939  18.839  0.00  0.00    +0.000 C 
ATOM     19  O   UNL     1       3.740   1.176  18.120  0.00  0.00    +0.000 OA
ATOM     20  N   UNL     1       3.613   2.449  20.010  0.00  0.00    +0.000 N 
ATOM     21  H   UNL     1       3.131   3.092  20.628  0.00  0.00    +0.000 HD
BRANCH  20  22
ATOM     22  O   UNL     1       4.922   2.067  20.362  0.00  0.00    +0.000 OA
ATOM     23  H   UNL     1       5.287   1.760  19.504  0.00  0.00    +0.000 HD
ENDBRANCH  20  22
ENDBRANCH  17  18
ENDBRANCH  16  17
ENDBRANCH  15  16
ENDBRANCH  14  15
ENDBRANCH  13  14
ENDBRANCH   3  13
TORSDOF 9
ENDMDL
MODEL 4
REMARK VINA RESULT:      -6.4      2.989      6.182
REMARK  Name = 
REMARK  9 active torsions:
REMARK  status: ('A' for Active; 'I' for Inactive)
REMARK    1  A    between atoms: C_2  and  C_3
REMARK    2  A    between atoms: C_4  and  C_5
REMARK    3  A    between atoms: N_11  and  C_12
REMARK    4  A    between atoms: C_12  and  C_13
REMARK    5  A    between atoms: C_13  and  C_14
REMARK    6  A    between atoms: C_14  and  C_15
REMARK    7  A    between atoms: C_15  and  C_16
REMARK    8  A    between atoms: C_16  and  C_17
REMARK    9  A    between atoms: N_19  and  O_20
REMARK                            x       y       z     vdW  Elec       q    Type
REMARK                         _______ _______ _______ _____ _____    ______ ____
ROOT
ATOM      1  O   UNL     1       2.466   8.346  18.498  0.00  0.00    +0.000 OA
ATOM      2  C   UNL     1       2.642   7.187  18.872  0.00  0.00    +0.000 C 
ATOM      3  N   UNL     1       2.099   6.783  20.039  0.00  0.00    +0.000 N 
ATOM      4  H   UNL     1       1.551   7.506  20.488  0.00  0.00    +0.000 HD
ENDROOT
BRANCH   2   5
ATOM      5  C   UNL     1       3.466   6.255  18.087  0.00  0.00    +0.000 C 
ATOM      6  C   UNL     1       4.605   6.773  17.606  0.00  0.00    +0.000 C 
BRANCH   6   7
ATOM      7  C   UNL     1       5.507   6.058  16.724  0.00  0.00    +0.000 A 
ATOM      8  C   UNL     1       5.186   5.836  15.390  0.00  0.00    +0.000 A 
ATOM      9  C   UNL     1       6.038   5.068  14.601  0.00  0.00    +0.000 A 
ATOM     10  C   UNL     1       7.189   4.567  15.184  0.00  0.00    +0.000 A 
ATOM     11  N   UNL     1       7.539   4.765  16.476  0.00  0.00    +0.000 NA
ATOM     12  C   UNL     1       6.689   5.508  17.221  0.00  0.00    +0.000 A 
ENDBRANCH   6   7
ENDBRANCH   2   5
BRANCH   3  13
ATOM     13  C   UNL     1       2.127   5.541  20.770  0.00  0.00    +0.000 C 
BRANCH  13  14
ATOM     14  C   UNL     1       0.929   4.690  20.328  0.00  0.00    +0.000 C 
BRANCH  14  15
ATOM     15  C   UNL     1       1.118   3.244  20.743  0.00  0.00    +0.000 C 
BRANCH  15  16
ATOM     16  C   UNL     1       1.153   2.270  19.565  0.00  0.00    +0.000 C 
BRANCH  16  17
ATOM     17  C   UNL     1       1.932   2.929  18.432  0.00  0.00    +0.000 C 
BRANCH  17  18
ATOM     18  C   UNL     1       3.415   2.649  18.444  0.00  0.00    +0.000 C 
ATOM     19  O   UNL     1       4.171   2.817  17.494  0.00  0.00    +0.000 OA
ATOM     20  N   UNL     1       3.844   2.165  19.656  0.00  0.00    +0.000 N 
ATOM     21  H   UNL     1       3.259   2.023  20.472  0.00  0.00    +0.000 HD
BRANCH  20  22
ATOM     22  O   UNL     1       5.216   1.871  19.781  0.00  0.00    +0.000 OA
ATOM     23  H   UNL     1       5.428   2.238  20.667  0.00  0.00    +0.000 HD
ENDBRANCH  20  22
ENDBRANCH  17  18
ENDBRANCH  16  17
ENDBRANCH  15  16
ENDBRANCH  14  15
ENDBRANCH  13  14
ENDBRANCH   3  13
TORSDOF 9
ENDMDL
MODEL 5
REMARK VINA RESULT:      -6.4      2.753      6.255
REMARK  Name = 
REMARK  9 active torsions:
REMARK  status: ('A' for Active; 'I' for Inactive)
REMARK    1  A    between atoms: C_2  and  C_3
REMARK    2  A    between atoms: C_4  and  C_5
REMARK    3  A    between atoms: N_11  and  C_12
REMARK    4  A    between atoms: C_12  and  C_13
REMARK    5  A    between atoms: C_13  and  C_14
REMARK    6  A    between atoms: C_14  and  C_15
REMARK    7  A    between atoms: C_15  and  C_16
REMARK    8  A    between atoms: C_16  and  C_17
REMARK    9  A    between atoms: N_19  and  O_20
REMARK                            x       y       z     vdW  Elec       q    Type
REMARK                         _______ _______ _______ _____ _____    ______ ____
ROOT
ATOM      1  O   UNL     1       5.974   4.161  18.830  0.00  0.00    +0.000 OA
ATOM      2  C   UNL     1       5.360   4.834  18.001  0.00  0.00    +0.000 C 
ATOM      3  N   UNL     1       4.620   5.880  18.424  0.00  0.00    +0.000 N 
ATOM      4  H   UNL     1       4.678   6.025  19.424  0.00  0.00    +0.000 HD
ENDROOT
BRANCH   2   5
ATOM      5  C   UNL     1       5.392   4.489  16.573  0.00  0.00    +0.000 C 
ATOM      6  C   UNL     1       6.567   4.703  15.964  0.00  0.00    +0.000 C 
BRANCH   6   7
ATOM      7  C   UNL     1       6.783   4.527  14.541  0.00  0.00    +0.000 A 
ATOM      8  C   UNL     1       7.702   5.308  13.849  0.00  0.00    +0.000 A 
ATOM      9  C   UNL     1       7.814   5.170  12.469  0.00  0.00    +0.000 A 
ATOM     10  C   UNL     1       7.005   4.238  11.841  0.00  0.00    +0.000 A 
ATOM     11  N   UNL     1       6.104   3.457  12.478  0.00  0.00    +0.000 NA
ATOM     12  C   UNL     1       6.011   3.617  13.818  0.00  0.00    +0.000 A 
ENDBRANCH   6   7
ENDBRANCH   2   5
BRANCH   3  13
ATOM     13  C   UNL     1       3.778   6.837  17.750  0.00  0.00    +0.000 C 
BRANCH  13  14
ATOM     14  C   UNL     1       2.316   6.523  18.093  0.00  0.00    +0.000 C 
BRANCH  14  15
ATOM     15  C   UNL     1       2.229   5.334  19.031  0.00  0.00    +0.000 C 
BRANCH  15  16
ATOM     16  C   UNL     1       1.634   4.085  18.379  0.00  0.00    +0.000 C 
BRANCH  16  17
ATOM     17  C   UNL     1       1.849   2.911  19.327  0.00  0.00    +0.000 C 
BRANCH  17  18
ATOM     18  C   UNL     1       3.129   2.146  19.098  0.00  0.00    +0.000 C 
ATOM     19  O   UNL     1       3.389   1.495  18.092  0.00  0.00    +0.000 OA
ATOM     20  N   UNL     1       3.994   2.245  20.160  0.00  0.00    +0.000 N 
ATOM     21  H   UNL     1       3.828   2.782  21.004  0.00  0.00    +0.000 HD
BRANCH  20  22
ATOM     22  O   UNL     1       5.225   1.569  20.052  0.00  0.00    +0.000 OA
ATOM     23  H   UNL     1       5.814   2.118  20.614  0.00  0.00    +0.000 HD
ENDBRANCH  20  22
ENDBRANCH  17  18
ENDBRANCH  16  17
ENDBRANCH  15  16
ENDBRANCH  14  15
ENDBRANCH  13  14
ENDBRANCH   3  13
TORSDOF 9
ENDMDL
MODEL 6
REMARK VINA RESULT:      -6.4      3.315      5.256
REMARK  Name = 
REMARK  9 active torsions:
REMARK  status: ('A' for Active; 'I' for Inactive)
REMARK    1  A    between atoms: C_2  and  C_3
REMARK    2  A    between atoms: C_4  and  C_5
REMARK    3  A    between atoms: N_11  and  C_12
REMARK    4  A    between atoms: C_12  and  C_13
REMARK    5  A    between atoms: C_13  and  C_14
REMARK    6  A    between atoms: C_14  and  C_15
REMARK    7  A    between atoms: C_15  and  C_16
REMARK    8  A    between atoms: C_16  and  C_17
REMARK    9  A    between atoms: N_19  and  O_20
REMARK                            x       y       z     vdW  Elec       q    Type
REMARK                         _______ _______ _______ _____ _____    ______ ____
ROOT
ATOM      1  O   UNL     1       5.221   3.701  20.005  0.00  0.00    +0.000 OA
ATOM      2  C   UNL     1       4.424   3.952  19.101  0.00  0.00    +0.000 C 
ATOM      3  N   UNL     1       4.551   3.318  17.917  0.00  0.00    +0.000 N 
ATOM      4  H   UNL     1       5.308   2.646  17.910  0.00  0.00    +0.000 HD
ENDROOT
BRANCH   2   5
ATOM      5  C   UNL     1       3.367   4.957  19.283  0.00  0.00    +0.000 C 
ATOM      6  C   UNL     1       3.634   6.162  18.759  0.00  0.00    +0.000 C 
BRANCH   6   7
ATOM      7  C   UNL     1       2.774   7.319  18.915  0.00  0.00    +0.000 A 
ATOM      8  C   UNL     1       2.069   7.540  20.093  0.00  0.00    +0.000 A 
ATOM      9  C   UNL     1       1.185   8.612  20.170  0.00  0.00    +0.000 A 
ATOM     10  C   UNL     1       1.059   9.431  19.061  0.00  0.00    +0.000 A 
ATOM     11  N   UNL     1       1.730   9.253  17.900  0.00  0.00    +0.000 NA
ATOM     12  C   UNL     1       2.575   8.198  17.851  0.00  0.00    +0.000 A 
ENDBRANCH   6   7
ENDBRANCH   2   5
BRANCH   3  13
ATOM     13  C   UNL     1       3.830   3.388  16.670  0.00  0.00    +0.000 C 
BRANCH  13  14
ATOM     14  C   UNL     1       4.613   4.291  15.708  0.00  0.00    +0.000 C 
BRANCH  14  15
ATOM     15  C   UNL     1       6.048   3.817  15.577  0.00  0.00    +0.000 C 
BRANCH  15  16
ATOM     16  C   UNL     1       7.056   4.959  15.434  0.00  0.00    +0.000 C 
BRANCH  16  17
ATOM     17  C   UNL     1       6.995   5.803  16.702  0.00  0.00    +0.000 C 
BRANCH  17  18
ATOM     18  C   UNL     1       7.635   5.165  17.911  0.00  0.00    +0.000 C 
ATOM     19  O   UNL     1       8.350   4.170  17.886  0.00  0.00    +0.000 OA
ATOM     20  N   UNL     1       7.319   5.822  19.075  0.00  0.00    +0.000 N 
ATOM     21  H   UNL     1       6.744   6.655  19.143  0.00  0.00    +0.000 HD
BRANCH  20  22
ATOM     22  O   UNL     1       7.866   5.312  20.269  0.00  0.00    +0.000 OA
ATOM     23  H   UNL     1       7.449   5.884  20.950  0.00  0.00    +0.000 HD
ENDBRANCH  20  22
ENDBRANCH  17  18
ENDBRANCH  16  17
ENDBRANCH  15  16
ENDBRANCH  14  15
ENDBRANCH  13  14
ENDBRANCH   3  13
TORSDOF 9
ENDMDL
MODEL 7
REMARK VINA RESULT:      -6.3      3.581      5.835
REMARK  Name = 
REMARK  9 active torsions:
REMARK  status: ('A' for Active; 'I' for Inactive)
REMARK    1  A    between atoms: C_2  and  C_3
REMARK    2  A    between atoms: C_4  and  C_5
REMARK    3  A    between atoms: N_11  and  C_12
REMARK    4  A    between atoms: C_12  and  C_13
REMARK    5  A    between atoms: C_13  and  C_14
REMARK    6  A    between atoms: C_14  and  C_15
REMARK    7  A    between atoms: C_15  and  C_16
REMARK    8  A    between atoms: C_16  and  C_17
REMARK    9  A    between atoms: N_19  and  O_20
REMARK                            x       y       z     vdW  Elec       q    Type
REMARK                         _______ _______ _______ _____ _____    ______ ____
ROOT
ATOM      1  O   UNL     1       2.328   3.313  22.155  0.00  0.00    +0.000 OA
ATOM      2  C   UNL     1       1.783   3.434  21.058  0.00  0.00    +0.000 C 
ATOM      3  N   UNL     1       1.704   2.362  20.241  0.00  0.00    +0.000 N 
ATOM      4  H   UNL     1       2.093   1.524  20.654  0.00  0.00    +0.000 HD
ENDROOT
BRANCH   2   5
ATOM      5  C   UNL     1       1.258   4.733  20.613  0.00  0.00    +0.000 C 
ATOM      6  C   UNL     1       2.187   5.620  20.231  0.00  0.00    +0.000 C 
BRANCH   6   7
ATOM      7  C   UNL     1       1.891   6.990  19.857  0.00  0.00    +0.000 A 
ATOM      8  C   UNL     1       2.232   7.484  18.604  0.00  0.00    +0.000 A 
ATOM      9  C   UNL     1       2.013   8.829  18.317  0.00  0.00    +0.000 A 
ATOM     10  C   UNL     1       1.442   9.618  19.300  0.00  0.00    +0.000 A 
ATOM     11  N   UNL     1       1.092   9.174  20.529  0.00  0.00    +0.000 NA
ATOM     12  C   UNL     1       1.324   7.865  20.783  0.00  0.00    +0.000 A 
ENDBRANCH   6   7
ENDBRANCH   2   5
BRANCH   3  13
ATOM     13  C   UNL     1       1.175   2.161  18.916  0.00  0.00    +0.000 C 
BRANCH  13  14
ATOM     14  C   UNL     1       2.002   2.996  17.930  0.00  0.00    +0.000 C 
BRANCH  14  15
ATOM     15  C   UNL     1       3.419   2.462  17.833  0.00  0.00    +0.000 C 
BRANCH  15  16
ATOM     16  C   UNL     1       4.336   3.319  16.960  0.00  0.00    +0.000 C 
BRANCH  16  17
ATOM     17  C   UNL     1       4.404   4.713  17.575  0.00  0.00    +0.000 C 
BRANCH  17  18
ATOM     18  C   UNL     1       5.803   5.220  17.827  0.00  0.00    +0.000 C 
ATOM     19  O   UNL     1       6.167   6.381  17.680  0.00  0.00    +0.000 OA
ATOM     20  N   UNL     1       6.652   4.222  18.239  0.00  0.00    +0.000 N 
ATOM     21  H   UNL     1       6.392   3.253  18.386  0.00  0.00    +0.000 HD
BRANCH  20  22
ATOM     22  O   UNL     1       7.987   4.585  18.505  0.00  0.00    +0.000 OA
ATOM     23  H   UNL     1       7.881   5.281  19.189  0.00  0.00    +0.000 HD
ENDBRANCH  20  22
ENDBRANCH  17  18
ENDBRANCH  16  17
ENDBRANCH  15  16
ENDBRANCH  14  15
ENDBRANCH  13  14
ENDBRANCH   3  13
TORSDOF 9
ENDMDL
MODEL 8
REMARK VINA RESULT:      -6.3      0.991      1.253
REMARK  Name = 
REMARK  9 active torsions:
REMARK  status: ('A' for Active; 'I' for Inactive)
REMARK    1  A    between atoms: C_2  and  C_3
REMARK    2  A    between atoms: C_4  and  C_5
REMARK    3  A    between atoms: N_11  and  C_12
REMARK    4  A    between atoms: C_12  and  C_13
REMARK    5  A    between atoms: C_13  and  C_14
REMARK    6  A    between atoms: C_14  and  C_15
REMARK    7  A    between atoms: C_15  and  C_16
REMARK    8  A    between atoms: C_16  and  C_17
REMARK    9  A    between atoms: N_19  and  O_20
REMARK                            x       y       z     vdW  Elec       q    Type
REMARK                         _______ _______ _______ _____ _____    ______ ____
ROOT
ATOM      1  O   UNL     1       7.088   5.435  20.086  0.00  0.00    +0.000 OA
ATOM      2  C   UNL     1       6.559   5.420  18.974  0.00  0.00    +0.000 C 
ATOM      3  N   UNL     1       7.317   5.650  17.882  0.00  0.00    +0.000 N 
ATOM      4  H   UNL     1       8.295   5.786  18.105  0.00  0.00    +0.000 HD
ENDROOT
BRANCH   2   5
ATOM      5  C   UNL     1       5.113   5.195  18.827  0.00  0.00    +0.000 C 
ATOM      6  C   UNL     1       4.636   4.127  19.481  0.00  0.00    +0.000 C 
BRANCH   6   7
ATOM      7  C   UNL     1       3.264   3.668  19.386  0.00  0.00    +0.000 A 
ATOM      8  C   UNL     1       2.454   3.581  20.513  0.00  0.00    +0.000 A 
ATOM      9  C   UNL     1       1.172   3.050  20.393  0.00  0.00    +0.000 A 
ATOM     10  C   UNL     1       0.751   2.645  19.139  0.00  0.00    +0.000 A 
ATOM     11  N   UNL     1       1.507   2.718  18.019  0.00  0.00    +0.000 NA
ATOM     12  C   UNL     1       2.750   3.230  18.166  0.00  0.00    +0.000 A 
ENDBRANCH   6   7
ENDBRANCH   2   5
BRANCH   3  13
ATOM     13  C   UNL     1       7.029   5.731  16.472  0.00  0.00    +0.000 C 
BRANCH  13  14
ATOM     14  C   UNL     1       6.557   4.352  15.993  0.00  0.00    +0.000 C 
BRANCH  14  15
ATOM     15  C   UNL     1       6.826   4.180  14.510  0.00  0.00    +0.000 C 
BRANCH  15  16
ATOM     16  C   UNL     1       5.555   4.054  13.669  0.00  0.00    +0.000 C 
BRANCH  16  17
ATOM     17  C   UNL     1       5.969   3.884  12.212  0.00  0.00    +0.000 C 
BRANCH  17  18
ATOM     18  C   UNL     1       5.605   2.550  11.608  0.00  0.00    +0.000 C 
ATOM     19  O   UNL     1       4.485   2.234  11.221  0.00  0.00    +0.000 OA
ATOM     20  N   UNL     1       6.679   1.697  11.543  0.00  0.00    +0.000 N 
ATOM     21  H   UNL     1       7.624   1.918  11.837  0.00  0.00    +0.000 HD
BRANCH  20  22
ATOM     22  O   UNL     1       6.453   0.420  10.992  0.00  0.00    +0.000 OA
ATOM     23  H   UNL     1       5.639   0.562  10.463  0.00  0.00    +0.000 HD
ENDBRANCH  20  22
ENDBRANCH  17  18
ENDBRANCH  16  17
ENDBRANCH  15  16
ENDBRANCH  14  15
ENDBRANCH  13  14
ENDBRANCH   3  13
TORSDOF 9
ENDMDL
MODEL 9
REMARK VINA RESULT:      -6.3      3.049      6.868
REMARK  Name = 
REMARK  9 active torsions:
REMARK  status: ('A' for Active; 'I' for Inactive)
REMARK    1  A    between atoms: C_2  and  C_3
REMARK    2  A    between atoms: C_4  and  C_5
REMARK    3  A    between atoms: N_11  and  C_12
REMARK    4  A    between atoms: C_12  and  C_13
REMARK    5  A    between atoms: C_13  and  C_14
REMARK    6  A    between atoms: C_14  and  C_15
REMARK    7  A    between atoms: C_15  and  C_16
REMARK    8  A    between atoms: C_16  and  C_17
REMARK    9  A    between atoms: N_19  and  O_20
REMARK                            x       y       z     vdW  Elec       q    Type
REMARK                         _______ _______ _______ _____ _____    ______ ____
ROOT
ATOM      1  O   UNL     1       4.029   2.381  17.543  0.00  0.00    +0.000 OA
ATOM      2  C   UNL     1       4.543   3.478  17.763  0.00  0.00    +0.000 C 
ATOM      3  N   UNL     1       4.230   4.135  18.899  0.00  0.00    +0.000 N 
ATOM      4  H   UNL     1       3.597   3.613  19.492  0.00  0.00    +0.000 HD
ENDROOT
BRANCH   2   5
ATOM      5  C   UNL     1       5.457   4.094  16.790  0.00  0.00    +0.000 C 
ATOM      6  C   UNL     1       5.205   3.796  15.508  0.00  0.00    +0.000 C 
BRANCH   6   7
ATOM      7  C   UNL     1       6.044   4.214  14.401  0.00  0.00    +0.000 A 
ATOM      8  C   UNL     1       5.921   3.634  13.144  0.00  0.00    +0.000 A 
ATOM      9  C   UNL     1       6.807   3.999  12.133  0.00  0.00    +0.000 A 
ATOM     10  C   UNL     1       7.771   4.948  12.426  0.00  0.00    +0.000 A 
ATOM     11  N   UNL     1       7.920   5.538  13.634  0.00  0.00    +0.000 NA
ATOM     12  C   UNL     1       7.052   5.159  14.599  0.00  0.00    +0.000 A 
ENDBRANCH   6   7
ENDBRANCH   2   5
BRANCH   3  13
ATOM     13  C   UNL     1       4.614   5.412  19.446  0.00  0.00    +0.000 C 
BRANCH  13  14
ATOM     14  C   UNL     1       3.611   6.468  18.963  0.00  0.00    +0.000 C 
BRANCH  14  15
ATOM     15  C   UNL     1       2.189   5.962  19.108  0.00  0.00    +0.000 C 
BRANCH  15  16
ATOM     16  C   UNL     1       1.790   5.668  20.555  0.00  0.00    +0.000 C 
BRANCH  16  17
ATOM     17  C   UNL     1       0.887   4.439  20.554  0.00  0.00    +0.000 C 
BRANCH  17  18
ATOM     18  C   UNL     1       1.600   3.138  20.274  0.00  0.00    +0.000 C 
ATOM     19  O   UNL     1       2.480   2.653  20.976  0.00  0.00    +0.000 OA
ATOM     20  N   UNL     1       1.159   2.541  19.119  0.00  0.00    +0.000 N 
ATOM     21  H   UNL     1       0.426   2.897  18.516  0.00  0.00    +0.000 HD
BRANCH  20  22
ATOM     22  O   UNL     1       1.756   1.316  18.761  0.00  0.00    +0.000 OA
ATOM     23  H   UNL     1       0.999   0.818  18.383  0.00  0.00    +0.000 HD
ENDBRANCH  20  22
ENDBRANCH  17  18
ENDBRANCH  16  17
ENDBRANCH  15  16
ENDBRANCH  14  15
ENDBRANCH  13  14
ENDBRANCH   3  13
TORSDOF 9
ENDMDL
