MODEL 1
REMARK VINA RESULT:      -8.2      0.000      0.000
REMARK  Name = 
REMARK  6 active torsions:
REMARK  status: ('A' for Active; 'I' for Inactive)
REMARK    1  A    between atoms: C_1  and  C_2
REMARK    2  A    between atoms: N_4  and  C_5
REMARK    3  A    between atoms: C_5  and  C_6
REMARK    4  A    between atoms: N_8  and  C_9
REMARK    5  A    between atoms: C_12  and  C_13
REMARK    6  A    between atoms: C_16  and  O_17
REMARK                            x       y       z     vdW  Elec       q    Type
REMARK                         _______ _______ _______ _____ _____    ______ ____
ROOT
ATOM      1  C   UNL     1       2.871   7.103  18.570  0.00  0.00    +0.000 A 
ATOM      2  C   UNL     1       2.634   8.079  17.599  0.00  0.00    +0.000 A 
ATOM      3  C   UNL     1       1.775   9.160  17.849  0.00  0.00    +0.000 A 
ATOM      4  C   UNL     1       1.141   9.332  19.093  0.00  0.00    +0.000 A 
ATOM      5  C   UNL     1       1.407   8.350  20.058  0.00  0.00    +0.000 A 
ATOM      6  F   UNL     1       0.881   8.438  21.290  0.00  0.00    +0.000 F 
ATOM      7  C   UNL     1       2.232   7.250  19.805  0.00  0.00    +0.000 A 
ENDROOT
BRANCH   1  10
ATOM      8  C   UNL     1       5.562   4.639  18.254  0.00  0.00    +0.000 C 
ATOM      9  C   UNL     1       5.132   6.088  18.211  0.00  0.00    +0.000 C 
ATOM     10  N   UNL     1       3.707   5.994  18.317  0.00  0.00    +0.000 N 
ATOM     11  C   UNL     1       3.304   4.705  17.998  0.00  0.00    +0.000 C 
ATOM     12  O   UNL     1       2.172   4.275  17.847  0.00  0.00    +0.000 OA
ATOM     13  O   UNL     1       4.407   3.914  17.804  0.00  0.00    +0.000 OA
BRANCH   8  14
ATOM     14  C   UNL     1       6.742   4.358  17.328  0.00  0.00    +0.000 C 
BRANCH  14  18
ATOM     15  C   UNL     1       6.218   3.864  13.615  0.00  0.00    +0.000 C 
ATOM     16  C   UNL     1       6.756   4.498  14.868  0.00  0.00    +0.000 C 
ATOM     17  O   UNL     1       7.511   5.463  14.858  0.00  0.00    +0.000 OA
ATOM     18  N   UNL     1       6.308   3.898  16.022  0.00  0.00    +0.000 N 
ATOM     19  H   UNL     1       5.910   2.967  15.959  0.00  0.00    +0.000 HD
ENDBRANCH  14  18
ENDBRANCH   8  14
ENDBRANCH   1  10
BRANCH   4  20
ATOM     20  C   UNL     1       0.239  10.483  19.343  0.00  0.00    +0.000 A 
ATOM     21  C   UNL     1      -1.044  10.555  18.764  0.00  0.00    +0.000 A 
ATOM     22  C   UNL     1      -1.896  11.642  18.991  0.00  0.00    +0.000 A 
ATOM     23  C   UNL     1      -1.467  12.690  19.791  0.00  0.00    +0.000 A 
ATOM     24  C   UNL     1      -0.210  12.662  20.373  0.00  0.00    +0.000 A 
ATOM     25  C   UNL     1       0.631  11.565  20.158  0.00  0.00    +0.000 A 
BRANCH  23  26
ATOM     26  O   UNL     1      -2.258  13.774  20.027  0.00  0.00    +0.000 OA
ATOM     27  H   UNL     1      -2.879  13.553  20.739  0.00  0.00    +0.000 HD
ENDBRANCH  23  26
ENDBRANCH   4  20
TORSDOF 5
ENDMDL
MODEL 2
REMARK VINA RESULT:      -8.0      1.949      2.572
REMARK  Name = 
REMARK  6 active torsions:
REMARK  status: ('A' for Active; 'I' for Inactive)
REMARK    1  A    between atoms: C_1  and  C_2
REMARK    2  A    between atoms: N_4  and  C_5
REMARK    3  A    between atoms: C_5  and  C_6
REMARK    4  A    between atoms: N_8  and  C_9
REMARK    5  A    between atoms: C_12  and  C_13
REMARK    6  A    between atoms: C_16  and  O_17
REMARK                            x       y       z     vdW  Elec       q    Type
REMARK                         _______ _______ _______ _____ _____    ______ ____
ROOT
ATOM      1  C   UNL     1       3.509   6.200  18.098  0.00  0.00    +0.000 A 
ATOM      2  C   UNL     1       3.081   5.815  19.370  0.00  0.00    +0.000 A 
ATOM      3  C   UNL     1       2.302   6.671  20.164  0.00  0.00    +0.000 A 
ATOM      4  C   UNL     1       1.891   7.937  19.708  0.00  0.00    +0.000 A 
ATOM      5  C   UNL     1       2.319   8.294  18.422  0.00  0.00    +0.000 A 
ATOM      6  F   UNL     1       1.952   9.465  17.877  0.00  0.00    +0.000 F 
ATOM      7  C   UNL     1       3.126   7.463  17.639  0.00  0.00    +0.000 A 
ENDROOT
BRANCH   1  10
ATOM      8  C   UNL     1       6.137   4.538  16.161  0.00  0.00    +0.000 C 
ATOM      9  C   UNL     1       5.453   5.825  16.563  0.00  0.00    +0.000 C 
ATOM     10  N   UNL     1       4.321   5.358  17.304  0.00  0.00    +0.000 N 
ATOM     11  C   UNL     1       4.090   4.024  17.004  0.00  0.00    +0.000 C 
ATOM     12  O   UNL     1       3.148   3.320  17.330  0.00  0.00    +0.000 OA
ATOM     13  O   UNL     1       5.090   3.556  16.191  0.00  0.00    +0.000 OA
BRANCH   8  14
ATOM     14  C   UNL     1       6.736   4.614  14.760  0.00  0.00    +0.000 C 
BRANCH  14  18
ATOM     15  C   UNL     1       5.753   2.529  11.761  0.00  0.00    +0.000 C 
ATOM     16  C   UNL     1       6.465   3.611  12.526  0.00  0.00    +0.000 C 
ATOM     17  O   UNL     1       7.259   4.386  12.006  0.00  0.00    +0.000 OA
ATOM     18  N   UNL     1       6.129   3.652  13.859  0.00  0.00    +0.000 N 
ATOM     19  H   UNL     1       5.683   2.839  14.270  0.00  0.00    +0.000 HD
ENDBRANCH  14  18
ENDBRANCH   8  14
ENDBRANCH   1  10
BRANCH   4  20
ATOM     20  C   UNL     1       1.064   8.829  20.559  0.00  0.00    +0.000 A 
ATOM     21  C   UNL     1       0.223   9.810  20.000  0.00  0.00    +0.000 A 
ATOM     22  C   UNL     1      -0.553  10.659  20.798  0.00  0.00    +0.000 A 
ATOM     23  C   UNL     1      -0.484  10.549  22.178  0.00  0.00    +0.000 A 
ATOM     24  C   UNL     1       0.336   9.601  22.769  0.00  0.00    +0.000 A 
ATOM     25  C   UNL     1       1.096   8.744  21.966  0.00  0.00    +0.000 A 
BRANCH  23  26
ATOM     26  O   UNL     1      -1.211  11.363  22.994  0.00  0.00    +0.000 OA
ATOM     27  H   UNL     1      -2.146  11.108  22.930  0.00  0.00    +0.000 HD
ENDBRANCH  23  26
ENDBRANCH   4  20
TORSDOF 5
ENDMDL
MODEL 3
REMARK VINA RESULT:      -8.0      1.894      2.393
REMARK  Name = 
REMARK  6 active torsions:
REMARK  status: ('A' for Active; 'I' for Inactive)
REMARK    1  A    between atoms: C_1  and  C_2
REMARK    2  A    between atoms: N_4  and  C_5
REMARK    3  A    between atoms: C_5  and  C_6
REMARK    4  A    between atoms: N_8  and  C_9
REMARK    5  A    between atoms: C_12  and  C_13
REMARK    6  A    between atoms: C_16  and  O_17
REMARK                            x       y       z     vdW  Elec       q    Type
REMARK                         _______ _______ _______ _____ _____    ______ ____
ROOT
ATOM      1  C   UNL     1       3.587   6.198  17.978  0.00  0.00    +0.000 A 
ATOM      2  C   UNL     1       3.326   7.520  17.611  0.00  0.00    +0.000 A 
ATOM      3  C   UNL     1       2.510   8.346  18.400  0.00  0.00    +0.000 A 
ATOM      4  C   UNL     1       1.946   7.896  19.608  0.00  0.00    +0.000 A 
ATOM      5  C   UNL     1       2.237   6.571  19.965  0.00  0.00    +0.000 A 
ATOM      6  F   UNL     1       1.779   6.054  21.116  0.00  0.00    +0.000 F 
ATOM      7  C   UNL     1       3.018   5.731  19.166  0.00  0.00    +0.000 A 
ENDROOT
BRANCH   1  10
ATOM      8  C   UNL     1       6.166   4.526  15.985  0.00  0.00    +0.000 C 
ATOM      9  C   UNL     1       5.482   5.813  16.386  0.00  0.00    +0.000 C 
ATOM     10  N   UNL     1       4.380   5.350  17.174  0.00  0.00    +0.000 N 
ATOM     11  C   UNL     1       4.153   4.008  16.906  0.00  0.00    +0.000 C 
ATOM     12  O   UNL     1       3.230   3.301  17.277  0.00  0.00    +0.000 OA
ATOM     13  O   UNL     1       5.130   3.534  16.069  0.00  0.00    +0.000 OA
BRANCH   8  14
ATOM     14  C   UNL     1       6.716   4.580  14.564  0.00  0.00    +0.000 C 
BRANCH  14  18
ATOM     15  C   UNL     1       5.656   2.429  11.639  0.00  0.00    +0.000 C 
ATOM     16  C   UNL     1       6.411   3.508  12.367  0.00  0.00    +0.000 C 
ATOM     17  O   UNL     1       7.238   4.229  11.822  0.00  0.00    +0.000 OA
ATOM     18  N   UNL     1       6.072   3.612  13.696  0.00  0.00    +0.000 N 
ATOM     19  H   UNL     1       5.590   2.834  14.135  0.00  0.00    +0.000 HD
ENDBRANCH  14  18
ENDBRANCH   8  14
ENDBRANCH   1  10
BRANCH   4  20
ATOM     20  C   UNL     1       1.089   8.783  20.433  0.00  0.00    +0.000 A 
ATOM     21  C   UNL     1       0.230   9.733  19.846  0.00  0.00    +0.000 A 
ATOM     22  C   UNL     1      -0.576  10.576  20.619  0.00  0.00    +0.000 A 
ATOM     23  C   UNL     1      -0.519  10.494  22.002  0.00  0.00    +0.000 A 
ATOM     24  C   UNL     1       0.317   9.579  22.620  0.00  0.00    +0.000 A 
ATOM     25  C   UNL     1       1.107   8.725  21.841  0.00  0.00    +0.000 A 
BRANCH  23  26
ATOM     26  O   UNL     1      -1.275  11.306  22.794  0.00  0.00    +0.000 OA
ATOM     27  H   UNL     1      -1.965  10.768  23.216  0.00  0.00    +0.000 HD
ENDBRANCH  23  26
ENDBRANCH   4  20
TORSDOF 5
ENDMDL
MODEL 4
REMARK VINA RESULT:      -8.0      1.058      1.422
REMARK  Name = 
REMARK  6 active torsions:
REMARK  status: ('A' for Active; 'I' for Inactive)
REMARK    1  A    between atoms: C_1  and  C_2
REMARK    2  A    between atoms: N_4  and  C_5
REMARK    3  A    between atoms: C_5  and  C_6
REMARK    4  A    between atoms: N_8  and  C_9
REMARK    5  A    between atoms: C_12  and  C_13
REMARK    6  A    between atoms: C_16  and  O_17
REMARK                            x       y       z     vdW  Elec       q    Type
REMARK                         _______ _______ _______ _____ _____    ______ ____
ROOT
ATOM      1  C   UNL     1       2.952   6.797  18.727  0.00  0.00    +0.000 A 
ATOM      2  C   UNL     1       2.313   6.790  19.969  0.00  0.00    +0.000 A 
ATOM      3  C   UNL     1       1.495   7.857  20.371  0.00  0.00    +0.000 A 
ATOM      4  C   UNL     1       1.253   8.963  19.537  0.00  0.00    +0.000 A 
ATOM      5  C   UNL     1       1.891   8.940  18.288  0.00  0.00    +0.000 A 
ATOM      6  F   UNL     1       1.699   9.929  17.400  0.00  0.00    +0.000 F 
ATOM      7  C   UNL     1       2.737   7.899  17.894  0.00  0.00    +0.000 A 
ENDROOT
BRANCH   1  10
ATOM      8  C   UNL     1       5.683   4.449  18.061  0.00  0.00    +0.000 C 
ATOM      9  C   UNL     1       5.222   5.882  18.195  0.00  0.00    +0.000 C 
ATOM     10  N   UNL     1       3.803   5.743  18.326  0.00  0.00    +0.000 N 
ATOM     11  C   UNL     1       3.417   4.490  17.874  0.00  0.00    +0.000 C 
ATOM     12  O   UNL     1       2.291   4.053  17.704  0.00  0.00    +0.000 OA
ATOM     13  O   UNL     1       4.530   3.752  17.562  0.00  0.00    +0.000 OA
BRANCH   8  14
ATOM     14  C   UNL     1       6.841   4.302  17.079  0.00  0.00    +0.000 C 
BRANCH  14  18
ATOM     15  C   UNL     1       6.264   3.817  13.373  0.00  0.00    +0.000 C 
ATOM     16  C   UNL     1       6.812   4.454  14.620  0.00  0.00    +0.000 C 
ATOM     17  O   UNL     1       7.551   5.431  14.602  0.00  0.00    +0.000 OA
ATOM     18  N   UNL     1       6.393   3.842  15.778  0.00  0.00    +0.000 N 
ATOM     19  H   UNL     1       6.009   2.904  15.717  0.00  0.00    +0.000 HD
ENDBRANCH  14  18
ENDBRANCH   8  14
ENDBRANCH   1  10
BRANCH   4  20
ATOM     20  C   UNL     1       0.382  10.082  19.976  0.00  0.00    +0.000 A 
ATOM     21  C   UNL     1      -0.793  10.420  19.277  0.00  0.00    +0.000 A 
ATOM     22  C   UNL     1      -1.614  11.478  19.683  0.00  0.00    +0.000 A 
ATOM     23  C   UNL     1      -1.258  12.231  20.791  0.00  0.00    +0.000 A 
ATOM     24  C   UNL     1      -0.106  11.936  21.502  0.00  0.00    +0.000 A 
ATOM     25  C   UNL     1       0.701  10.866  21.103  0.00  0.00    +0.000 A 
BRANCH  23  26
ATOM     26  O   UNL     1      -2.020  13.279  21.213  0.00  0.00    +0.000 OA
ATOM     27  H   UNL     1      -2.347  13.082  22.106  0.00  0.00    +0.000 HD
ENDBRANCH  23  26
ENDBRANCH   4  20
TORSDOF 5
ENDMDL
MODEL 5
REMARK VINA RESULT:      -7.9      1.637      2.075
REMARK  Name = 
REMARK  6 active torsions:
REMARK  status: ('A' for Active; 'I' for Inactive)
REMARK    1  A    between atoms: C_1  and  C_2
REMARK    2  A    between atoms: N_4  and  C_5
REMARK    3  A    between atoms: C_5  and  C_6
REMARK    4  A    between atoms: N_8  and  C_9
REMARK    5  A    between atoms: C_12  and  C_13
REMARK    6  A    between atoms: C_16  and  O_17
REMARK                            x       y       z     vdW  Elec       q    Type
REMARK                         _______ _______ _______ _____ _____    ______ ____
ROOT
ATOM      1  C   UNL     1       2.694   6.620  19.055  0.00  0.00    +0.000 A 
ATOM      2  C   UNL     1       2.130   6.353  20.305  0.00  0.00    +0.000 A 
ATOM      3  C   UNL     1       1.354   7.314  20.972  0.00  0.00    +0.000 A 
ATOM      4  C   UNL     1       1.080   8.572  20.405  0.00  0.00    +0.000 A 
ATOM      5  C   UNL     1       1.643   8.811  19.143  0.00  0.00    +0.000 A 
ATOM      6  F   UNL     1       1.414   9.965  18.497  0.00  0.00    +0.000 F 
ATOM      7  C   UNL     1       2.448   7.873  18.488  0.00  0.00    +0.000 A 
ENDROOT
BRANCH   1  10
ATOM      8  C   UNL     1       5.334   4.426  17.778  0.00  0.00    +0.000 C 
ATOM      9  C   UNL     1       4.925   5.796  18.270  0.00  0.00    +0.000 C 
ATOM     10  N   UNL     1       3.504   5.672  18.391  0.00  0.00    +0.000 N 
ATOM     11  C   UNL     1       3.070   4.582  17.651  0.00  0.00    +0.000 C 
ATOM     12  O   UNL     1       1.927   4.236  17.401  0.00  0.00    +0.000 OA
ATOM     13  O   UNL     1       4.152   3.910  17.145  0.00  0.00    +0.000 OA
BRANCH   8  14
ATOM     14  C   UNL     1       6.475   4.491  16.768  0.00  0.00    +0.000 C 
BRANCH  14  18
ATOM     15  C   UNL     1       6.171   3.710  13.080  0.00  0.00    +0.000 C 
ATOM     16  C   UNL     1       6.693   4.389  14.315  0.00  0.00    +0.000 C 
ATOM     17  O   UNL     1       7.569   5.246  14.288  0.00  0.00    +0.000 OA
ATOM     18  N   UNL     1       6.083   3.966  15.473  0.00  0.00    +0.000 N 
ATOM     19  H   UNL     1       5.570   3.090  15.457  0.00  0.00    +0.000 HD
ENDBRANCH  14  18
ENDBRANCH   8  14
ENDBRANCH   1  10
BRANCH   4  20
ATOM     20  C   UNL     1       0.255   9.575  21.122  0.00  0.00    +0.000 A 
ATOM     21  C   UNL     1      -0.094   9.411  22.477  0.00  0.00    +0.000 A 
ATOM     22  C   UNL     1      -0.878  10.350  23.156  0.00  0.00    +0.000 A 
ATOM     23  C   UNL     1      -1.344  11.466  22.479  0.00  0.00    +0.000 A 
ATOM     24  C   UNL     1      -1.030  11.663  21.144  0.00  0.00    +0.000 A 
ATOM     25  C   UNL     1      -0.230  10.729  20.475  0.00  0.00    +0.000 A 
BRANCH  23  26
ATOM     26  O   UNL     1      -2.122  12.399  23.097  0.00  0.00    +0.000 OA
ATOM     27  H   UNL     1      -2.357  13.083  22.448  0.00  0.00    +0.000 HD
ENDBRANCH  23  26
ENDBRANCH   4  20
TORSDOF 5
ENDMDL
MODEL 6
REMARK VINA RESULT:      -7.8      1.948      2.624
REMARK  Name = 
REMARK  6 active torsions:
REMARK  status: ('A' for Active; 'I' for Inactive)
REMARK    1  A    between atoms: C_1  and  C_2
REMARK    2  A    between atoms: N_4  and  C_5
REMARK    3  A    between atoms: C_5  and  C_6
REMARK    4  A    between atoms: N_8  and  C_9
REMARK    5  A    between atoms: C_12  and  C_13
REMARK    6  A    between atoms: C_16  and  O_17
REMARK                            x       y       z     vdW  Elec       q    Type
REMARK                         _______ _______ _______ _____ _____    ______ ____
ROOT
ATOM      1  C   UNL     1       3.752   6.110  17.868  0.00  0.00    +0.000 A 
ATOM      2  C   UNL     1       3.466   7.417  17.466  0.00  0.00    +0.000 A 
ATOM      3  C   UNL     1       2.637   8.248  18.236  0.00  0.00    +0.000 A 
ATOM      4  C   UNL     1       2.083   7.820  19.457  0.00  0.00    +0.000 A 
ATOM      5  C   UNL     1       2.399   6.510  19.847  0.00  0.00    +0.000 A 
ATOM      6  F   UNL     1       1.952   6.015  21.012  0.00  0.00    +0.000 F 
ATOM      7  C   UNL     1       3.194   5.663  19.068  0.00  0.00    +0.000 A 
ENDROOT
BRANCH   1  10
ATOM      8  C   UNL     1       6.312   4.478  15.817  0.00  0.00    +0.000 C 
ATOM      9  C   UNL     1       5.528   5.729  16.143  0.00  0.00    +0.000 C 
ATOM     10  N   UNL     1       4.559   5.255  17.084  0.00  0.00    +0.000 N 
ATOM     11  C   UNL     1       4.458   3.875  16.988  0.00  0.00    +0.000 C 
ATOM     12  O   UNL     1       3.655   3.129  17.525  0.00  0.00    +0.000 OA
ATOM     13  O   UNL     1       5.402   3.405  16.112  0.00  0.00    +0.000 OA
BRANCH   8  14
ATOM     14  C   UNL     1       6.723   4.418  14.350  0.00  0.00    +0.000 C 
BRANCH  14  18
ATOM     15  C   UNL     1       4.521   3.114  11.565  0.00  0.00    +0.000 C 
ATOM     16  C   UNL     1       5.799   3.401  12.305  0.00  0.00    +0.000 C 
ATOM     17  O   UNL     1       6.902   3.071  11.887  0.00  0.00    +0.000 OA
ATOM     18  N   UNL     1       5.607   4.078  13.487  0.00  0.00    +0.000 N 
ATOM     19  H   UNL     1       4.678   4.086  13.895  0.00  0.00    +0.000 HD
ENDBRANCH  14  18
ENDBRANCH   8  14
ENDBRANCH   1  10
BRANCH   4  20
ATOM     20  C   UNL     1       1.212   8.712  20.260  0.00  0.00    +0.000 A 
ATOM     21  C   UNL     1       1.207   8.668  21.668  0.00  0.00    +0.000 A 
ATOM     22  C   UNL     1       0.382   9.502  22.430  0.00  0.00    +0.000 A 
ATOM     23  C   UNL     1      -0.472  10.387  21.789  0.00  0.00    +0.000 A 
ATOM     24  C   UNL     1      -0.503  10.458  20.406  0.00  0.00    +0.000 A 
ATOM     25  C   UNL     1       0.337   9.634  19.649  0.00  0.00    +0.000 A 
BRANCH  23  26
ATOM     26  O   UNL     1      -1.302  11.208  22.491  0.00  0.00    +0.000 OA
ATOM     27  H   UNL     1      -2.050  10.681  22.819  0.00  0.00    +0.000 HD
ENDBRANCH  23  26
ENDBRANCH   4  20
TORSDOF 5
ENDMDL
MODEL 7
REMARK VINA RESULT:      -7.6      1.087      1.462
REMARK  Name = 
REMARK  6 active torsions:
REMARK  status: ('A' for Active; 'I' for Inactive)
REMARK    1  A    between atoms: C_1  and  C_2
REMARK    2  A    between atoms: N_4  and  C_5
REMARK    3  A    between atoms: C_5  and  C_6
REMARK    4  A    between atoms: N_8  and  C_9
REMARK    5  A    between atoms: C_12  and  C_13
REMARK    6  A    between atoms: C_16  and  O_17
REMARK                            x       y       z     vdW  Elec       q    Type
REMARK                         _______ _______ _______ _____ _____    ______ ____
ROOT
ATOM      1  C   UNL     1       2.307   7.321  18.905  0.00  0.00    +0.000 A 
ATOM      2  C   UNL     1       2.182   8.200  17.827  0.00  0.00    +0.000 A 
ATOM      3  C   UNL     1       1.531   9.436  17.968  0.00  0.00    +0.000 A 
ATOM      4  C   UNL     1       1.006   9.861  19.202  0.00  0.00    +0.000 A 
ATOM      5  C   UNL     1       1.159   8.969  20.274  0.00  0.00    +0.000 A 
ATOM      6  F   UNL     1       0.725   9.292  21.503  0.00  0.00    +0.000 F 
ATOM      7  C   UNL     1       1.773   7.721  20.132  0.00  0.00    +0.000 A 
ENDROOT
BRANCH   1  10
ATOM      8  C   UNL     1       4.400   4.318  19.056  0.00  0.00    +0.000 C 
ATOM      9  C   UNL     1       4.312   5.827  19.062  0.00  0.00    +0.000 C 
ATOM     10  N   UNL     1       2.931   6.061  18.764  0.00  0.00    +0.000 N 
ATOM     11  C   UNL     1       2.379   4.919  18.203  0.00  0.00    +0.000 C 
ATOM     12  O   UNL     1       1.277   4.771  17.702  0.00  0.00    +0.000 OA
ATOM     13  O   UNL     1       3.301   3.904  18.228  0.00  0.00    +0.000 OA
BRANCH   8  14
ATOM     14  C   UNL     1       5.712   3.817  18.461  0.00  0.00    +0.000 C 
BRANCH  14  18
ATOM     15  C   UNL     1       6.988   4.661  15.002  0.00  0.00    +0.000 C 
ATOM     16  C   UNL     1       7.065   4.345  16.470  0.00  0.00    +0.000 C 
ATOM     17  O   UNL     1       8.122   4.276  17.085  0.00  0.00    +0.000 OA
ATOM     18  N   UNL     1       5.834   4.156  17.055  0.00  0.00    +0.000 N 
ATOM     19  H   UNL     1       5.037   3.969  16.455  0.00  0.00    +0.000 HD
ENDBRANCH  14  18
ENDBRANCH   8  14
ENDBRANCH   1  10
BRANCH   4  20
ATOM     20  C   UNL     1       0.324  11.172  19.336  0.00  0.00    +0.000 A 
ATOM     21  C   UNL     1       1.019  12.385  19.167  0.00  0.00    +0.000 A 
ATOM     22  C   UNL     1       0.382  13.625  19.299  0.00  0.00    +0.000 A 
ATOM     23  C   UNL     1      -0.965  13.669  19.623  0.00  0.00    +0.000 A 
ATOM     24  C   UNL     1      -1.684  12.498  19.805  0.00  0.00    +0.000 A 
ATOM     25  C   UNL     1      -1.046  11.262  19.653  0.00  0.00    +0.000 A 
BRANCH  23  26
ATOM     26  O   UNL     1      -1.621  14.853  19.776  0.00  0.00    +0.000 OA
ATOM     27  H   UNL     1      -2.566  14.706  19.600  0.00  0.00    +0.000 HD
ENDBRANCH  23  26
ENDBRANCH   4  20
TORSDOF 5
ENDMDL
MODEL 8
REMARK VINA RESULT:      -7.6      2.968      9.214
REMARK  Name = 
REMARK  6 active torsions:
REMARK  status: ('A' for Active; 'I' for Inactive)
REMARK    1  A    between atoms: C_1  and  C_2
REMARK    2  A    between atoms: N_4  and  C_5
REMARK    3  A    between atoms: C_5  and  C_6
REMARK    4  A    between atoms: N_8  and  C_9
REMARK    5  A    between atoms: C_12  and  C_13
REMARK    6  A    between atoms: C_16  and  O_17
REMARK                            x       y       z     vdW  Elec       q    Type
REMARK                         _______ _______ _______ _____ _____    ______ ____
ROOT
ATOM      1  C   UNL     1       0.920   9.746  19.559  0.00  0.00    +0.000 A 
ATOM      2  C   UNL     1       1.378   9.776  18.240  0.00  0.00    +0.000 A 
ATOM      3  C   UNL     1       2.149   8.726  17.715  0.00  0.00    +0.000 A 
ATOM      4  C   UNL     1       2.468   7.586  18.476  0.00  0.00    +0.000 A 
ATOM      5  C   UNL     1       1.982   7.572  19.791  0.00  0.00    +0.000 A 
ATOM      6  F   UNL     1       2.199   6.515  20.591  0.00  0.00    +0.000 F 
ATOM      7  C   UNL     1       1.246   8.629  20.334  0.00  0.00    +0.000 A 
ENDROOT
BRANCH   1  10
ATOM      8  C   UNL     1      -1.605  12.060  20.858  0.00  0.00    +0.000 C 
ATOM      9  C   UNL     1      -1.213  11.032  19.822  0.00  0.00    +0.000 C 
ATOM     10  N   UNL     1       0.172  10.812  20.107  0.00  0.00    +0.000 N 
ATOM     11  C   UNL     1       0.661  11.865  20.866  0.00  0.00    +0.000 C 
ATOM     12  O   UNL     1       1.813  12.102  21.191  0.00  0.00    +0.000 OA
ATOM     13  O   UNL     1      -0.369  12.709  21.196  0.00  0.00    +0.000 OA
BRANCH   8  14
ATOM     14  C   UNL     1      -2.594  13.085  20.312  0.00  0.00    +0.000 C 
BRANCH  14  18
ATOM     15  C   UNL     1      -5.326  11.721  18.081  0.00  0.00    +0.000 C 
ATOM     16  C   UNL     1      -4.691  12.224  19.348  0.00  0.00    +0.000 C 
ATOM     17  O   UNL     1      -5.298  12.316  20.408  0.00  0.00    +0.000 OA
ATOM     18  N   UNL     1      -3.365  12.556  19.202  0.00  0.00    +0.000 N 
ATOM     19  H   UNL     1      -3.004  12.706  18.266  0.00  0.00    +0.000 HD
ENDBRANCH  14  18
ENDBRANCH   8  14
ENDBRANCH   1  10
BRANCH   4  20
ATOM     20  C   UNL     1       3.280   6.484  17.904  0.00  0.00    +0.000 A 
ATOM     21  C   UNL     1       2.814   5.155  17.891  0.00  0.00    +0.000 A 
ATOM     22  C   UNL     1       3.579   4.110  17.359  0.00  0.00    +0.000 A 
ATOM     23  C   UNL     1       4.839   4.379  16.847  0.00  0.00    +0.000 A 
ATOM     24  C   UNL     1       5.338   5.672  16.848  0.00  0.00    +0.000 A 
ATOM     25  C   UNL     1       4.561   6.715  17.364  0.00  0.00    +0.000 A 
BRANCH  23  26
ATOM     26  O   UNL     1       5.624   3.391  16.333  0.00  0.00    +0.000 OA
ATOM     27  H   UNL     1       6.193   3.776  15.647  0.00  0.00    +0.000 HD
ENDBRANCH  23  26
ENDBRANCH   4  20
TORSDOF 5
ENDMDL
MODEL 9
REMARK VINA RESULT:      -7.6      3.373      9.093
REMARK  Name = 
REMARK  6 active torsions:
REMARK  status: ('A' for Active; 'I' for Inactive)
REMARK    1  A    between atoms: C_1  and  C_2
REMARK    2  A    between atoms: N_4  and  C_5
REMARK    3  A    between atoms: C_5  and  C_6
REMARK    4  A    between atoms: N_8  and  C_9
REMARK    5  A    between atoms: C_12  and  C_13
REMARK    6  A    between atoms: C_16  and  O_17
REMARK                            x       y       z     vdW  Elec       q    Type
REMARK                         _______ _______ _______ _____ _____    ______ ____
ROOT
ATOM      1  C   UNL     1       1.074   9.804  18.868  0.00  0.00    +0.000 A 
ATOM      2  C   UNL     1       1.777   9.233  17.804  0.00  0.00    +0.000 A 
ATOM      3  C   UNL     1       2.435   8.001  17.947  0.00  0.00    +0.000 A 
ATOM      4  C   UNL     1       2.392   7.270  19.148  0.00  0.00    +0.000 A 
ATOM      5  C   UNL     1       1.665   7.855  20.195  0.00  0.00    +0.000 A 
ATOM      6  F   UNL     1       1.530   7.225  21.373  0.00  0.00    +0.000 F 
ATOM      7  C   UNL     1       1.038   9.099  20.074  0.00  0.00    +0.000 A 
ENDROOT
BRANCH   1  10
ATOM      8  C   UNL     1       0.120  13.321  18.501  0.00  0.00    +0.000 C 
ATOM      9  C   UNL     1       1.060  12.298  19.096  0.00  0.00    +0.000 C 
ATOM     10  N   UNL     1       0.437  11.058  18.744  0.00  0.00    +0.000 N 
ATOM     11  C   UNL     1      -0.890  11.286  18.412  0.00  0.00    +0.000 C 
ATOM     12  O   UNL     1      -1.772  10.473  18.188  0.00  0.00    +0.000 OA
ATOM     13  O   UNL     1      -1.139  12.635  18.413  0.00  0.00    +0.000 OA
BRANCH   8  14
ATOM     14  C   UNL     1      -0.025  14.556  19.385  0.00  0.00    +0.000 C 
BRANCH  14  18
ATOM     15  C   UNL     1      -0.590  17.814  17.548  0.00  0.00    +0.000 C 
ATOM     16  C   UNL     1       0.168  16.771  18.322  0.00  0.00    +0.000 C 
ATOM     17  O   UNL     1       1.348  16.892  18.629  0.00  0.00    +0.000 OA
ATOM     18  N   UNL     1      -0.595  15.677  18.659  0.00  0.00    +0.000 N 
ATOM     19  H   UNL     1      -1.465  15.521  18.161  0.00  0.00    +0.000 HD
ENDBRANCH  14  18
ENDBRANCH   8  14
ENDBRANCH   1  10
BRANCH   4  20
ATOM     20  C   UNL     1       3.090   5.968  19.281  0.00  0.00    +0.000 A 
ATOM     21  C   UNL     1       4.450   5.822  18.947  0.00  0.00    +0.000 A 
ATOM     22  C   UNL     1       5.112   4.594  19.064  0.00  0.00    +0.000 A 
ATOM     23  C   UNL     1       4.411   3.481  19.501  0.00  0.00    +0.000 A 
ATOM     24  C   UNL     1       3.069   3.579  19.833  0.00  0.00    +0.000 A 
ATOM     25  C   UNL     1       2.418   4.813  19.732  0.00  0.00    +0.000 A 
BRANCH  23  26
ATOM     26  O   UNL     1       5.011   2.263  19.616  0.00  0.00    +0.000 OA
ATOM     27  H   UNL     1       4.412   1.669  20.097  0.00  0.00    +0.000 HD
ENDBRANCH  23  26
ENDBRANCH   4  20
TORSDOF 5
ENDMDL
