MODEL 1
REMARK VINA RESULT:      -5.5      0.000      0.000
REMARK  Name = 
REMARK  9 active torsions:
REMARK  status: ('A' for Active; 'I' for Inactive)
REMARK    1  A    between atoms: C_1  and  C_2
REMARK    2  A    between atoms: C_5  and  S_6
REMARK    3  A    between atoms: S_6  and  S_7
REMARK    4  A    between atoms: S_7  and  C_8
REMARK    5  A    between atoms: C_8  and  C_9
REMARK    6  A    between atoms: C_9  and  C_10
REMARK    7  A    between atoms: C_10  and  C_11
REMARK    8  A    between atoms: C_11  and  C_12
REMARK    9  A    between atoms: C_12  and  S_13
REMARK                            x       y       z     vdW  Elec       q    Type
REMARK                         _______ _______ _______ _____ _____    ______ ____
ROOT
ATOM      1  S   UNL     1       2.907   6.739  18.651  0.00  0.00    +0.000 S 
ENDROOT
BRANCH   1   2
ATOM      2  S   UNL     1       4.712   5.827  19.056  0.00  0.00    +0.000 S 
BRANCH   2   7
ATOM      3  C   UNL     1       6.520   3.940  13.555  0.00  0.00    +0.000 C 
ATOM      4  C   UNL     1       6.080   4.391  14.915  0.00  0.00    +0.000 A 
ATOM      5  C   UNL     1       4.872   3.947  15.451  0.00  0.00    +0.000 A 
ATOM      6  C   UNL     1       4.448   4.384  16.704  0.00  0.00    +0.000 A 
ATOM      7  C   UNL     1       5.235   5.277  17.445  0.00  0.00    +0.000 A 
ATOM      8  C   UNL     1       6.442   5.733  16.913  0.00  0.00    +0.000 A 
ATOM      9  C   UNL     1       6.861   5.295  15.646  0.00  0.00    +0.000 A 
ENDBRANCH   2   7
ENDBRANCH   1   2
BRANCH   1  10
ATOM     10  C   UNL     1       1.997   6.579  20.237  0.00  0.00    +0.000 C 
BRANCH  10  11
ATOM     11  C   UNL     1       1.995   5.197  20.887  0.00  0.00    +0.000 C 
BRANCH  11  12
ATOM     12  C   UNL     1       1.123   4.179  20.152  0.00  0.00    +0.000 C 
BRANCH  12  13
ATOM     13  C   UNL     1       1.533   2.724  20.427  0.00  0.00    +0.000 C 
BRANCH  13  14
ATOM     14  C   UNL     1       2.879   2.526  21.123  0.00  0.00    +0.000 C 
BRANCH  14  15
ATOM     15  S   UNL     1       4.215   2.290  19.874  0.00  0.00    +0.000 S 
ATOM     16  O   UNL     1       5.244   1.518  20.665  0.00  0.00    +0.000 OA
ATOM     17  O   UNL     1       3.486   1.499  18.816  0.00  0.00    +0.000 OA
ENDBRANCH  14  15
ENDBRANCH  13  14
ENDBRANCH  12  13
ENDBRANCH  11  12
ENDBRANCH  10  11
ENDBRANCH   1  10
TORSDOF 8
ENDMDL
MODEL 2
REMARK VINA RESULT:      -5.5      2.859      5.364
REMARK  Name = 
REMARK  9 active torsions:
REMARK  status: ('A' for Active; 'I' for Inactive)
REMARK    1  A    between atoms: C_1  and  C_2
REMARK    2  A    between atoms: C_5  and  S_6
REMARK    3  A    between atoms: S_6  and  S_7
REMARK    4  A    between atoms: S_7  and  C_8
REMARK    5  A    between atoms: C_8  and  C_9
REMARK    6  A    between atoms: C_9  and  C_10
REMARK    7  A    between atoms: C_10  and  C_11
REMARK    8  A    between atoms: C_11  and  C_12
REMARK    9  A    between atoms: C_12  and  S_13
REMARK                            x       y       z     vdW  Elec       q    Type
REMARK                         _______ _______ _______ _____ _____    ______ ____
ROOT
ATOM      1  S   UNL     1       0.845   3.778  19.813  0.00  0.00    +0.000 S 
ENDROOT
BRANCH   1   2
ATOM      2  S   UNL     1       2.420   4.851  20.602  0.00  0.00    +0.000 S 
BRANCH   2   7
ATOM      3  C   UNL     1       1.592  10.363  18.147  0.00  0.00    +0.000 C 
ATOM      4  C   UNL     1       1.781   9.004  18.749  0.00  0.00    +0.000 A 
ATOM      5  C   UNL     1       1.404   8.755  20.068  0.00  0.00    +0.000 A 
ATOM      6  C   UNL     1       1.601   7.500  20.638  0.00  0.00    +0.000 A 
ATOM      7  C   UNL     1       2.181   6.466  19.889  0.00  0.00    +0.000 A 
ATOM      8  C   UNL     1       2.567   6.707  18.570  0.00  0.00    +0.000 A 
ATOM      9  C   UNL     1       2.373   7.977  18.002  0.00  0.00    +0.000 A 
ENDBRANCH   2   7
ENDBRANCH   1   2
BRANCH   1  10
ATOM     10  C   UNL     1       1.444   3.337  18.135  0.00  0.00    +0.000 C 
BRANCH  10  11
ATOM     11  C   UNL     1       2.430   2.175  18.047  0.00  0.00    +0.000 C 
BRANCH  11  12
ATOM     12  C   UNL     1       3.891   2.619  17.961  0.00  0.00    +0.000 C 
BRANCH  12  13
ATOM     13  C   UNL     1       4.101   3.823  17.031  0.00  0.00    +0.000 C 
BRANCH  13  14
ATOM     14  C   UNL     1       5.428   3.862  16.273  0.00  0.00    +0.000 C 
BRANCH  14  15
ATOM     15  S   UNL     1       6.657   4.889  17.186  0.00  0.00    +0.000 S 
ATOM     16  O   UNL     1       6.523   4.354  18.591  0.00  0.00    +0.000 OA
ATOM     17  O   UNL     1       7.933   4.517  16.471  0.00  0.00    +0.000 OA
ENDBRANCH  14  15
ENDBRANCH  13  14
ENDBRANCH  12  13
ENDBRANCH  11  12
ENDBRANCH  10  11
ENDBRANCH   1  10
TORSDOF 8
ENDMDL
MODEL 3
REMARK VINA RESULT:      -5.4      3.017      5.604
REMARK  Name = 
REMARK  9 active torsions:
REMARK  status: ('A' for Active; 'I' for Inactive)
REMARK    1  A    between atoms: C_1  and  C_2
REMARK    2  A    between atoms: C_5  and  S_6
REMARK    3  A    between atoms: S_6  and  S_7
REMARK    4  A    between atoms: S_7  and  C_8
REMARK    5  A    between atoms: C_8  and  C_9
REMARK    6  A    between atoms: C_9  and  C_10
REMARK    7  A    between atoms: C_10  and  C_11
REMARK    8  A    between atoms: C_11  and  C_12
REMARK    9  A    between atoms: C_12  and  S_13
REMARK                            x       y       z     vdW  Elec       q    Type
REMARK                         _______ _______ _______ _____ _____    ______ ____
ROOT
ATOM      1  S   UNL     1       1.187   3.458  19.628  0.00  0.00    +0.000 S 
ENDROOT
BRANCH   1   2
ATOM      2  S   UNL     1       2.539   4.652  20.629  0.00  0.00    +0.000 S 
BRANCH   2   7
ATOM      3  C   UNL     1       1.475  10.134  18.198  0.00  0.00    +0.000 C 
ATOM      4  C   UNL     1       1.722   8.782  18.794  0.00  0.00    +0.000 A 
ATOM      5  C   UNL     1       1.412   8.530  20.131  0.00  0.00    +0.000 A 
ATOM      6  C   UNL     1       1.663   7.282  20.695  0.00  0.00    +0.000 A 
ATOM      7  C   UNL     1       2.231   6.258  19.922  0.00  0.00    +0.000 A 
ATOM      8  C   UNL     1       2.551   6.502  18.586  0.00  0.00    +0.000 A 
ATOM      9  C   UNL     1       2.302   7.766  18.024  0.00  0.00    +0.000 A 
ENDBRANCH   2   7
ENDBRANCH   1   2
BRANCH   1  10
ATOM     10  C   UNL     1       2.178   2.789  18.234  0.00  0.00    +0.000 C 
BRANCH  10  11
ATOM     11  C   UNL     1       3.621   3.275  18.128  0.00  0.00    +0.000 C 
BRANCH  11  12
ATOM     12  C   UNL     1       4.055   3.590  16.697  0.00  0.00    +0.000 C 
BRANCH  12  13
ATOM     13  C   UNL     1       5.138   4.677  16.620  0.00  0.00    +0.000 C 
BRANCH  13  14
ATOM     14  C   UNL     1       6.171   4.676  17.746  0.00  0.00    +0.000 C 
BRANCH  14  15
ATOM     15  S   UNL     1       7.010   6.315  17.846  0.00  0.00    +0.000 S 
ATOM     16  O   UNL     1       8.033   6.073  18.930  0.00  0.00    +0.000 OA
ATOM     17  O   UNL     1       7.566   6.441  16.449  0.00  0.00    +0.000 OA
ENDBRANCH  14  15
ENDBRANCH  13  14
ENDBRANCH  12  13
ENDBRANCH  11  12
ENDBRANCH  10  11
ENDBRANCH   1  10
TORSDOF 8
ENDMDL
MODEL 4
REMARK VINA RESULT:      -5.4      5.037      7.848
REMARK  Name = 
REMARK  9 active torsions:
REMARK  status: ('A' for Active; 'I' for Inactive)
REMARK    1  A    between atoms: C_1  and  C_2
REMARK    2  A    between atoms: C_5  and  S_6
REMARK    3  A    between atoms: S_6  and  S_7
REMARK    4  A    between atoms: S_7  and  C_8
REMARK    5  A    between atoms: C_8  and  C_9
REMARK    6  A    between atoms: C_9  and  C_10
REMARK    7  A    between atoms: C_10  and  C_11
REMARK    8  A    between atoms: C_11  and  C_12
REMARK    9  A    between atoms: C_12  and  S_13
REMARK                            x       y       z     vdW  Elec       q    Type
REMARK                         _______ _______ _______ _____ _____    ______ ____
ROOT
ATOM      1  S   UNL     1       6.048   5.317  17.023  0.00  0.00    +0.000 S 
ENDROOT
BRANCH   1   2
ATOM      2  S   UNL     1       4.327   6.443  17.185  0.00  0.00    +0.000 S 
BRANCH   2   7
ATOM      3  C   UNL     1       0.872   3.018  20.849  0.00  0.00    +0.000 C 
ATOM      4  C   UNL     1       1.734   3.850  19.950  0.00  0.00    +0.000 A 
ATOM      5  C   UNL     1       2.660   4.745  20.486  0.00  0.00    +0.000 A 
ATOM      6  C   UNL     1       3.444   5.539  19.653  0.00  0.00    +0.000 A 
ATOM      7  C   UNL     1       3.315   5.446  18.259  0.00  0.00    +0.000 A 
ATOM      8  C   UNL     1       2.386   4.559  17.714  0.00  0.00    +0.000 A 
ATOM      9  C   UNL     1       1.592   3.766  18.559  0.00  0.00    +0.000 A 
ENDBRANCH   2   7
ENDBRANCH   1   2
BRANCH   1  10
ATOM     10  C   UNL     1       7.351   6.585  16.774  0.00  0.00    +0.000 C 
BRANCH  10  11
ATOM     11  C   UNL     1       7.741   7.411  17.997  0.00  0.00    +0.000 C 
BRANCH  11  12
ATOM     12  C   UNL     1       8.058   8.871  17.672  0.00  0.00    +0.000 C 
BRANCH  12  13
ATOM     13  C   UNL     1       8.838   9.582  18.788  0.00  0.00    +0.000 C 
BRANCH  13  14
ATOM     14  C   UNL     1       9.666  10.794  18.361  0.00  0.00    +0.000 C 
BRANCH  14  15
ATOM     15  S   UNL     1      10.106  11.818  19.830  0.00  0.00    +0.000 S 
ATOM     16  O   UNL     1       9.472  11.034  20.954  0.00  0.00    +0.000 OA
ATOM     17  O   UNL     1      11.613  11.767  19.776  0.00  0.00    +0.000 OA
ENDBRANCH  14  15
ENDBRANCH  13  14
ENDBRANCH  12  13
ENDBRANCH  11  12
ENDBRANCH  10  11
ENDBRANCH   1  10
TORSDOF 8
ENDMDL
MODEL 5
REMARK VINA RESULT:      -5.4      2.863      5.660
REMARK  Name = 
REMARK  9 active torsions:
REMARK  status: ('A' for Active; 'I' for Inactive)
REMARK    1  A    between atoms: C_1  and  C_2
REMARK    2  A    between atoms: C_5  and  S_6
REMARK    3  A    between atoms: S_6  and  S_7
REMARK    4  A    between atoms: S_7  and  C_8
REMARK    5  A    between atoms: C_8  and  C_9
REMARK    6  A    between atoms: C_9  and  C_10
REMARK    7  A    between atoms: C_10  and  C_11
REMARK    8  A    between atoms: C_11  and  C_12
REMARK    9  A    between atoms: C_12  and  S_13
REMARK                            x       y       z     vdW  Elec       q    Type
REMARK                         _______ _______ _______ _____ _____    ______ ____
ROOT
ATOM      1  S   UNL     1       1.450   3.657  19.193  0.00  0.00    +0.000 S 
ENDROOT
BRANCH   1   2
ATOM      2  S   UNL     1       2.466   4.871  20.515  0.00  0.00    +0.000 S 
BRANCH   2   7
ATOM      3  C   UNL     1       1.451  10.440  18.268  0.00  0.00    +0.000 C 
ATOM      4  C   UNL     1       1.715   9.074  18.824  0.00  0.00    +0.000 A 
ATOM      5  C   UNL     1       2.318   8.093  18.035  0.00  0.00    +0.000 A 
ATOM      6  C   UNL     1       2.542   6.815  18.540  0.00  0.00    +0.000 A 
ATOM      7  C   UNL     1       2.166   6.497  19.854  0.00  0.00    +0.000 A 
ATOM      8  C   UNL     1       1.556   7.469  20.647  0.00  0.00    +0.000 A 
ATOM      9  C   UNL     1       1.325   8.755  20.131  0.00  0.00    +0.000 A 
ENDBRANCH   2   7
ENDBRANCH   1   2
BRANCH   1  10
ATOM     10  C   UNL     1       2.699   2.386  18.754  0.00  0.00    +0.000 C 
BRANCH  10  11
ATOM     11  C   UNL     1       3.455   2.596  17.445  0.00  0.00    +0.000 C 
BRANCH  11  12
ATOM     12  C   UNL     1       4.379   3.814  17.462  0.00  0.00    +0.000 C 
BRANCH  12  13
ATOM     13  C   UNL     1       4.992   4.126  16.089  0.00  0.00    +0.000 C 
BRANCH  13  14
ATOM     14  C   UNL     1       6.420   4.671  16.099  0.00  0.00    +0.000 C 
BRANCH  14  15
ATOM     15  S   UNL     1       7.038   4.814  17.830  0.00  0.00    +0.000 S 
ATOM     16  O   UNL     1       8.372   4.112  17.741  0.00  0.00    +0.000 OA
ATOM     17  O   UNL     1       7.106   6.313  17.989  0.00  0.00    +0.000 OA
ENDBRANCH  14  15
ENDBRANCH  13  14
ENDBRANCH  12  13
ENDBRANCH  11  12
ENDBRANCH  10  11
ENDBRANCH   1  10
TORSDOF 8
ENDMDL
MODEL 6
REMARK VINA RESULT:      -5.4      1.403      2.238
REMARK  Name = 
REMARK  9 active torsions:
REMARK  status: ('A' for Active; 'I' for Inactive)
REMARK    1  A    between atoms: C_1  and  C_2
REMARK    2  A    between atoms: C_5  and  S_6
REMARK    3  A    between atoms: S_6  and  S_7
REMARK    4  A    between atoms: S_7  and  C_8
REMARK    5  A    between atoms: C_8  and  C_9
REMARK    6  A    between atoms: C_9  and  C_10
REMARK    7  A    between atoms: C_10  and  C_11
REMARK    8  A    between atoms: C_11  and  C_12
REMARK    9  A    between atoms: C_12  and  S_13
REMARK                            x       y       z     vdW  Elec       q    Type
REMARK                         _______ _______ _______ _____ _____    ______ ____
ROOT
ATOM      1  S   UNL     1       3.850   6.960  17.652  0.00  0.00    +0.000 S 
ENDROOT
BRANCH   1   2
ATOM      2  S   UNL     1       5.190   5.436  18.022  0.00  0.00    +0.000 S 
BRANCH   2   7
ATOM      3  C   UNL     1       6.890   3.810  12.404  0.00  0.00    +0.000 C 
ATOM      4  C   UNL     1       6.468   4.224  13.781  0.00  0.00    +0.000 A 
ATOM      5  C   UNL     1       7.331   4.959  14.595  0.00  0.00    +0.000 A 
ATOM      6  C   UNL     1       6.951   5.323  15.884  0.00  0.00    +0.000 A 
ATOM      7  C   UNL     1       5.692   4.958  16.381  0.00  0.00    +0.000 A 
ATOM      8  C   UNL     1       4.825   4.217  15.577  0.00  0.00    +0.000 A 
ATOM      9  C   UNL     1       5.215   3.846  14.280  0.00  0.00    +0.000 A 
ENDBRANCH   2   7
ENDBRANCH   1   2
BRANCH   1  10
ATOM     10  C   UNL     1       2.633   6.782  19.014  0.00  0.00    +0.000 C 
BRANCH  10  11
ATOM     11  C   UNL     1       2.883   5.651  20.009  0.00  0.00    +0.000 C 
BRANCH  11  12
ATOM     12  C   UNL     1       1.603   5.083  20.622  0.00  0.00    +0.000 C 
BRANCH  12  13
ATOM     13  C   UNL     1       1.599   3.549  20.697  0.00  0.00    +0.000 C 
BRANCH  13  14
ATOM     14  C   UNL     1       0.844   2.824  19.583  0.00  0.00    +0.000 C 
BRANCH  14  15
ATOM     15  S   UNL     1       1.985   2.421  18.193  0.00  0.00    +0.000 S 
ATOM     16  O   UNL     1       1.822   3.627  17.300  0.00  0.00    +0.000 OA
ATOM     17  O   UNL     1       3.304   2.327  18.920  0.00  0.00    +0.000 OA
ENDBRANCH  14  15
ENDBRANCH  13  14
ENDBRANCH  12  13
ENDBRANCH  11  12
ENDBRANCH  10  11
ENDBRANCH   1  10
TORSDOF 8
ENDMDL
MODEL 7
REMARK VINA RESULT:      -5.4      3.085      5.551
REMARK  Name = 
REMARK  9 active torsions:
REMARK  status: ('A' for Active; 'I' for Inactive)
REMARK    1  A    between atoms: C_1  and  C_2
REMARK    2  A    between atoms: C_5  and  S_6
REMARK    3  A    between atoms: S_6  and  S_7
REMARK    4  A    between atoms: S_7  and  C_8
REMARK    5  A    between atoms: C_8  and  C_9
REMARK    6  A    between atoms: C_9  and  C_10
REMARK    7  A    between atoms: C_10  and  C_11
REMARK    8  A    between atoms: C_11  and  C_12
REMARK    9  A    between atoms: C_12  and  S_13
REMARK                            x       y       z     vdW  Elec       q    Type
REMARK                         _______ _______ _______ _____ _____    ______ ____
ROOT
ATOM      1  S   UNL     1       3.032   2.540  21.187  0.00  0.00    +0.000 S 
ENDROOT
BRANCH   1   2
ATOM      2  S   UNL     1       1.269   3.041  20.241  0.00  0.00    +0.000 S 
BRANCH   2   7
ATOM      3  C   UNL     1       2.583   8.437  17.741  0.00  0.00    +0.000 C 
ATOM      4  C   UNL     1       2.246   7.115  18.360  0.00  0.00    +0.000 A 
ATOM      5  C   UNL     1       2.392   6.919  19.734  0.00  0.00    +0.000 A 
ATOM      6  C   UNL     1       2.104   5.684  20.309  0.00  0.00    +0.000 A 
ATOM      7  C   UNL     1       1.659   4.619  19.512  0.00  0.00    +0.000 A 
ATOM      8  C   UNL     1       1.516   4.804  18.136  0.00  0.00    +0.000 A 
ATOM      9  C   UNL     1       1.815   6.049  17.560  0.00  0.00    +0.000 A 
ENDBRANCH   2   7
ENDBRANCH   1   2
BRANCH   1  10
ATOM     10  C   UNL     1       4.195   2.285  19.791  0.00  0.00    +0.000 C 
BRANCH  10  11
ATOM     11  C   UNL     1       4.950   3.518  19.298  0.00  0.00    +0.000 C 
BRANCH  11  12
ATOM     12  C   UNL     1       4.804   3.764  17.797  0.00  0.00    +0.000 C 
BRANCH  12  13
ATOM     13  C   UNL     1       5.327   5.139  17.357  0.00  0.00    +0.000 C 
BRANCH  13  14
ATOM     14  C   UNL     1       6.768   5.179  16.850  0.00  0.00    +0.000 C 
BRANCH  14  15
ATOM     15  S   UNL     1       6.845   4.616  15.096  0.00  0.00    +0.000 S 
ATOM     16  O   UNL     1       5.445   4.912  14.616  0.00  0.00    +0.000 OA
ATOM     17  O   UNL     1       7.921   5.521  14.549  0.00  0.00    +0.000 OA
ENDBRANCH  14  15
ENDBRANCH  13  14
ENDBRANCH  12  13
ENDBRANCH  11  12
ENDBRANCH  10  11
ENDBRANCH   1  10
TORSDOF 8
ENDMDL
MODEL 8
REMARK VINA RESULT:      -5.3      5.909      8.250
REMARK  Name = 
REMARK  9 active torsions:
REMARK  status: ('A' for Active; 'I' for Inactive)
REMARK    1  A    between atoms: C_1  and  C_2
REMARK    2  A    between atoms: C_5  and  S_6
REMARK    3  A    between atoms: S_6  and  S_7
REMARK    4  A    between atoms: S_7  and  C_8
REMARK    5  A    between atoms: C_8  and  C_9
REMARK    6  A    between atoms: C_9  and  C_10
REMARK    7  A    between atoms: C_10  and  C_11
REMARK    8  A    between atoms: C_11  and  C_12
REMARK    9  A    between atoms: C_12  and  S_13
REMARK                            x       y       z     vdW  Elec       q    Type
REMARK                         _______ _______ _______ _____ _____    ______ ____
ROOT
ATOM      1  S   UNL     1       6.438   6.107  18.149  0.00  0.00    +0.000 S 
ENDROOT
BRANCH   1   2
ATOM      2  S   UNL     1       4.816   6.469  16.928  0.00  0.00    +0.000 S 
BRANCH   2   7
ATOM      3  C   UNL     1       0.828   2.258  18.785  0.00  0.00    +0.000 C 
ATOM      4  C   UNL     1       1.816   3.293  18.341  0.00  0.00    +0.000 A 
ATOM      5  C   UNL     1       1.673   4.623  18.736  0.00  0.00    +0.000 A 
ATOM      6  C   UNL     1       2.576   5.592  18.305  0.00  0.00    +0.000 A 
ATOM      7  C   UNL     1       3.645   5.241  17.469  0.00  0.00    +0.000 A 
ATOM      8  C   UNL     1       3.792   3.914  17.063  0.00  0.00    +0.000 A 
ATOM      9  C   UNL     1       2.875   2.942  17.494  0.00  0.00    +0.000 A 
ENDBRANCH   2   7
ENDBRANCH   1   2
BRANCH   1  10
ATOM     10  C   UNL     1       7.752   7.157  17.415  0.00  0.00    +0.000 C 
BRANCH  10  11
ATOM     11  C   UNL     1       7.652   8.658  17.676  0.00  0.00    +0.000 C 
BRANCH  11  12
ATOM     12  C   UNL     1       8.743   9.190  18.606  0.00  0.00    +0.000 C 
BRANCH  12  13
ATOM     13  C   UNL     1       8.966  10.703  18.471  0.00  0.00    +0.000 C 
BRANCH  13  14
ATOM     14  C   UNL     1      10.403  11.150  18.206  0.00  0.00    +0.000 C 
BRANCH  14  15
ATOM     15  S   UNL     1      10.422  12.827  17.442  0.00  0.00    +0.000 S 
ATOM     16  O   UNL     1       9.862  13.680  18.555  0.00  0.00    +0.000 OA
ATOM     17  O   UNL     1      11.895  13.004  17.170  0.00  0.00    +0.000 OA
ENDBRANCH  14  15
ENDBRANCH  13  14
ENDBRANCH  12  13
ENDBRANCH  11  12
ENDBRANCH  10  11
ENDBRANCH   1  10
TORSDOF 8
ENDMDL
MODEL 9
REMARK VINA RESULT:      -5.3      1.943      2.354
REMARK  Name = 
REMARK  9 active torsions:
REMARK  status: ('A' for Active; 'I' for Inactive)
REMARK    1  A    between atoms: C_1  and  C_2
REMARK    2  A    between atoms: C_5  and  S_6
REMARK    3  A    between atoms: S_6  and  S_7
REMARK    4  A    between atoms: S_7  and  C_8
REMARK    5  A    between atoms: C_8  and  C_9
REMARK    6  A    between atoms: C_9  and  C_10
REMARK    7  A    between atoms: C_10  and  C_11
REMARK    8  A    between atoms: C_11  and  C_12
REMARK    9  A    between atoms: C_12  and  S_13
REMARK                            x       y       z     vdW  Elec       q    Type
REMARK                         _______ _______ _______ _____ _____    ______ ____
ROOT
ATOM      1  S   UNL     1       4.875   5.440  19.299  0.00  0.00    +0.000 S 
ENDROOT
BRANCH   1   2
ATOM      2  S   UNL     1       6.446   6.169  18.179  0.00  0.00    +0.000 S 
BRANCH   2   7
ATOM      3  C   UNL     1       5.521   3.584  12.742  0.00  0.00    +0.000 C 
ATOM      4  C   UNL     1       5.763   4.224  14.075  0.00  0.00    +0.000 A 
ATOM      5  C   UNL     1       6.473   3.548  15.067  0.00  0.00    +0.000 A 
ATOM      6  C   UNL     1       6.678   4.129  16.316  0.00  0.00    +0.000 A 
ATOM      7  C   UNL     1       6.173   5.408  16.592  0.00  0.00    +0.000 A 
ATOM      8  C   UNL     1       5.455   6.090  15.608  0.00  0.00    +0.000 A 
ATOM      9  C   UNL     1       5.245   5.496  14.353  0.00  0.00    +0.000 A 
ENDBRANCH   2   7
ENDBRANCH   1   2
BRANCH   1  10
ATOM     10  C   UNL     1       3.406   6.182  18.486  0.00  0.00    +0.000 C 
BRANCH  10  11
ATOM     11  C   UNL     1       2.384   5.209  17.904  0.00  0.00    +0.000 C 
BRANCH  11  12
ATOM     12  C   UNL     1       2.993   3.884  17.447  0.00  0.00    +0.000 C 
BRANCH  12  13
ATOM     13  C   UNL     1       2.423   2.669  18.193  0.00  0.00    +0.000 C 
BRANCH  13  14
ATOM     14  C   UNL     1       1.316   2.961  19.205  0.00  0.00    +0.000 C 
BRANCH  14  15
ATOM     15  S   UNL     1       1.994   2.935  20.920  0.00  0.00    +0.000 S 
ATOM     16  O   UNL     1       3.390   2.407  20.691  0.00  0.00    +0.000 OA
ATOM     17  O   UNL     1       1.906   4.395  21.287  0.00  0.00    +0.000 OA
ENDBRANCH  14  15
ENDBRANCH  13  14
ENDBRANCH  12  13
ENDBRANCH  11  12
ENDBRANCH  10  11
ENDBRANCH   1  10
TORSDOF 8
ENDMDL
