MODEL 1
REMARK VINA RESULT:      -8.3      0.000      0.000
REMARK  Name = 
REMARK  4 active torsions:
REMARK  status: ('A' for Active; 'I' for Inactive)
REMARK    1  A    between atoms: C_1  and  C_2
REMARK    2  A    between atoms: N_4  and  C_5
REMARK    3  A    between atoms: C_8  and  C_9
REMARK    4  A    between atoms: C_14  and  C_15
REMARK                            x       y       z     vdW  Elec       q    Type
REMARK                         _______ _______ _______ _____ _____    ______ ____
ROOT
ATOM      1  C   UNL     1       3.197   5.065  17.781  0.00  0.00    +0.000 C 
ATOM      2  O   UNL     1       2.393   4.224  17.376  0.00  0.00    +0.000 OA
ATOM      3  N   UNL     1       4.540   4.989  17.458  0.00  0.00    +0.000 N 
ATOM      4  C   UNL     1       5.700   5.678  17.997  0.00  0.00    +0.000 C 
ATOM      5  C   UNL     1       6.567   5.825  16.760  0.00  0.00    +0.000 C 
ATOM      6  C   UNL     1       6.413   4.444  16.090  0.00  0.00    +0.000 C 
ATOM      7  C   UNL     1       4.986   4.003  16.479  0.00  0.00    +0.000 C 
ENDROOT
BRANCH   1  11
ATOM      8  C   UNL     1       1.575   8.206  20.267  0.00  0.00    +0.000 A 
ATOM      9  C   UNL     1       1.782   6.913  20.757  0.00  0.00    +0.000 A 
ATOM     10  C   UNL     1       2.336   5.918  19.941  0.00  0.00    +0.000 A 
ATOM     11  C   UNL     1       2.661   6.184  18.606  0.00  0.00    +0.000 A 
ATOM     12  C   UNL     1       2.365   7.442  18.084  0.00  0.00    +0.000 A 
ATOM     13  C   UNL     1       1.881   8.454  18.917  0.00  0.00    +0.000 A 
ATOM     14 CL   UNL     1       1.689  10.037  18.238  0.00  0.00    +0.000 Cl
BRANCH   8  18
ATOM     15  C   UNL     1      -0.512  10.551  22.354  0.00  0.00    +0.000 C 
ATOM     16  C   UNL     1      -0.147   9.208  21.778  0.00  0.00    +0.000 C 
ATOM     17  O   UNL     1      -0.852   8.227  21.979  0.00  0.00    +0.000 OA
ATOM     18  N   UNL     1       1.024   9.246  21.051  0.00  0.00    +0.000 N 
ATOM     19  H   UNL     1       1.587  10.090  21.105  0.00  0.00    +0.000 HD
ENDBRANCH   8  18
ENDBRANCH   1  11
BRANCH   6  20
ATOM     20  C   UNL     1       6.693   4.459  14.611  0.00  0.00    +0.000 A 
ATOM     21  C   UNL     1       6.036   3.564  13.760  0.00  0.00    +0.000 A 
ATOM     22  C   UNL     1       6.305   3.579  12.393  0.00  0.00    +0.000 A 
ATOM     23  C   UNL     1       7.228   4.492  11.917  0.00  0.00    +0.000 A 
ATOM     24  N   UNL     1       7.883   5.372  12.703  0.00  0.00    +0.000 NA
ATOM     25  C   UNL     1       7.599   5.336  14.026  0.00  0.00    +0.000 A 
ENDBRANCH   6  20
TORSDOF 3
ENDMDL
MODEL 2
REMARK VINA RESULT:      -7.9      0.909      1.204
REMARK  Name = 
REMARK  4 active torsions:
REMARK  status: ('A' for Active; 'I' for Inactive)
REMARK    1  A    between atoms: C_1  and  C_2
REMARK    2  A    between atoms: N_4  and  C_5
REMARK    3  A    between atoms: C_8  and  C_9
REMARK    4  A    between atoms: C_14  and  C_15
REMARK                            x       y       z     vdW  Elec       q    Type
REMARK                         _______ _______ _______ _____ _____    ______ ____
ROOT
ATOM      1  C   UNL     1       3.377   5.091  17.935  0.00  0.00    +0.000 C 
ATOM      2  O   UNL     1       2.704   4.082  17.722  0.00  0.00    +0.000 OA
ATOM      3  N   UNL     1       4.694   5.177  17.519  0.00  0.00    +0.000 N 
ATOM      4  C   UNL     1       5.751   6.115  17.859  0.00  0.00    +0.000 C 
ATOM      5  C   UNL     1       6.511   6.201  16.548  0.00  0.00    +0.000 C 
ATOM      6  C   UNL     1       6.553   4.726  16.099  0.00  0.00    +0.000 C 
ATOM      7  C   UNL     1       5.243   4.133  16.661  0.00  0.00    +0.000 C 
ENDROOT
BRANCH   1  11
ATOM      8  C   UNL     1       1.360   8.283  20.038  0.00  0.00    +0.000 A 
ATOM      9  C   UNL     1       1.526   7.016  20.607  0.00  0.00    +0.000 A 
ATOM     10  C   UNL     1       2.208   6.006  19.918  0.00  0.00    +0.000 A 
ATOM     11  C   UNL     1       2.708   6.227  18.630  0.00  0.00    +0.000 A 
ATOM     12  C   UNL     1       2.461   7.455  18.019  0.00  0.00    +0.000 A 
ATOM     13  C   UNL     1       1.845   8.486  18.733  0.00  0.00    +0.000 A 
ATOM     14 CL   UNL     1       1.715  10.035  17.967  0.00  0.00    +0.000 Cl
BRANCH   8  18
ATOM     15  C   UNL     1      -0.146  10.796  22.410  0.00  0.00    +0.000 C 
ATOM     16  C   UNL     1       0.863   9.757  21.995  0.00  0.00    +0.000 C 
ATOM     17  O   UNL     1       1.727   9.375  22.775  0.00  0.00    +0.000 OA
ATOM     18  N   UNL     1       0.685   9.338  20.693  0.00  0.00    +0.000 N 
ATOM     19  H   UNL     1       0.032   9.858  20.114  0.00  0.00    +0.000 HD
ENDBRANCH   8  18
ENDBRANCH   1  11
BRANCH   6  20
ATOM     20  C   UNL     1       6.743   4.553  14.615  0.00  0.00    +0.000 A 
ATOM     21  C   UNL     1       7.655   5.356  13.923  0.00  0.00    +0.000 A 
ATOM     22  C   UNL     1       7.821   5.195  12.549  0.00  0.00    +0.000 A 
ATOM     23  C   UNL     1       7.064   4.231  11.907  0.00  0.00    +0.000 A 
ATOM     24  N   UNL     1       6.174   3.437  12.538  0.00  0.00    +0.000 NA
ATOM     25  C   UNL     1       6.037   3.614  13.872  0.00  0.00    +0.000 A 
ENDBRANCH   6  20
TORSDOF 3
ENDMDL
MODEL 3
REMARK VINA RESULT:      -7.8      1.568      1.887
REMARK  Name = 
REMARK  4 active torsions:
REMARK  status: ('A' for Active; 'I' for Inactive)
REMARK    1  A    between atoms: C_1  and  C_2
REMARK    2  A    between atoms: N_4  and  C_5
REMARK    3  A    between atoms: C_8  and  C_9
REMARK    4  A    between atoms: C_14  and  C_15
REMARK                            x       y       z     vdW  Elec       q    Type
REMARK                         _______ _______ _______ _____ _____    ______ ____
ROOT
ATOM      1  C   UNL     1       3.076   5.712  17.832  0.00  0.00    +0.000 C 
ATOM      2  O   UNL     1       2.345   4.729  17.700  0.00  0.00    +0.000 OA
ATOM      3  N   UNL     1       4.404   5.676  17.447  0.00  0.00    +0.000 N 
ATOM      4  C   UNL     1       5.510   6.578  17.723  0.00  0.00    +0.000 C 
ATOM      5  C   UNL     1       6.304   6.486  16.432  0.00  0.00    +0.000 C 
ATOM      6  C   UNL     1       6.263   4.974  16.133  0.00  0.00    +0.000 C 
ATOM      7  C   UNL     1       4.906   4.519  16.713  0.00  0.00    +0.000 C 
ENDROOT
BRANCH   1  11
ATOM      8  C   UNL     1       1.362   9.384  19.336  0.00  0.00    +0.000 A 
ATOM      9  C   UNL     1       1.714   9.233  17.991  0.00  0.00    +0.000 A 
ATOM     10  C   UNL     1       2.242   8.024  17.521  0.00  0.00    +0.000 A 
ATOM     11  C   UNL     1       2.464   6.950  18.391  0.00  0.00    +0.000 A 
ATOM     12  C   UNL     1       2.207   7.127  19.749  0.00  0.00    +0.000 A 
ATOM     13  C   UNL     1       1.613   8.307  20.206  0.00  0.00    +0.000 A 
ATOM     14 CL   UNL     1       1.174   8.395  21.880  0.00  0.00    +0.000 Cl
BRANCH   8  18
ATOM     15  C   UNL     1      -0.623  12.462  20.224  0.00  0.00    +0.000 C 
ATOM     16  C   UNL     1      -0.446  11.081  19.651  0.00  0.00    +0.000 C 
ATOM     17  O   UNL     1      -1.371  10.515  19.081  0.00  0.00    +0.000 OA
ATOM     18  N   UNL     1       0.822  10.580  19.859  0.00  0.00    +0.000 N 
ATOM     19  H   UNL     1       1.434  11.092  20.489  0.00  0.00    +0.000 HD
ENDBRANCH   8  18
ENDBRANCH   1  11
BRANCH   6  20
ATOM     20  C   UNL     1       6.475   4.641  14.680  0.00  0.00    +0.000 A 
ATOM     21  C   UNL     1       5.619   3.748  14.028  0.00  0.00    +0.000 A 
ATOM     22  C   UNL     1       5.826   3.441  12.685  0.00  0.00    +0.000 A 
ATOM     23  C   UNL     1       6.890   4.037  12.033  0.00  0.00    +0.000 A 
ATOM     24  N   UNL     1       7.739   4.902  12.625  0.00  0.00    +0.000 NA
ATOM     25  C   UNL     1       7.511   5.185  13.929  0.00  0.00    +0.000 A 
ENDBRANCH   6  20
TORSDOF 3
ENDMDL
MODEL 4
REMARK VINA RESULT:      -7.7      0.988      1.262
REMARK  Name = 
REMARK  4 active torsions:
REMARK  status: ('A' for Active; 'I' for Inactive)
REMARK    1  A    between atoms: C_1  and  C_2
REMARK    2  A    between atoms: N_4  and  C_5
REMARK    3  A    between atoms: C_8  and  C_9
REMARK    4  A    between atoms: C_14  and  C_15
REMARK                            x       y       z     vdW  Elec       q    Type
REMARK                         _______ _______ _______ _____ _____    ______ ____
ROOT
ATOM      1  C   UNL     1       3.217   5.249  17.814  0.00  0.00    +0.000 C 
ATOM      2  O   UNL     1       2.427   4.350  17.518  0.00  0.00    +0.000 OA
ATOM      3  N   UNL     1       4.550   5.180  17.454  0.00  0.00    +0.000 N 
ATOM      4  C   UNL     1       5.704   5.951  17.886  0.00  0.00    +0.000 C 
ATOM      5  C   UNL     1       6.528   6.003  16.612  0.00  0.00    +0.000 C 
ATOM      6  C   UNL     1       6.397   4.561  16.083  0.00  0.00    +0.000 C 
ATOM      7  C   UNL     1       4.997   4.118  16.559  0.00  0.00    +0.000 C 
ENDROOT
BRANCH   1  11
ATOM      8  C   UNL     1       1.551   8.566  20.028  0.00  0.00    +0.000 A 
ATOM      9  C   UNL     1       1.641   7.284  20.579  0.00  0.00    +0.000 A 
ATOM     10  C   UNL     1       2.210   6.230  19.853  0.00  0.00    +0.000 A 
ATOM     11  C   UNL     1       2.670   6.425  18.546  0.00  0.00    +0.000 A 
ATOM     12  C   UNL     1       2.494   7.676  17.955  0.00  0.00    +0.000 A 
ATOM     13  C   UNL     1       1.993   8.744  18.704  0.00  0.00    +0.000 A 
ATOM     14 CL   UNL     1       1.952  10.307  17.956  0.00  0.00    +0.000 Cl
BRANCH   8  18
ATOM     15  C   UNL     1      -0.407  11.533  21.281  0.00  0.00    +0.000 C 
ATOM     16  C   UNL     1      -0.206  10.294  20.449  0.00  0.00    +0.000 C 
ATOM     17  O   UNL     1      -1.055   9.935  19.642  0.00  0.00    +0.000 OA
ATOM     18  N   UNL     1       0.990   9.663  20.720  0.00  0.00    +0.000 N 
ATOM     19  H   UNL     1       1.520   9.981  21.527  0.00  0.00    +0.000 HD
ENDBRANCH   8  18
ENDBRANCH   1  11
BRANCH   6  20
ATOM     20  C   UNL     1       6.630   4.441  14.600  0.00  0.00    +0.000 A 
ATOM     21  C   UNL     1       7.579   5.250  13.966  0.00  0.00    +0.000 A 
ATOM     22  C   UNL     1       7.784   5.138  12.594  0.00  0.00    +0.000 A 
ATOM     23  C   UNL     1       7.029   4.215  11.892  0.00  0.00    +0.000 A 
ATOM     24  N   UNL     1       6.105   3.416  12.464  0.00  0.00    +0.000 NA
ATOM     25  C   UNL     1       5.930   3.545  13.800  0.00  0.00    +0.000 A 
ENDBRANCH   6  20
TORSDOF 3
ENDMDL
MODEL 5
REMARK VINA RESULT:      -7.4      3.891     10.118
REMARK  Name = 
REMARK  4 active torsions:
REMARK  status: ('A' for Active; 'I' for Inactive)
REMARK    1  A    between atoms: C_1  and  C_2
REMARK    2  A    between atoms: N_4  and  C_5
REMARK    3  A    between atoms: C_8  and  C_9
REMARK    4  A    between atoms: C_14  and  C_15
REMARK                            x       y       z     vdW  Elec       q    Type
REMARK                         _______ _______ _______ _____ _____    ______ ____
ROOT
ATOM      1  C   UNL     1       1.192  10.165  19.841  0.00  0.00    +0.000 C 
ATOM      2  O   UNL     1       1.267  11.032  18.968  0.00  0.00    +0.000 OA
ATOM      3  N   UNL     1       0.651  10.442  21.083  0.00  0.00    +0.000 N 
ATOM      4  C   UNL     1       0.680   9.699  22.332  0.00  0.00    +0.000 C 
ATOM      5  C   UNL     1      -0.681  10.035  22.915  0.00  0.00    +0.000 C 
ATOM      6  C   UNL     1      -0.797  11.544  22.621  0.00  0.00    +0.000 C 
ATOM      7  C   UNL     1      -0.004  11.726  21.309  0.00  0.00    +0.000 C 
ENDROOT
BRANCH   1  11
ATOM      8  C   UNL     1       2.578   6.239  18.682  0.00  0.00    +0.000 A 
ATOM      9  C   UNL     1       2.605   7.320  17.797  0.00  0.00    +0.000 A 
ATOM     10  C   UNL     1       2.177   8.590  18.203  0.00  0.00    +0.000 A 
ATOM     11  C   UNL     1       1.678   8.800  19.493  0.00  0.00    +0.000 A 
ATOM     12  C   UNL     1       1.556   7.707  20.349  0.00  0.00    +0.000 A 
ATOM     13  C   UNL     1       2.050   6.456  19.969  0.00  0.00    +0.000 A 
ATOM     14 CL   UNL     1       2.012   5.181  21.142  0.00  0.00    +0.000 Cl
BRANCH   8  18
ATOM     15  C   UNL     1       2.975   2.636  17.648  0.00  0.00    +0.000 C 
ATOM     16  C   UNL     1       2.245   3.951  17.731  0.00  0.00    +0.000 C 
ATOM     17  O   UNL     1       1.107   4.066  17.292  0.00  0.00    +0.000 OA
ATOM     18  N   UNL     1       3.003   4.939  18.324  0.00  0.00    +0.000 N 
ATOM     19  H   UNL     1       3.986   4.745  18.490  0.00  0.00    +0.000 HD
ENDBRANCH   8  18
ENDBRANCH   1  11
BRANCH   6  20
ATOM     20  C   UNL     1      -2.218  12.041  22.578  0.00  0.00    +0.000 A 
ATOM     21  C   UNL     1      -2.742  12.579  21.398  0.00  0.00    +0.000 A 
ATOM     22  C   UNL     1      -4.055  13.042  21.367  0.00  0.00    +0.000 A 
ATOM     23  C   UNL     1      -4.807  12.956  22.525  0.00  0.00    +0.000 A 
ATOM     24  N   UNL     1      -4.340  12.445  23.683  0.00  0.00    +0.000 NA
ATOM     25  C   UNL     1      -3.062  11.999  23.682  0.00  0.00    +0.000 A 
ENDBRANCH   6  20
TORSDOF 3
ENDMDL
MODEL 6
REMARK VINA RESULT:      -7.2      3.855      8.655
REMARK  Name = 
REMARK  4 active torsions:
REMARK  status: ('A' for Active; 'I' for Inactive)
REMARK    1  A    between atoms: C_1  and  C_2
REMARK    2  A    between atoms: N_4  and  C_5
REMARK    3  A    between atoms: C_8  and  C_9
REMARK    4  A    between atoms: C_14  and  C_15
REMARK                            x       y       z     vdW  Elec       q    Type
REMARK                         _______ _______ _______ _____ _____    ______ ____
ROOT
ATOM      1  C   UNL     1       2.249   8.460  18.188  0.00  0.00    +0.000 C 
ATOM      2  O   UNL     1       2.502   8.849  17.046  0.00  0.00    +0.000 OA
ATOM      3  N   UNL     1       1.426   9.189  19.028  0.00  0.00    +0.000 N 
ATOM      4  C   UNL     1       1.183   9.091  20.457  0.00  0.00    +0.000 C 
ATOM      5  C   UNL     1      -0.284   9.471  20.541  0.00  0.00    +0.000 C 
ATOM      6  C   UNL     1      -0.367  10.662  19.566  0.00  0.00    +0.000 C 
ATOM      7  C   UNL     1       0.705  10.342  18.502  0.00  0.00    +0.000 C 
ENDROOT
BRANCH   1  11
ATOM      8  C   UNL     1       4.012   4.669  19.280  0.00  0.00    +0.000 A 
ATOM      9  C   UNL     1       4.504   5.430  18.216  0.00  0.00    +0.000 A 
ATOM     10  C   UNL     1       3.935   6.669  17.898  0.00  0.00    +0.000 A 
ATOM     11  C   UNL     1       2.836   7.160  18.614  0.00  0.00    +0.000 A 
ATOM     12  C   UNL     1       2.280   6.362  19.612  0.00  0.00    +0.000 A 
ATOM     13  C   UNL     1       2.892   5.160  19.977  0.00  0.00    +0.000 A 
ATOM     14 CL   UNL     1       2.240   4.299  21.332  0.00  0.00    +0.000 Cl
BRANCH   8  18
ATOM     15  C   UNL     1       4.793   1.057  20.025  0.00  0.00    +0.000 C 
ATOM     16  C   UNL     1       4.056   2.170  19.327  0.00  0.00    +0.000 C 
ATOM     17  O   UNL     1       3.129   1.927  18.564  0.00  0.00    +0.000 OA
ATOM     18  N   UNL     1       4.554   3.416  19.645  0.00  0.00    +0.000 N 
ATOM     19  H   UNL     1       5.427   3.457  20.163  0.00  0.00    +0.000 HD
ENDBRANCH   8  18
ENDBRANCH   1  11
BRANCH   6  20
ATOM     20  C   UNL     1      -1.751  10.899  19.021  0.00  0.00    +0.000 A 
ATOM     21  C   UNL     1      -2.252  10.096  17.992  0.00  0.00    +0.000 A 
ATOM     22  C   UNL     1      -3.530  10.325  17.490  0.00  0.00    +0.000 A 
ATOM     23  C   UNL     1      -4.272  11.359  18.033  0.00  0.00    +0.000 A 
ATOM     24  N   UNL     1      -3.826  12.157  19.025  0.00  0.00    +0.000 NA
ATOM     25  C   UNL     1      -2.582  11.908  19.496  0.00  0.00    +0.000 A 
ENDBRANCH   6  20
TORSDOF 3
ENDMDL
MODEL 7
REMARK VINA RESULT:      -7.1      3.194      4.406
REMARK  Name = 
REMARK  4 active torsions:
REMARK  status: ('A' for Active; 'I' for Inactive)
REMARK    1  A    between atoms: C_1  and  C_2
REMARK    2  A    between atoms: N_4  and  C_5
REMARK    3  A    between atoms: C_8  and  C_9
REMARK    4  A    between atoms: C_14  and  C_15
REMARK                            x       y       z     vdW  Elec       q    Type
REMARK                         _______ _______ _______ _____ _____    ______ ____
ROOT
ATOM      1  C   UNL     1       1.948   8.505  18.208  0.00  0.00    +0.000 C 
ATOM      2  O   UNL     1       2.234   9.055  17.143  0.00  0.00    +0.000 OA
ATOM      3  N   UNL     1       2.365   7.216  18.486  0.00  0.00    +0.000 N 
ATOM      4  C   UNL     1       1.961   6.276  19.518  0.00  0.00    +0.000 C 
ATOM      5  C   UNL     1       3.267   5.554  19.797  0.00  0.00    +0.000 C 
ATOM      6  C   UNL     1       3.829   5.340  18.377  0.00  0.00    +0.000 C 
ATOM      7  C   UNL     1       3.306   6.558  17.586  0.00  0.00    +0.000 C 
ENDROOT
BRANCH   1  11
ATOM      8  C   UNL     1      -0.326  10.921  20.978  0.00  0.00    +0.000 A 
ATOM      9  C   UNL     1      -0.297  11.202  19.609  0.00  0.00    +0.000 A 
ATOM     10  C   UNL     1       0.424  10.388  18.726  0.00  0.00    +0.000 A 
ATOM     11  C   UNL     1       1.162   9.296  19.196  0.00  0.00    +0.000 A 
ATOM     12  C   UNL     1       1.217   9.069  20.570  0.00  0.00    +0.000 A 
ATOM     13  C   UNL     1       0.440   9.836  21.443  0.00  0.00    +0.000 A 
ATOM     14 CL   UNL     1       0.432   9.395  23.118  0.00  0.00    +0.000 Cl
BRANCH   8  18
ATOM     15  C   UNL     1      -1.583  13.384  23.539  0.00  0.00    +0.000 C 
ATOM     16  C   UNL     1      -0.652  12.912  22.453  0.00  0.00    +0.000 C 
ATOM     17  O   UNL     1       0.324  13.579  22.130  0.00  0.00    +0.000 OA
ATOM     18  N   UNL     1      -1.042  11.707  21.909  0.00  0.00    +0.000 N 
ATOM     19  H   UNL     1      -1.959  11.349  22.161  0.00  0.00    +0.000 HD
ENDBRANCH   8  18
ENDBRANCH   1  11
BRANCH   6  20
ATOM     20  C   UNL     1       5.323   5.155  18.342  0.00  0.00    +0.000 A 
ATOM     21  C   UNL     1       5.953   4.713  17.174  0.00  0.00    +0.000 A 
ATOM     22  C   UNL     1       7.334   4.538  17.152  0.00  0.00    +0.000 A 
ATOM     23  C   UNL     1       8.048   4.810  18.306  0.00  0.00    +0.000 A 
ATOM     24  N   UNL     1       7.480   5.238  19.452  0.00  0.00    +0.000 NA
ATOM     25  C   UNL     1       6.136   5.402  19.443  0.00  0.00    +0.000 A 
ENDBRANCH   6  20
TORSDOF 3
ENDMDL
MODEL 8
REMARK VINA RESULT:      -7.1      4.232      8.367
REMARK  Name = 
REMARK  4 active torsions:
REMARK  status: ('A' for Active; 'I' for Inactive)
REMARK    1  A    between atoms: C_1  and  C_2
REMARK    2  A    between atoms: N_4  and  C_5
REMARK    3  A    between atoms: C_8  and  C_9
REMARK    4  A    between atoms: C_14  and  C_15
REMARK                            x       y       z     vdW  Elec       q    Type
REMARK                         _______ _______ _______ _____ _____    ______ ____
ROOT
ATOM      1  C   UNL     1       2.635   7.931  17.968  0.00  0.00    +0.000 C 
ATOM      2  O   UNL     1       2.957   8.367  16.861  0.00  0.00    +0.000 OA
ATOM      3  N   UNL     1       1.856   8.677  18.834  0.00  0.00    +0.000 N 
ATOM      4  C   UNL     1       1.562   8.511  20.247  0.00  0.00    +0.000 C 
ATOM      5  C   UNL     1       0.132   9.018  20.320  0.00  0.00    +0.000 C 
ATOM      6  C   UNL     1       0.186  10.271  19.423  0.00  0.00    +0.000 C 
ATOM      7  C   UNL     1       1.257   9.923  18.367  0.00  0.00    +0.000 C 
ENDROOT
BRANCH   1  11
ATOM      8  C   UNL     1       4.105   3.994  18.975  0.00  0.00    +0.000 A 
ATOM      9  C   UNL     1       4.901   5.135  19.113  0.00  0.00    +0.000 A 
ATOM     10  C   UNL     1       4.394   6.403  18.807  0.00  0.00    +0.000 A 
ATOM     11  C   UNL     1       3.091   6.558  18.322  0.00  0.00    +0.000 A 
ATOM     12  C   UNL     1       2.325   5.417  18.089  0.00  0.00    +0.000 A 
ATOM     13  C   UNL     1       2.805   4.158  18.462  0.00  0.00    +0.000 A 
ATOM     14 CL   UNL     1       1.738   2.804  18.292  0.00  0.00    +0.000 Cl
BRANCH   8  18
ATOM     15  C   UNL     1       5.161   0.705  20.483  0.00  0.00    +0.000 C 
ATOM     16  C   UNL     1       4.389   1.997  20.453  0.00  0.00    +0.000 C 
ATOM     17  O   UNL     1       3.690   2.333  21.401  0.00  0.00    +0.000 OA
ATOM     18  N   UNL     1       4.567   2.692  19.275  0.00  0.00    +0.000 N 
ATOM     19  H   UNL     1       5.043   2.217  18.513  0.00  0.00    +0.000 HD
ENDBRANCH   8  18
ENDBRANCH   1  11
BRANCH   6  20
ATOM     20  C   UNL     1      -1.154  10.667  18.861  0.00  0.00    +0.000 A 
ATOM     21  C   UNL     1      -1.635  10.066  17.694  0.00  0.00    +0.000 A 
ATOM     22  C   UNL     1      -2.873  10.443  17.177  0.00  0.00    +0.000 A 
ATOM     23  C   UNL     1      -3.594  11.415  17.847  0.00  0.00    +0.000 A 
ATOM     24  N   UNL     1      -3.166  12.019  18.975  0.00  0.00    +0.000 NA
ATOM     25  C   UNL     1      -1.962  11.630  19.455  0.00  0.00    +0.000 A 
ENDBRANCH   6  20
TORSDOF 3
ENDMDL
MODEL 9
REMARK VINA RESULT:      -7.1      3.761      9.209
REMARK  Name = 
REMARK  4 active torsions:
REMARK  status: ('A' for Active; 'I' for Inactive)
REMARK    1  A    between atoms: C_1  and  C_2
REMARK    2  A    between atoms: N_4  and  C_5
REMARK    3  A    between atoms: C_8  and  C_9
REMARK    4  A    between atoms: C_14  and  C_15
REMARK                            x       y       z     vdW  Elec       q    Type
REMARK                         _______ _______ _______ _____ _____    ______ ____
ROOT
ATOM      1  C   UNL     1       1.880   9.135  18.515  0.00  0.00    +0.000 C 
ATOM      2  O   UNL     1       2.060   9.715  17.444  0.00  0.00    +0.000 OA
ATOM      3  N   UNL     1       1.239   9.758  19.571  0.00  0.00    +0.000 N 
ATOM      4  C   UNL     1       1.133   9.404  20.976  0.00  0.00    +0.000 C 
ATOM      5  C   UNL     1      -0.264   9.900  21.308  0.00  0.00    +0.000 C 
ATOM      6  C   UNL     1      -0.304  11.262  20.587  0.00  0.00    +0.000 C 
ATOM      7  C   UNL     1       0.609  11.057  19.359  0.00  0.00    +0.000 C 
ENDROOT
BRANCH   1  11
ATOM      8  C   UNL     1       3.288   5.051  18.664  0.00  0.00    +0.000 A 
ATOM      9  C   UNL     1       3.763   5.960  17.714  0.00  0.00    +0.000 A 
ATOM     10  C   UNL     1       3.313   7.286  17.703  0.00  0.00    +0.000 A 
ATOM     11  C   UNL     1       2.351   7.725  18.618  0.00  0.00    +0.000 A 
ATOM     12  C   UNL     1       1.800   6.801  19.504  0.00  0.00    +0.000 A 
ATOM     13  C   UNL     1       2.301   5.497  19.563  0.00  0.00    +0.000 A 
ATOM     14 CL   UNL     1       1.683   4.448  20.796  0.00  0.00    +0.000 Cl
BRANCH   8  18
ATOM     15  C   UNL     1       3.747   1.313  18.517  0.00  0.00    +0.000 C 
ATOM     16  C   UNL     1       3.130   2.621  18.098  0.00  0.00    +0.000 C 
ATOM     17  O   UNL     1       2.218   2.652  17.281  0.00  0.00    +0.000 OA
ATOM     18  N   UNL     1       3.713   3.705  18.722  0.00  0.00    +0.000 N 
ATOM     19  H   UNL     1       4.565   3.543  19.250  0.00  0.00    +0.000 HD
ENDBRANCH   8  18
ENDBRANCH   1  11
BRANCH   6  20
ATOM     20  C   UNL     1      -1.699  11.734  20.269  0.00  0.00    +0.000 A 
ATOM     21  C   UNL     1      -2.427  12.468  21.211  0.00  0.00    +0.000 A 
ATOM     22  C   UNL     1      -3.718  12.896  20.912  0.00  0.00    +0.000 A 
ATOM     23  C   UNL     1      -4.246  12.572  19.675  0.00  0.00    +0.000 A 
ATOM     24  N   UNL     1      -3.578  11.866  18.739  0.00  0.00    +0.000 NA
ATOM     25  C   UNL     1      -2.324  11.467  19.056  0.00  0.00    +0.000 A 
ENDBRANCH   6  20
TORSDOF 3
ENDMDL
