MODEL 1
REMARK VINA RESULT:      -7.3      0.000      0.000
REMARK  Name = 
REMARK  5 active torsions:
REMARK  status: ('A' for Active; 'I' for Inactive)
REMARK    1  A    between atoms: C_1  and  C_2
REMARK    2  A    between atoms: C_9  and  O_10
REMARK    3  A    between atoms: O_10  and  C_11
REMARK    4  A    between atoms: C_11  and  C_12
REMARK    5  A    between atoms: C_12  and  N_13
REMARK                            x       y       z     vdW  Elec       q    Type
REMARK                         _______ _______ _______ _____ _____    ______ ____
ROOT
ATOM      1  C   UNL     1      -0.062  12.188  19.149  0.00  0.00    +0.000 C 
ATOM      2  C   UNL     1       0.269  11.037  20.056  0.00  0.00    +0.000 A 
ATOM      3  C   UNL     1      -0.051  11.061  21.356  0.00  0.00    +0.000 A 
ATOM      4  C   UNL     1       0.266   9.971  22.292  0.00  0.00    +0.000 A 
ATOM      5  O   UNL     1      -0.060  10.039  23.470  0.00  0.00    +0.000 OA
ATOM      6  O   UNL     1       0.949   8.885  21.773  0.00  0.00    +0.000 OA
ATOM      7  C   UNL     1       1.299   8.826  20.407  0.00  0.00    +0.000 A 
ATOM      8  C   UNL     1       1.989   7.681  19.999  0.00  0.00    +0.000 A 
ATOM      9  C   UNL     1       2.371   7.551  18.666  0.00  0.00    +0.000 A 
ATOM     10  C   UNL     1       2.060   8.577  17.772  0.00  0.00    +0.000 A 
ATOM     11  C   UNL     1       1.361   9.717  18.193  0.00  0.00    +0.000 A 
ATOM     12  C   UNL     1       0.976   9.862  19.528  0.00  0.00    +0.000 A 
ENDROOT
BRANCH   9  13
ATOM     13  O   UNL     1       3.076   6.506  18.133  0.00  0.00    +0.000 OA
BRANCH  13  14
ATOM     14  C   UNL     1       3.763   5.671  19.072  0.00  0.00    +0.000 C 
BRANCH  14  15
ATOM     15  C   UNL     1       3.917   4.261  18.474  0.00  0.00    +0.000 C 
BRANCH  15  16
ATOM     16  N   UNL     1       5.209   4.082  17.798  0.00  0.00    +0.000 NA
ATOM     17  C   UNL     1       5.154   4.340  16.344  0.00  0.00    +0.000 C 
ATOM     18  C   UNL     1       6.525   4.059  15.701  0.00  0.00    +0.000 C 
ATOM     19  O   UNL     1       7.566   4.838  16.307  0.00  0.00    +0.000 OA
ATOM     20  C   UNL     1       7.605   4.606  17.722  0.00  0.00    +0.000 C 
ATOM     21  C   UNL     1       6.256   4.954  18.369  0.00  0.00    +0.000 C 
ENDBRANCH  15  16
ENDBRANCH  14  15
ENDBRANCH  13  14
ENDBRANCH   9  13
TORSDOF 4
ENDMDL
MODEL 2
REMARK VINA RESULT:      -7.1      2.963      4.819
REMARK  Name = 
REMARK  5 active torsions:
REMARK  status: ('A' for Active; 'I' for Inactive)
REMARK    1  A    between atoms: C_1  and  C_2
REMARK    2  A    between atoms: C_9  and  O_10
REMARK    3  A    between atoms: O_10  and  C_11
REMARK    4  A    between atoms: C_11  and  C_12
REMARK    5  A    between atoms: C_12  and  N_13
REMARK                            x       y       z     vdW  Elec       q    Type
REMARK                         _______ _______ _______ _____ _____    ______ ____
ROOT
ATOM      1  C   UNL     1       1.131   3.009  20.843  0.00  0.00    +0.000 C 
ATOM      2  C   UNL     1       1.679   4.284  20.264  0.00  0.00    +0.000 A 
ATOM      3  C   UNL     1       1.427   5.471  20.830  0.00  0.00    +0.000 A 
ATOM      4  C   UNL     1       1.922   6.749  20.295  0.00  0.00    +0.000 A 
ATOM      5  O   UNL     1       1.670   7.806  20.859  0.00  0.00    +0.000 OA
ATOM      6  O   UNL     1       2.670   6.687  19.133  0.00  0.00    +0.000 OA
ATOM      7  C   UNL     1       2.957   5.454  18.512  0.00  0.00    +0.000 A 
ATOM      8  C   UNL     1       3.721   5.517  17.342  0.00  0.00    +0.000 A 
ATOM      9  C   UNL     1       4.043   4.341  16.671  0.00  0.00    +0.000 A 
ATOM     10  C   UNL     1       3.587   3.124  17.183  0.00  0.00    +0.000 A 
ATOM     11  C   UNL     1       2.829   3.074  18.361  0.00  0.00    +0.000 A 
ATOM     12  C   UNL     1       2.494   4.247  19.042  0.00  0.00    +0.000 A 
ENDROOT
BRANCH   9  13
ATOM     13  O   UNL     1       4.752   4.254  15.503  0.00  0.00    +0.000 OA
BRANCH  13  14
ATOM     14  C   UNL     1       6.066   3.698  15.608  0.00  0.00    +0.000 C 
BRANCH  14  15
ATOM     15  C   UNL     1       7.103   4.790  15.286  0.00  0.00    +0.000 C 
BRANCH  15  16
ATOM     16  N   UNL     1       7.665   5.397  16.499  0.00  0.00    +0.000 NA
ATOM     17  C   UNL     1       7.118   6.737  16.797  0.00  0.00    +0.000 C 
ATOM     18  C   UNL     1       7.811   7.333  18.037  0.00  0.00    +0.000 C 
ATOM     19  O   UNL     1       7.683   6.476  19.180  0.00  0.00    +0.000 OA
ATOM     20  C   UNL     1       8.194   5.168  18.884  0.00  0.00    +0.000 C 
ATOM     21  C   UNL     1       7.451   4.550  17.691  0.00  0.00    +0.000 C 
ENDBRANCH  15  16
ENDBRANCH  14  15
ENDBRANCH  13  14
ENDBRANCH   9  13
TORSDOF 4
ENDMDL
MODEL 3
REMARK VINA RESULT:      -6.9      1.559      2.263
REMARK  Name = 
REMARK  5 active torsions:
REMARK  status: ('A' for Active; 'I' for Inactive)
REMARK    1  A    between atoms: C_1  and  C_2
REMARK    2  A    between atoms: C_9  and  O_10
REMARK    3  A    between atoms: O_10  and  C_11
REMARK    4  A    between atoms: C_11  and  C_12
REMARK    5  A    between atoms: C_12  and  N_13
REMARK                            x       y       z     vdW  Elec       q    Type
REMARK                         _______ _______ _______ _____ _____    ______ ____
ROOT
ATOM      1  C   UNL     1      -0.062   9.790  22.451  0.00  0.00    +0.000 C 
ATOM      2  C   UNL     1       0.236  10.084  21.007  0.00  0.00    +0.000 A 
ATOM      3  C   UNL     1      -0.222  11.194  20.414  0.00  0.00    +0.000 A 
ATOM      4  C   UNL     1       0.023  11.521  19.001  0.00  0.00    +0.000 A 
ATOM      5  O   UNL     1      -0.410  12.556  18.511  0.00  0.00    +0.000 OA
ATOM      6  O   UNL     1       0.754  10.603  18.268  0.00  0.00    +0.000 OA
ATOM      7  C   UNL     1       1.254   9.424  18.862  0.00  0.00    +0.000 A 
ATOM      8  C   UNL     1       1.977   8.572  18.022  0.00  0.00    +0.000 A 
ATOM      9  C   UNL     1       2.500   7.388  18.535  0.00  0.00    +0.000 A 
ATOM     10  C   UNL     1       2.281   7.080  19.880  0.00  0.00    +0.000 A 
ATOM     11  C   UNL     1       1.561   7.948  20.713  0.00  0.00    +0.000 A 
ATOM     12  C   UNL     1       1.026   9.137  20.210  0.00  0.00    +0.000 A 
ENDROOT
BRANCH   9  13
ATOM     13  O   UNL     1       3.196   6.446  17.827  0.00  0.00    +0.000 OA
BRANCH  13  14
ATOM     14  C   UNL     1       3.570   5.269  18.550  0.00  0.00    +0.000 C 
BRANCH  14  15
ATOM     15  C   UNL     1       3.756   4.106  17.558  0.00  0.00    +0.000 C 
BRANCH  15  16
ATOM     16  N   UNL     1       5.121   4.050  17.018  0.00  0.00    +0.000 NA
ATOM     17  C   UNL     1       5.244   4.631  15.665  0.00  0.00    +0.000 C 
ATOM     18  C   UNL     1       6.684   4.465  15.143  0.00  0.00    +0.000 C 
ATOM     19  O   UNL     1       7.642   5.058  16.030  0.00  0.00    +0.000 OA
ATOM     20  C   UNL     1       7.508   4.510  17.350  0.00  0.00    +0.000 C 
ATOM     21  C   UNL     1       6.090   4.741  17.893  0.00  0.00    +0.000 C 
ENDBRANCH  15  16
ENDBRANCH  14  15
ENDBRANCH  13  14
ENDBRANCH   9  13
TORSDOF 4
ENDMDL
MODEL 4
REMARK VINA RESULT:      -6.9      2.077      3.360
REMARK  Name = 
REMARK  5 active torsions:
REMARK  status: ('A' for Active; 'I' for Inactive)
REMARK    1  A    between atoms: C_1  and  C_2
REMARK    2  A    between atoms: C_9  and  O_10
REMARK    3  A    between atoms: O_10  and  C_11
REMARK    4  A    between atoms: C_11  and  C_12
REMARK    5  A    between atoms: C_12  and  N_13
REMARK                            x       y       z     vdW  Elec       q    Type
REMARK                         _______ _______ _______ _____ _____    ______ ____
ROOT
ATOM      1  C   UNL     1      -1.126  11.854  19.819  0.00  0.00    +0.000 C 
ATOM      2  C   UNL     1      -0.391  10.773  20.561  0.00  0.00    +0.000 A 
ATOM      3  C   UNL     1      -0.488  10.651  21.891  0.00  0.00    +0.000 A 
ATOM      4  C   UNL     1       0.224   9.625  22.668  0.00  0.00    +0.000 A 
ATOM      5  O   UNL     1       0.091   9.551  23.883  0.00  0.00    +0.000 OA
ATOM      6  O   UNL     1       1.043   8.765  21.958  0.00  0.00    +0.000 OA
ATOM      7  C   UNL     1       1.167   8.864  20.556  0.00  0.00    +0.000 A 
ATOM      8  C   UNL     1       2.026   7.942  19.948  0.00  0.00    +0.000 A 
ATOM      9  C   UNL     1       2.201   7.978  18.568  0.00  0.00    +0.000 A 
ATOM     10  C   UNL     1       1.517   8.942  17.824  0.00  0.00    +0.000 A 
ATOM     11  C   UNL     1       0.652   9.855  18.445  0.00  0.00    +0.000 A 
ATOM     12  C   UNL     1       0.471   9.834  19.831  0.00  0.00    +0.000 A 
ENDROOT
BRANCH   9  13
ATOM     13  O   UNL     1       3.031   7.164  17.844  0.00  0.00    +0.000 OA
BRANCH  13  14
ATOM     14  C   UNL     1       2.699   5.772  17.846  0.00  0.00    +0.000 C 
BRANCH  14  15
ATOM     15  C   UNL     1       3.747   5.005  18.674  0.00  0.00    +0.000 C 
BRANCH  15  16
ATOM     16  N   UNL     1       3.137   3.979  19.530  0.00  0.00    +0.000 NA
ATOM     17  C   UNL     1       2.699   4.493  20.845  0.00  0.00    +0.000 C 
ATOM     18  C   UNL     1       2.141   3.344  21.706  0.00  0.00    +0.000 C 
ATOM     19  O   UNL     1       1.061   2.664  21.051  0.00  0.00    +0.000 OA
ATOM     20  C   UNL     1       1.479   2.185  19.765  0.00  0.00    +0.000 C 
ATOM     21  C   UNL     1       1.969   3.345  18.884  0.00  0.00    +0.000 C 
ENDBRANCH  15  16
ENDBRANCH  14  15
ENDBRANCH  13  14
ENDBRANCH   9  13
TORSDOF 4
ENDMDL
MODEL 5
REMARK VINA RESULT:      -6.9      2.305      3.751
REMARK  Name = 
REMARK  5 active torsions:
REMARK  status: ('A' for Active; 'I' for Inactive)
REMARK    1  A    between atoms: C_1  and  C_2
REMARK    2  A    between atoms: C_9  and  O_10
REMARK    3  A    between atoms: O_10  and  C_11
REMARK    4  A    between atoms: C_11  and  C_12
REMARK    5  A    between atoms: C_12  and  N_13
REMARK                            x       y       z     vdW  Elec       q    Type
REMARK                         _______ _______ _______ _____ _____    ______ ____
ROOT
ATOM      1  C   UNL     1      -0.359   9.222  22.481  0.00  0.00    +0.000 C 
ATOM      2  C   UNL     1      -0.039   9.787  21.125  0.00  0.00    +0.000 A 
ATOM      3  C   UNL     1      -0.591  10.930  20.699  0.00  0.00    +0.000 A 
ATOM      4  C   UNL     1      -0.328  11.517  19.376  0.00  0.00    +0.000 A 
ATOM      5  O   UNL     1      -0.851  12.572  19.041  0.00  0.00    +0.000 OA
ATOM      6  O   UNL     1       0.525  10.815  18.544  0.00  0.00    +0.000 OA
ATOM      7  C   UNL     1       1.126   9.608  18.961  0.00  0.00    +0.000 A 
ATOM      8  C   UNL     1       1.968   8.988  18.033  0.00  0.00    +0.000 A 
ATOM      9  C   UNL     1       2.596   7.792  18.372  0.00  0.00    +0.000 A 
ATOM     10  C   UNL     1       2.360   7.239  19.632  0.00  0.00    +0.000 A 
ATOM     11  C   UNL     1       1.519   7.875  20.556  0.00  0.00    +0.000 A 
ATOM     12  C   UNL     1       0.879   9.073  20.227  0.00  0.00    +0.000 A 
ENDROOT
BRANCH   9  13
ATOM     13  O   UNL     1       3.416   7.059  17.557  0.00  0.00    +0.000 OA
BRANCH  13  14
ATOM     14  C   UNL     1       4.071   5.943  18.168  0.00  0.00    +0.000 C 
BRANCH  14  15
ATOM     15  C   UNL     1       3.729   4.665  17.381  0.00  0.00    +0.000 C 
BRANCH  15  16
ATOM     16  N   UNL     1       3.034   3.671  18.211  0.00  0.00    +0.000 NA
ATOM     17  C   UNL     1       3.363   3.769  19.648  0.00  0.00    +0.000 C 
ATOM     18  C   UNL     1       2.655   2.649  20.434  0.00  0.00    +0.000 C 
ATOM     19  O   UNL     1       1.234   2.684  20.244  0.00  0.00    +0.000 OA
ATOM     20  C   UNL     1       0.914   2.612  18.847  0.00  0.00    +0.000 C 
ATOM     21  C   UNL     1       1.566   3.772  18.079  0.00  0.00    +0.000 C 
ENDBRANCH  15  16
ENDBRANCH  14  15
ENDBRANCH  13  14
ENDBRANCH   9  13
TORSDOF 4
ENDMDL
MODEL 6
REMARK VINA RESULT:      -6.9      1.022      1.200
REMARK  Name = 
REMARK  5 active torsions:
REMARK  status: ('A' for Active; 'I' for Inactive)
REMARK    1  A    between atoms: C_1  and  C_2
REMARK    2  A    between atoms: C_9  and  O_10
REMARK    3  A    between atoms: O_10  and  C_11
REMARK    4  A    between atoms: C_11  and  C_12
REMARK    5  A    between atoms: C_12  and  N_13
REMARK                            x       y       z     vdW  Elec       q    Type
REMARK                         _______ _______ _______ _____ _____    ______ ____
ROOT
ATOM      1  C   UNL     1       1.241  11.246  18.714  0.00  0.00    +0.000 C 
ATOM      2  C   UNL     1       1.163  10.220  19.809  0.00  0.00    +0.000 A 
ATOM      3  C   UNL     1       0.727  10.540  21.034  0.00  0.00    +0.000 A 
ATOM      4  C   UNL     1       0.649   9.580  22.146  0.00  0.00    +0.000 A 
ATOM      5  O   UNL     1       0.232   9.924  23.244  0.00  0.00    +0.000 OA
ATOM      6  O   UNL     1       1.073   8.289  21.884  0.00  0.00    +0.000 OA
ATOM      7  C   UNL     1       1.535   7.917  20.604  0.00  0.00    +0.000 A 
ATOM      8  C   UNL     1       1.939   6.586  20.459  0.00  0.00    +0.000 A 
ATOM      9  C   UNL     1       2.409   6.144  19.225  0.00  0.00    +0.000 A 
ATOM     10  C   UNL     1       2.472   7.049  18.163  0.00  0.00    +0.000 A 
ATOM     11  C   UNL     1       2.057   8.379  18.320  0.00  0.00    +0.000 A 
ATOM     12  C   UNL     1       1.588   8.837  19.554  0.00  0.00    +0.000 A 
ENDROOT
BRANCH   9  13
ATOM     13  O   UNL     1       2.867   4.885  18.947  0.00  0.00    +0.000 OA
BRANCH  13  14
ATOM     14  C   UNL     1       3.053   4.578  17.562  0.00  0.00    +0.000 C 
BRANCH  14  15
ATOM     15  C   UNL     1       4.052   3.414  17.432  0.00  0.00    +0.000 C 
BRANCH  15  16
ATOM     16  N   UNL     1       5.359   3.858  16.928  0.00  0.00    +0.000 NA
ATOM     17  C   UNL     1       5.279   4.598  15.652  0.00  0.00    +0.000 C 
ATOM     18  C   UNL     1       6.692   4.960  15.156  0.00  0.00    +0.000 C 
ATOM     19  O   UNL     1       7.417   5.724  16.131  0.00  0.00    +0.000 OA
ATOM     20  C   UNL     1       7.475   5.016  17.378  0.00  0.00    +0.000 C 
ATOM     21  C   UNL     1       6.062   4.718  17.902  0.00  0.00    +0.000 C 
ENDBRANCH  15  16
ENDBRANCH  14  15
ENDBRANCH  13  14
ENDBRANCH   9  13
TORSDOF 4
ENDMDL
MODEL 7
REMARK VINA RESULT:      -6.8      4.794      8.424
REMARK  Name = 
REMARK  5 active torsions:
REMARK  status: ('A' for Active; 'I' for Inactive)
REMARK    1  A    between atoms: C_1  and  C_2
REMARK    2  A    between atoms: C_9  and  O_10
REMARK    3  A    between atoms: O_10  and  C_11
REMARK    4  A    between atoms: C_11  and  C_12
REMARK    5  A    between atoms: C_12  and  N_13
REMARK                            x       y       z     vdW  Elec       q    Type
REMARK                         _______ _______ _______ _____ _____    ______ ____
ROOT
ATOM      1  C   UNL     1       5.533   3.032  12.102  0.00  0.00    +0.000 C 
ATOM      2  C   UNL     1       6.325   3.972  12.967  0.00  0.00    +0.000 A 
ATOM      3  C   UNL     1       7.434   4.569  12.513  0.00  0.00    +0.000 A 
ATOM      4  C   UNL     1       8.256   5.481  13.322  0.00  0.00    +0.000 A 
ATOM      5  O   UNL     1       9.257   6.009  12.854  0.00  0.00    +0.000 OA
ATOM      6  O   UNL     1       7.844   5.699  14.625  0.00  0.00    +0.000 OA
ATOM      7  C   UNL     1       6.679   5.088  15.135  0.00  0.00    +0.000 A 
ATOM      8  C   UNL     1       6.363   5.382  16.465  0.00  0.00    +0.000 A 
ATOM      9  C   UNL     1       5.229   4.815  17.040  0.00  0.00    +0.000 A 
ATOM     10  C   UNL     1       4.438   3.959  16.272  0.00  0.00    +0.000 A 
ATOM     11  C   UNL     1       4.761   3.680  14.936  0.00  0.00    +0.000 A 
ATOM     12  C   UNL     1       5.900   4.238  14.348  0.00  0.00    +0.000 A 
ENDROOT
BRANCH   9  13
ATOM     13  O   UNL     1       4.817   4.985  18.335  0.00  0.00    +0.000 OA
BRANCH  13  14
ATOM     14  C   UNL     1       5.461   4.158  19.310  0.00  0.00    +0.000 C 
BRANCH  14  15
ATOM     15  C   UNL     1       4.583   2.923  19.581  0.00  0.00    +0.000 C 
BRANCH  15  16
ATOM     16  N   UNL     1       3.150   3.222  19.461  0.00  0.00    +0.000 NA
ATOM     17  C   UNL     1       2.342   2.069  19.015  0.00  0.00    +0.000 C 
ATOM     18  C   UNL     1       0.868   2.486  18.843  0.00  0.00    +0.000 C 
ATOM     19  O   UNL     1       0.328   3.037  20.052  0.00  0.00    +0.000 OA
ATOM     20  C   UNL     1       1.126   4.142  20.498  0.00  0.00    +0.000 C 
ATOM     21  C   UNL     1       2.579   3.705  20.736  0.00  0.00    +0.000 C 
ENDBRANCH  15  16
ENDBRANCH  14  15
ENDBRANCH  13  14
ENDBRANCH   9  13
TORSDOF 4
ENDMDL
MODEL 8
REMARK VINA RESULT:      -6.8      1.647      2.573
REMARK  Name = 
REMARK  5 active torsions:
REMARK  status: ('A' for Active; 'I' for Inactive)
REMARK    1  A    between atoms: C_1  and  C_2
REMARK    2  A    between atoms: C_9  and  O_10
REMARK    3  A    between atoms: O_10  and  C_11
REMARK    4  A    between atoms: C_11  and  C_12
REMARK    5  A    between atoms: C_12  and  N_13
REMARK                            x       y       z     vdW  Elec       q    Type
REMARK                         _______ _______ _______ _____ _____    ______ ____
ROOT
ATOM      1  C   UNL     1       0.023   9.327  22.639  0.00  0.00    +0.000 C 
ATOM      2  C   UNL     1       0.505   9.635  21.249  0.00  0.00    +0.000 A 
ATOM      3  C   UNL     1       0.311  10.839  20.694  0.00  0.00    +0.000 A 
ATOM      4  C   UNL     1       0.745  11.186  19.332  0.00  0.00    +0.000 A 
ATOM      5  O   UNL     1       0.551  12.306  18.878  0.00  0.00    +0.000 OA
ATOM      6  O   UNL     1       1.368  10.188  18.605  0.00  0.00    +0.000 OA
ATOM      7  C   UNL     1       1.591   8.910  19.159  0.00  0.00    +0.000 A 
ATOM      8  C   UNL     1       2.228   7.983  18.328  0.00  0.00    +0.000 A 
ATOM      9  C   UNL     1       2.481   6.699  18.804  0.00  0.00    +0.000 A 
ATOM     10  C   UNL     1       2.083   6.368  20.101  0.00  0.00    +0.000 A 
ATOM     11  C   UNL     1       1.452   7.310  20.926  0.00  0.00    +0.000 A 
ATOM     12  C   UNL     1       1.188   8.601  20.460  0.00  0.00    +0.000 A 
ENDROOT
BRANCH   9  13
ATOM     13  O   UNL     1       3.063   5.683  18.095  0.00  0.00    +0.000 OA
BRANCH  13  14
ATOM     14  C   UNL     1       3.370   4.498  18.837  0.00  0.00    +0.000 C 
BRANCH  14  15
ATOM     15  C   UNL     1       4.886   4.239  18.771  0.00  0.00    +0.000 C 
BRANCH  15  16
ATOM     16  N   UNL     1       5.549   5.080  17.766  0.00  0.00    +0.000 NA
ATOM     17  C   UNL     1       6.738   5.790  18.281  0.00  0.00    +0.000 C 
ATOM     18  C   UNL     1       7.328   6.704  17.190  0.00  0.00    +0.000 C 
ATOM     19  O   UNL     1       7.661   5.968  16.004  0.00  0.00    +0.000 OA
ATOM     20  C   UNL     1       6.512   5.260  15.516  0.00  0.00    +0.000 C 
ATOM     21  C   UNL     1       5.970   4.299  16.584  0.00  0.00    +0.000 C 
ENDBRANCH  15  16
ENDBRANCH  14  15
ENDBRANCH  13  14
ENDBRANCH   9  13
TORSDOF 4
ENDMDL
MODEL 9
REMARK VINA RESULT:      -6.8      5.163      7.482
REMARK  Name = 
REMARK  5 active torsions:
REMARK  status: ('A' for Active; 'I' for Inactive)
REMARK    1  A    between atoms: C_1  and  C_2
REMARK    2  A    between atoms: C_9  and  O_10
REMARK    3  A    between atoms: O_10  and  C_11
REMARK    4  A    between atoms: C_11  and  C_12
REMARK    5  A    between atoms: C_12  and  N_13
REMARK                            x       y       z     vdW  Elec       q    Type
REMARK                         _______ _______ _______ _____ _____    ______ ____
ROOT
ATOM      1  C   UNL     1       2.073   5.142  17.583  0.00  0.00    +0.000 C 
ATOM      2  C   UNL     1       3.367   4.675  18.188  0.00  0.00    +0.000 A 
ATOM      3  C   UNL     1       3.430   3.554  18.918  0.00  0.00    +0.000 A 
ATOM      4  C   UNL     1       4.665   3.062  19.548  0.00  0.00    +0.000 A 
ATOM      5  O   UNL     1       4.669   2.024  20.196  0.00  0.00    +0.000 OA
ATOM      6  O   UNL     1       5.801   3.832  19.373  0.00  0.00    +0.000 OA
ATOM      7  C   UNL     1       5.771   5.018  18.608  0.00  0.00    +0.000 A 
ATOM      8  C   UNL     1       6.980   5.713  18.504  0.00  0.00    +0.000 A 
ATOM      9  C   UNL     1       7.029   6.893  17.767  0.00  0.00    +0.000 A 
ATOM     10  C   UNL     1       5.862   7.357  17.156  0.00  0.00    +0.000 A 
ATOM     11  C   UNL     1       4.658   6.646  17.262  0.00  0.00    +0.000 A 
ATOM     12  C   UNL     1       4.593   5.462  18.002  0.00  0.00    +0.000 A 
ENDROOT
BRANCH   9  13
ATOM     13  O   UNL     1       8.128   7.692  17.607  0.00  0.00    +0.000 OA
BRANCH  13  14
ATOM     14  C   UNL     1       7.900   9.101  17.717  0.00  0.00    +0.000 C 
BRANCH  14  15
ATOM     15  C   UNL     1       8.965   9.714  18.644  0.00  0.00    +0.000 C 
BRANCH  15  16
ATOM     16  N   UNL     1       9.212  11.130  18.345  0.00  0.00    +0.000 NA
ATOM     17  C   UNL     1       9.029  12.021  19.510  0.00  0.00    +0.000 C 
ATOM     18  C   UNL     1       9.233  13.490  19.095  0.00  0.00    +0.000 C 
ATOM     19  O   UNL     1      10.523  13.701  18.503  0.00  0.00    +0.000 OA
ATOM     20  C   UNL     1      10.710  12.821  17.386  0.00  0.00    +0.000 C 
ATOM     21  C   UNL     1      10.575  11.353  17.819  0.00  0.00    +0.000 C 
ENDBRANCH  15  16
ENDBRANCH  14  15
ENDBRANCH  13  14
ENDBRANCH   9  13
TORSDOF 4
ENDMDL
