MODEL 1
REMARK VINA RESULT:      -7.8      0.000      0.000
REMARK  Name = 
REMARK  5 active torsions:
REMARK  status: ('A' for Active; 'I' for Inactive)
REMARK    1  A    between atoms: C_1  and  C_2
REMARK    2  A    between atoms: C_5  and  C_6
REMARK    3  A    between atoms: C_6  and  N_7
REMARK    4  A    between atoms: C_10  and  C_11
REMARK    5  A    between atoms: C_13  and  C_14
REMARK                            x       y       z     vdW  Elec       q    Type
REMARK                         _______ _______ _______ _____ _____    ______ ____
ROOT
ATOM      1  N   UNL     1       4.132   3.005  17.586  0.00  0.00    +0.000 NA
ATOM      2  C   UNL     1       4.462   3.202  18.997  0.00  0.00    +0.000 C 
ATOM      3  C   UNL     1       3.310   2.851  19.947  0.00  0.00    +0.000 C 
ATOM      4  C   UNL     1       1.986   3.530  19.565  0.00  0.00    +0.000 C 
ATOM      5  C   UNL     1       1.694   3.196  18.097  0.00  0.00    +0.000 C 
ATOM      6  C   UNL     1       2.853   3.590  17.178  0.00  0.00    +0.000 C 
ENDROOT
BRANCH   4   7
ATOM      7  C   UNL     1       1.934   5.016  19.849  0.00  0.00    +0.000 A 
ATOM      8  C   UNL     1       2.085   6.100  18.954  0.00  0.00    +0.000 A 
ATOM      9  C   UNL     1       1.826   7.237  19.686  0.00  0.00    +0.000 A 
ATOM     10  N   UNL     1       1.682   6.798  20.972  0.00  0.00    +0.000 N 
ATOM     11  N   UNL     1       1.724   5.457  21.099  0.00  0.00    +0.000 NA
ATOM     12  H   UNL     1       1.528   7.358  21.803  0.00  0.00    +0.000 HD
BRANCH   9  13
ATOM     13  C   UNL     1       1.704   8.596  19.249  0.00  0.00    +0.000 A 
ATOM     14  C   UNL     1       2.220   9.124  18.080  0.00  0.00    +0.000 A 
ATOM     15  C   UNL     1       1.931  10.509  17.923  0.00  0.00    +0.000 A 
ATOM     16  C   UNL     1       1.184  10.995  18.973  0.00  0.00    +0.000 A 
ATOM     17  S   UNL     1       0.838   9.783  20.130  0.00  0.00    +0.000 S 
ENDBRANCH   9  13
ENDBRANCH   4   7
BRANCH   1  18
ATOM     18  C   UNL     1       5.246   3.370  16.686  0.00  0.00    +0.000 C 
BRANCH  18  23
ATOM     19  C   UNL     1       7.938   8.439  17.835  0.00  0.00    +0.000 C 
ATOM     20  C   UNL     1       7.259   7.147  17.486  0.00  0.00    +0.000 A 
ATOM     21  C   UNL     1       6.059   7.123  16.768  0.00  0.00    +0.000 A 
ATOM     22  C   UNL     1       5.418   5.904  16.493  0.00  0.00    +0.000 A 
ATOM     23  C   UNL     1       5.960   4.690  16.937  0.00  0.00    +0.000 A 
ATOM     24  C   UNL     1       7.161   4.724  17.658  0.00  0.00    +0.000 A 
ATOM     25  C   UNL     1       7.804   5.937  17.928  0.00  0.00    +0.000 A 
ENDBRANCH  18  23
ENDBRANCH   1  18
TORSDOF 4
ENDMDL
MODEL 2
REMARK VINA RESULT:      -7.6      0.221      1.004
REMARK  Name = 
REMARK  5 active torsions:
REMARK  status: ('A' for Active; 'I' for Inactive)
REMARK    1  A    between atoms: C_1  and  C_2
REMARK    2  A    between atoms: C_5  and  C_6
REMARK    3  A    between atoms: C_6  and  N_7
REMARK    4  A    between atoms: C_10  and  C_11
REMARK    5  A    between atoms: C_13  and  C_14
REMARK                            x       y       z     vdW  Elec       q    Type
REMARK                         _______ _______ _______ _____ _____    ______ ____
ROOT
ATOM      1  N   UNL     1       4.279   3.143  17.599  0.00  0.00    +0.000 NA
ATOM      2  C   UNL     1       4.515   3.291  19.034  0.00  0.00    +0.000 C 
ATOM      3  C   UNL     1       3.305   2.906  19.895  0.00  0.00    +0.000 C 
ATOM      4  C   UNL     1       2.006   3.595  19.451  0.00  0.00    +0.000 C 
ATOM      5  C   UNL     1       1.812   3.312  17.956  0.00  0.00    +0.000 C 
ATOM      6  C   UNL     1       3.027   3.740  17.129  0.00  0.00    +0.000 C 
ENDROOT
BRANCH   4   7
ATOM      7  C   UNL     1       1.930   5.070  19.782  0.00  0.00    +0.000 A 
ATOM      8  C   UNL     1       2.080   6.185  18.925  0.00  0.00    +0.000 A 
ATOM      9  C   UNL     1       1.795   7.294  19.690  0.00  0.00    +0.000 A 
ATOM     10  N   UNL     1       1.638   6.812  20.959  0.00  0.00    +0.000 N 
ATOM     11  N   UNL     1       1.696   5.467  21.042  0.00  0.00    +0.000 NA
ATOM     12  H   UNL     1       1.464   7.341  21.805  0.00  0.00    +0.000 HD
BRANCH   9  13
ATOM     13  C   UNL     1       1.661   8.665  19.296  0.00  0.00    +0.000 A 
ATOM     14  C   UNL     1       2.137   9.225  18.124  0.00  0.00    +0.000 A 
ATOM     15  C   UNL     1       1.846  10.614  18.017  0.00  0.00    +0.000 A 
ATOM     16  C   UNL     1       1.138  11.072  19.105  0.00  0.00    +0.000 A 
ATOM     17  S   UNL     1       0.830   9.828  20.240  0.00  0.00    +0.000 S 
ENDBRANCH   9  13
ENDBRANCH   4   7
BRANCH   1  18
ATOM     18  C   UNL     1       5.447   3.541  16.787  0.00  0.00    +0.000 C 
BRANCH  18  23
ATOM     19  C   UNL     1       8.195   8.579  17.937  0.00  0.00    +0.000 C 
ATOM     20  C   UNL     1       7.475   7.285  17.696  0.00  0.00    +0.000 A 
ATOM     21  C   UNL     1       7.929   6.082  18.247  0.00  0.00    +0.000 A 
ATOM     22  C   UNL     1       7.265   4.877  17.971  0.00  0.00    +0.000 A 
ATOM     23  C   UNL     1       6.142   4.850  17.132  0.00  0.00    +0.000 A 
ATOM     24  C   UNL     1       5.696   6.059  16.582  0.00  0.00    +0.000 A 
ATOM     25  C   UNL     1       6.353   7.263  16.862  0.00  0.00    +0.000 A 
ENDBRANCH  18  23
ENDBRANCH   1  18
TORSDOF 4
ENDMDL
MODEL 3
REMARK VINA RESULT:      -7.6      3.925      7.477
REMARK  Name = 
REMARK  5 active torsions:
REMARK  status: ('A' for Active; 'I' for Inactive)
REMARK    1  A    between atoms: C_1  and  C_2
REMARK    2  A    between atoms: C_5  and  C_6
REMARK    3  A    between atoms: C_6  and  N_7
REMARK    4  A    between atoms: C_10  and  C_11
REMARK    5  A    between atoms: C_13  and  C_14
REMARK                            x       y       z     vdW  Elec       q    Type
REMARK                         _______ _______ _______ _____ _____    ______ ____
ROOT
ATOM      1  N   UNL     1       4.344   6.002  18.122  0.00  0.00    +0.000 NA
ATOM      2  C   UNL     1       4.809   4.619  18.034  0.00  0.00    +0.000 C 
ATOM      3  C   UNL     1       6.333   4.479  18.122  0.00  0.00    +0.000 C 
ATOM      4  C   UNL     1       7.080   5.401  17.146  0.00  0.00    +0.000 C 
ATOM      5  C   UNL     1       6.580   6.832  17.376  0.00  0.00    +0.000 C 
ATOM      6  C   UNL     1       5.057   6.935  17.247  0.00  0.00    +0.000 C 
ENDROOT
BRANCH   4   7
ATOM      7  C   UNL     1       7.000   4.979  15.695  0.00  0.00    +0.000 A 
ATOM      8  C   UNL     1       6.202   3.974  15.101  0.00  0.00    +0.000 A 
ATOM      9  C   UNL     1       6.407   4.077  13.744  0.00  0.00    +0.000 A 
ATOM     10  N   UNL     1       7.396   5.011  13.610  0.00  0.00    +0.000 N 
ATOM     11  N   UNL     1       7.762   5.587  14.773  0.00  0.00    +0.000 NA
ATOM     12  H   UNL     1       7.846   5.318  12.756  0.00  0.00    +0.000 HD
BRANCH   9  13
ATOM     13  C   UNL     1       5.749   3.399  12.666  0.00  0.00    +0.000 A 
ATOM     14  C   UNL     1       4.486   3.682  12.179  0.00  0.00    +0.000 A 
ATOM     15  C   UNL     1       4.107   2.835  11.100  0.00  0.00    +0.000 A 
ATOM     16  C   UNL     1       5.103   1.939  10.781  0.00  0.00    +0.000 A 
ATOM     17  S   UNL     1       6.480   2.129  11.780  0.00  0.00    +0.000 S 
ENDBRANCH   9  13
ENDBRANCH   4   7
BRANCH   1  18
ATOM     18  C   UNL     1       2.875   6.117  18.012  0.00  0.00    +0.000 C 
BRANCH  18  23
ATOM     19  C   UNL     1       0.456  10.816  20.527  0.00  0.00    +0.000 C 
ATOM     20  C   UNL     1       1.030   9.582  19.895  0.00  0.00    +0.000 A 
ATOM     21  C   UNL     1       1.401   8.473  20.663  0.00  0.00    +0.000 A 
ATOM     22  C   UNL     1       1.978   7.347  20.055  0.00  0.00    +0.000 A 
ATOM     23  C   UNL     1       2.204   7.312  18.671  0.00  0.00    +0.000 A 
ATOM     24  C   UNL     1       1.832   8.429  17.911  0.00  0.00    +0.000 A 
ATOM     25  C   UNL     1       1.251   9.550  18.515  0.00  0.00    +0.000 A 
ENDBRANCH  18  23
ENDBRANCH   1  18
TORSDOF 4
ENDMDL
MODEL 4
REMARK VINA RESULT:      -7.5      3.070      6.187
REMARK  Name = 
REMARK  5 active torsions:
REMARK  status: ('A' for Active; 'I' for Inactive)
REMARK    1  A    between atoms: C_1  and  C_2
REMARK    2  A    between atoms: C_5  and  C_6
REMARK    3  A    between atoms: C_6  and  N_7
REMARK    4  A    between atoms: C_10  and  C_11
REMARK    5  A    between atoms: C_13  and  C_14
REMARK                            x       y       z     vdW  Elec       q    Type
REMARK                         _______ _______ _______ _____ _____    ______ ____
ROOT
ATOM      1  N   UNL     1       4.686   4.554  17.791  0.00  0.00    +0.000 NA
ATOM      2  C   UNL     1       5.368   4.932  16.555  0.00  0.00    +0.000 C 
ATOM      3  C   UNL     1       6.880   4.677  16.589  0.00  0.00    +0.000 C 
ATOM      4  C   UNL     1       7.564   5.273  17.830  0.00  0.00    +0.000 C 
ATOM      5  C   UNL     1       6.824   4.752  19.069  0.00  0.00    +0.000 C 
ATOM      6  C   UNL     1       5.324   5.055  19.010  0.00  0.00    +0.000 C 
ENDROOT
BRANCH   4   7
ATOM      7  C   UNL     1       7.691   6.781  17.816  0.00  0.00    +0.000 A 
ATOM      8  C   UNL     1       8.326   7.630  18.751  0.00  0.00    +0.000 A 
ATOM      9  C   UNL     1       8.271   8.897  18.214  0.00  0.00    +0.000 A 
ATOM     10  N   UNL     1       7.503   8.766  17.090  0.00  0.00    +0.000 N 
ATOM     11  N   UNL     1       7.153   7.494  16.814  0.00  0.00    +0.000 NA
ATOM     12  H   UNL     1       7.204   9.498  16.457  0.00  0.00    +0.000 HD
BRANCH   9  13
ATOM     13  C   UNL     1       8.878  10.111  18.673  0.00  0.00    +0.000 A 
ATOM     14  C   UNL     1       9.641  10.257  19.817  0.00  0.00    +0.000 A 
ATOM     15  C   UNL     1      10.108  11.588  20.005  0.00  0.00    +0.000 A 
ATOM     16  C   UNL     1       9.702  12.419  18.985  0.00  0.00    +0.000 A 
ATOM     17  S   UNL     1       8.767  11.590  17.815  0.00  0.00    +0.000 S 
ENDBRANCH   9  13
ENDBRANCH   4   7
BRANCH   1  18
ATOM     18  C   UNL     1       3.235   4.828  17.746  0.00  0.00    +0.000 C 
BRANCH  18  23
ATOM     19  C   UNL     1       0.956   8.966  21.203  0.00  0.00    +0.000 C 
ATOM     20  C   UNL     1       1.590   7.930  20.322  0.00  0.00    +0.000 A 
ATOM     21  C   UNL     1       2.072   8.250  19.048  0.00  0.00    +0.000 A 
ATOM     22  C   UNL     1       2.620   7.254  18.224  0.00  0.00    +0.000 A 
ATOM     23  C   UNL     1       2.689   5.921  18.653  0.00  0.00    +0.000 A 
ATOM     24  C   UNL     1       2.202   5.610  19.930  0.00  0.00    +0.000 A 
ATOM     25  C   UNL     1       1.660   6.602  20.755  0.00  0.00    +0.000 A 
ENDBRANCH  18  23
ENDBRANCH   1  18
TORSDOF 4
ENDMDL
MODEL 5
REMARK VINA RESULT:      -7.5      3.217      6.382
REMARK  Name = 
REMARK  5 active torsions:
REMARK  status: ('A' for Active; 'I' for Inactive)
REMARK    1  A    between atoms: C_1  and  C_2
REMARK    2  A    between atoms: C_5  and  C_6
REMARK    3  A    between atoms: C_6  and  N_7
REMARK    4  A    between atoms: C_10  and  C_11
REMARK    5  A    between atoms: C_13  and  C_14
REMARK                            x       y       z     vdW  Elec       q    Type
REMARK                         _______ _______ _______ _____ _____    ______ ____
ROOT
ATOM      1  N   UNL     1       4.761   4.868  17.859  0.00  0.00    +0.000 NA
ATOM      2  C   UNL     1       5.572   5.144  16.675  0.00  0.00    +0.000 C 
ATOM      3  C   UNL     1       7.064   4.852  16.875  0.00  0.00    +0.000 C 
ATOM      4  C   UNL     1       7.643   5.512  18.136  0.00  0.00    +0.000 C 
ATOM      5  C   UNL     1       6.770   5.094  19.326  0.00  0.00    +0.000 C 
ATOM      6  C   UNL     1       5.294   5.432  19.101  0.00  0.00    +0.000 C 
ENDROOT
BRANCH   4   7
ATOM      7  C   UNL     1       7.821   7.011  18.038  0.00  0.00    +0.000 A 
ATOM      8  C   UNL     1       8.512   7.886  18.908  0.00  0.00    +0.000 A 
ATOM      9  C   UNL     1       8.483   9.123  18.306  0.00  0.00    +0.000 A 
ATOM     10  N   UNL     1       7.677   8.962  17.214  0.00  0.00    +0.000 N 
ATOM     11  N   UNL     1       7.276   7.690  17.017  0.00  0.00    +0.000 NA
ATOM     12  H   UNL     1       7.383   9.670  16.552  0.00  0.00    +0.000 HD
BRANCH   9  13
ATOM     13  C   UNL     1       9.144  10.338  18.682  0.00  0.00    +0.000 A 
ATOM     14  C   UNL     1       9.671  11.279  17.816  0.00  0.00    +0.000 A 
ATOM     15  C   UNL     1      10.265  12.381  18.491  0.00  0.00    +0.000 A 
ATOM     16  C   UNL     1      10.158  12.259  19.859  0.00  0.00    +0.000 A 
ATOM     17  S   UNL     1       9.344  10.824  20.313  0.00  0.00    +0.000 S 
ENDBRANCH   9  13
ENDBRANCH   4   7
BRANCH   1  18
ATOM     18  C   UNL     1       3.330   5.177  17.654  0.00  0.00    +0.000 C 
BRANCH  18  23
ATOM     19  C   UNL     1       0.884   8.787  21.557  0.00  0.00    +0.000 C 
ATOM     20  C   UNL     1       1.462   7.837  20.550  0.00  0.00    +0.000 A 
ATOM     21  C   UNL     1       1.598   6.472  20.827  0.00  0.00    +0.000 A 
ATOM     22  C   UNL     1       2.182   5.610  19.886  0.00  0.00    +0.000 A 
ATOM     23  C   UNL     1       2.649   6.096  18.657  0.00  0.00    +0.000 A 
ATOM     24  C   UNL     1       2.512   7.464  18.389  0.00  0.00    +0.000 A 
ATOM     25  C   UNL     1       1.924   8.325  19.324  0.00  0.00    +0.000 A 
ENDBRANCH  18  23
ENDBRANCH   1  18
TORSDOF 4
ENDMDL
MODEL 6
REMARK VINA RESULT:      -7.4      1.631      1.929
REMARK  Name = 
REMARK  5 active torsions:
REMARK  status: ('A' for Active; 'I' for Inactive)
REMARK    1  A    between atoms: C_1  and  C_2
REMARK    2  A    between atoms: C_5  and  C_6
REMARK    3  A    between atoms: C_6  and  N_7
REMARK    4  A    between atoms: C_10  and  C_11
REMARK    5  A    between atoms: C_13  and  C_14
REMARK                            x       y       z     vdW  Elec       q    Type
REMARK                         _______ _______ _______ _____ _____    ______ ____
ROOT
ATOM      1  N   UNL     1       3.520   3.184  18.147  0.00  0.00    +0.000 NA
ATOM      2  C   UNL     1       4.014   3.529  19.479  0.00  0.00    +0.000 C 
ATOM      3  C   UNL     1       2.974   3.327  20.588  0.00  0.00    +0.000 C 
ATOM      4  C   UNL     1       1.628   4.001  20.281  0.00  0.00    +0.000 C 
ATOM      5  C   UNL     1       1.161   3.512  18.903  0.00  0.00    +0.000 C 
ATOM      6  C   UNL     1       2.214   3.761  17.820  0.00  0.00    +0.000 C 
ENDROOT
BRANCH   4   7
ATOM      7  C   UNL     1       1.638   5.510  20.393  0.00  0.00    +0.000 A 
ATOM      8  C   UNL     1       0.610   6.379  20.823  0.00  0.00    +0.000 A 
ATOM      9  C   UNL     1       1.166   7.638  20.861  0.00  0.00    +0.000 A 
ATOM     10  N   UNL     1       2.415   7.484  20.328  0.00  0.00    +0.000 N 
ATOM     11  N   UNL     1       2.736   6.204  20.052  0.00  0.00    +0.000 NA
ATOM     12  H   UNL     1       3.105   8.204  20.150  0.00  0.00    +0.000 HD
BRANCH   9  13
ATOM     13  C   UNL     1       0.615   8.866  21.353  0.00  0.00    +0.000 A 
ATOM     14  C   UNL     1      -0.006   9.046  22.576  0.00  0.00    +0.000 A 
ATOM     15  C   UNL     1      -0.448  10.383  22.780  0.00  0.00    +0.000 A 
ATOM     16  C   UNL     1      -0.134  11.193  21.712  0.00  0.00    +0.000 A 
ATOM     17  S   UNL     1       0.689  10.337  20.479  0.00  0.00    +0.000 S 
ENDBRANCH   9  13
ENDBRANCH   4   7
BRANCH   1  18
ATOM     18  C   UNL     1       4.529   3.407  17.091  0.00  0.00    +0.000 C 
BRANCH  18  23
ATOM     19  C   UNL     1       7.850   8.194  17.656  0.00  0.00    +0.000 C 
ATOM     20  C   UNL     1       6.999   6.975  17.455  0.00  0.00    +0.000 A 
ATOM     21  C   UNL     1       5.680   7.070  16.996  0.00  0.00    +0.000 A 
ATOM     22  C   UNL     1       4.889   5.919  16.860  0.00  0.00    +0.000 A 
ATOM     23  C   UNL     1       5.397   4.654  17.188  0.00  0.00    +0.000 A 
ATOM     24  C   UNL     1       6.717   4.568  17.649  0.00  0.00    +0.000 A 
ATOM     25  C   UNL     1       7.509   5.714  17.780  0.00  0.00    +0.000 A 
ENDBRANCH  18  23
ENDBRANCH   1  18
TORSDOF 4
ENDMDL
MODEL 7
REMARK VINA RESULT:      -7.3      3.960      7.511
REMARK  Name = 
REMARK  5 active torsions:
REMARK  status: ('A' for Active; 'I' for Inactive)
REMARK    1  A    between atoms: C_1  and  C_2
REMARK    2  A    between atoms: C_5  and  C_6
REMARK    3  A    between atoms: C_6  and  N_7
REMARK    4  A    between atoms: C_10  and  C_11
REMARK    5  A    between atoms: C_13  and  C_14
REMARK                            x       y       z     vdW  Elec       q    Type
REMARK                         _______ _______ _______ _____ _____    ______ ____
ROOT
ATOM      1  N   UNL     1       4.269   6.403  18.024  0.00  0.00    +0.000 NA
ATOM      2  C   UNL     1       4.511   4.963  17.951  0.00  0.00    +0.000 C 
ATOM      3  C   UNL     1       5.981   4.580  18.159  0.00  0.00    +0.000 C 
ATOM      4  C   UNL     1       6.943   5.372  17.260  0.00  0.00    +0.000 C 
ATOM      5  C   UNL     1       6.661   6.865  17.473  0.00  0.00    +0.000 C 
ATOM      6  C   UNL     1       5.191   7.211  17.224  0.00  0.00    +0.000 C 
ENDROOT
BRANCH   4   7
ATOM      7  C   UNL     1       6.915   4.973  15.801  0.00  0.00    +0.000 A 
ATOM      8  C   UNL     1       6.158   3.961  15.168  0.00  0.00    +0.000 A 
ATOM      9  C   UNL     1       6.400   4.091  13.819  0.00  0.00    +0.000 A 
ATOM     10  N   UNL     1       7.371   5.049  13.729  0.00  0.00    +0.000 N 
ATOM     11  N   UNL     1       7.690   5.613  14.912  0.00  0.00    +0.000 NA
ATOM     12  H   UNL     1       7.838   5.380  12.894  0.00  0.00    +0.000 HD
BRANCH   9  13
ATOM     13  C   UNL     1       5.789   3.416  12.711  0.00  0.00    +0.000 A 
ATOM     14  C   UNL     1       4.535   3.680  12.191  0.00  0.00    +0.000 A 
ATOM     15  C   UNL     1       4.207   2.842  11.088  0.00  0.00    +0.000 A 
ATOM     16  C   UNL     1       5.232   1.973  10.785  0.00  0.00    +0.000 A 
ATOM     17  S   UNL     1       6.573   2.176  11.829  0.00  0.00    +0.000 S 
ENDBRANCH   9  13
ENDBRANCH   4   7
BRANCH   1  18
ATOM     18  C   UNL     1       2.851   6.753  17.799  0.00  0.00    +0.000 C 
BRANCH  18  23
ATOM     19  C   UNL     1       0.153  10.343  21.553  0.00  0.00    +0.000 C 
ATOM     20  C   UNL     1       0.888   9.458  20.589  0.00  0.00    +0.000 A 
ATOM     21  C   UNL     1       1.097   9.842  19.259  0.00  0.00    +0.000 A 
ATOM     22  C   UNL     1       1.748   8.978  18.364  0.00  0.00    +0.000 A 
ATOM     23  C   UNL     1       2.191   7.714  18.776  0.00  0.00    +0.000 A 
ATOM     24  C   UNL     1       1.974   7.337  20.108  0.00  0.00    +0.000 A 
ATOM     25  C   UNL     1       1.332   8.199  21.005  0.00  0.00    +0.000 A 
ENDBRANCH  18  23
ENDBRANCH   1  18
TORSDOF 4
ENDMDL
MODEL 8
REMARK VINA RESULT:      -7.3      3.246      6.203
REMARK  Name = 
REMARK  5 active torsions:
REMARK  status: ('A' for Active; 'I' for Inactive)
REMARK    1  A    between atoms: C_1  and  C_2
REMARK    2  A    between atoms: C_5  and  C_6
REMARK    3  A    between atoms: C_6  and  N_7
REMARK    4  A    between atoms: C_10  and  C_11
REMARK    5  A    between atoms: C_13  and  C_14
REMARK                            x       y       z     vdW  Elec       q    Type
REMARK                         _______ _______ _______ _____ _____    ______ ____
ROOT
ATOM      1  N   UNL     1       4.926   4.725  18.135  0.00  0.00    +0.000 NA
ATOM      2  C   UNL     1       5.673   4.985  16.906  0.00  0.00    +0.000 C 
ATOM      3  C   UNL     1       7.188   4.807  17.063  0.00  0.00    +0.000 C 
ATOM      4  C   UNL     1       7.765   5.576  18.261  0.00  0.00    +0.000 C 
ATOM      5  C   UNL     1       6.966   5.172  19.506  0.00  0.00    +0.000 C 
ATOM      6  C   UNL     1       5.463   5.396  19.321  0.00  0.00    +0.000 C 
ENDROOT
BRANCH   4   7
ATOM      7  C   UNL     1       7.835   7.076  18.072  0.00  0.00    +0.000 A 
ATOM      8  C   UNL     1       8.493   8.045  18.863  0.00  0.00    +0.000 A 
ATOM      9  C   UNL     1       8.358   9.240  18.194  0.00  0.00    +0.000 A 
ATOM     10  N   UNL     1       7.527   8.961  17.145  0.00  0.00    +0.000 N 
ATOM     11  N   UNL     1       7.209   7.655  17.035  0.00  0.00    +0.000 NA
ATOM     12  H   UNL     1       7.162   9.607  16.456  0.00  0.00    +0.000 HD
BRANCH   9  13
ATOM     13  C   UNL     1       8.945  10.517  18.475  0.00  0.00    +0.000 A 
ATOM     14  C   UNL     1       8.787  11.668  17.725  0.00  0.00    +0.000 A 
ATOM     15  C   UNL     1       9.496  12.779  18.261  0.00  0.00    +0.000 A 
ATOM     16  C   UNL     1      10.163  12.448  19.419  0.00  0.00    +0.000 A 
ATOM     17  S   UNL     1       9.927  10.808  19.849  0.00  0.00    +0.000 S 
ENDBRANCH   9  13
ENDBRANCH   4   7
BRANCH   1  18
ATOM     18  C   UNL     1       3.471   4.925  17.970  0.00  0.00    +0.000 C 
BRANCH  18  23
ATOM     19  C   UNL     1       0.959   9.801  20.011  0.00  0.00    +0.000 C 
ATOM     20  C   UNL     1       1.653   8.578  19.489  0.00  0.00    +0.000 A 
ATOM     21  C   UNL     1       2.213   8.546  18.207  0.00  0.00    +0.000 A 
ATOM     22  C   UNL     1       2.817   7.374  17.723  0.00  0.00    +0.000 A 
ATOM     23  C   UNL     1       2.864   6.213  18.506  0.00  0.00    +0.000 A 
ATOM     24  C   UNL     1       2.298   6.253  19.788  0.00  0.00    +0.000 A 
ATOM     25  C   UNL     1       1.701   7.421  20.274  0.00  0.00    +0.000 A 
ENDBRANCH  18  23
ENDBRANCH   1  18
TORSDOF 4
ENDMDL
MODEL 9
REMARK VINA RESULT:      -7.3      1.671      2.200
REMARK  Name = 
REMARK  5 active torsions:
REMARK  status: ('A' for Active; 'I' for Inactive)
REMARK    1  A    between atoms: C_1  and  C_2
REMARK    2  A    between atoms: C_5  and  C_6
REMARK    3  A    between atoms: C_6  and  N_7
REMARK    4  A    between atoms: C_10  and  C_11
REMARK    5  A    between atoms: C_13  and  C_14
REMARK                            x       y       z     vdW  Elec       q    Type
REMARK                         _______ _______ _______ _____ _____    ______ ____
ROOT
ATOM      1  N   UNL     1       3.655   3.315  18.086  0.00  0.00    +0.000 NA
ATOM      2  C   UNL     1       4.081   3.605  19.454  0.00  0.00    +0.000 C 
ATOM      3  C   UNL     1       2.994   3.337  20.502  0.00  0.00    +0.000 C 
ATOM      4  C   UNL     1       1.653   4.005  20.163  0.00  0.00    +0.000 C 
ATOM      5  C   UNL     1       1.259   3.574  18.745  0.00  0.00    +0.000 C 
ATOM      6  C   UNL     1       2.357   3.888  17.725  0.00  0.00    +0.000 C 
ENDROOT
BRANCH   4   7
ATOM      7  C   UNL     1       1.634   5.508  20.344  0.00  0.00    +0.000 A 
ATOM      8  C   UNL     1       0.585   6.337  20.802  0.00  0.00    +0.000 A 
ATOM      9  C   UNL     1       1.116   7.603  20.904  0.00  0.00    +0.000 A 
ATOM     10  N   UNL     1       2.374   7.496  20.380  0.00  0.00    +0.000 N 
ATOM     11  N   UNL     1       2.722   6.236  20.049  0.00  0.00    +0.000 NA
ATOM     12  H   UNL     1       3.052   8.236  20.243  0.00  0.00    +0.000 HD
BRANCH   9  13
ATOM     13  C   UNL     1       0.537   8.797  21.445  0.00  0.00    +0.000 A 
ATOM     14  C   UNL     1      -0.185   8.889  22.621  0.00  0.00    +0.000 A 
ATOM     15  C   UNL     1      -0.630  10.212  22.895  0.00  0.00    +0.000 A 
ATOM     16  C   UNL     1      -0.218  11.099  21.926  0.00  0.00    +0.000 A 
ATOM     17  S   UNL     1       0.700  10.331  20.702  0.00  0.00    +0.000 S 
ENDBRANCH   9  13
ENDBRANCH   4   7
BRANCH   1  18
ATOM     18  C   UNL     1       4.709   3.601  17.090  0.00  0.00    +0.000 C 
BRANCH  18  23
ATOM     19  C   UNL     1       8.102   8.326  17.740  0.00  0.00    +0.000 C 
ATOM     20  C   UNL     1       7.225   7.113  17.629  0.00  0.00    +0.000 A 
ATOM     21  C   UNL     1       7.646   5.863  18.096  0.00  0.00    +0.000 A 
ATOM     22  C   UNL     1       6.827   4.733  17.940  0.00  0.00    +0.000 A 
ATOM     23  C   UNL     1       5.579   4.830  17.308  0.00  0.00    +0.000 A 
ATOM     24  C   UNL     1       5.168   6.085  16.841  0.00  0.00    +0.000 A 
ATOM     25  C   UNL     1       5.980   7.214  17.000  0.00  0.00    +0.000 A 
ENDBRANCH  18  23
ENDBRANCH   1  18
TORSDOF 4
ENDMDL
