MODEL 1
REMARK VINA RESULT:      -9.3      0.000      0.000
REMARK  Name = 
REMARK  6 active torsions:
REMARK  status: ('A' for Active; 'I' for Inactive)
REMARK    1  A    between atoms: C_2  and  C_4
REMARK    2  A    between atoms: N_7  and  C_8
REMARK    3  A    between atoms: C_10  and  C_11
REMARK    4  A    between atoms: C_11  and  N_12
REMARK    5  A    between atoms: C_24  and  O_25
REMARK    6  A    between atoms: C_26  and  O_27
REMARK                            x       y       z     vdW  Elec       q    Type
REMARK                         _______ _______ _______ _____ _____    ______ ____
ROOT
ATOM      1  C   UNL     1       4.334   3.911  17.737  0.00  0.00    +0.000 C 
ATOM      2  O   UNL     1       3.231   4.812  17.459  0.00  0.00    +0.000 OA
ATOM      3  C   UNL     1       2.730   5.328  18.718  0.00  0.00    +0.000 C 
ATOM      4  C   UNL     1       3.359   4.468  19.811  0.00  0.00    +0.000 C 
ATOM      5  C   UNL     1       4.693   4.052  19.213  0.00  0.00    +0.000 C 
ENDROOT
BRANCH   1   9
ATOM      6  C   UNL     1       6.571   4.444  15.090  0.00  0.00    +0.000 A 
ATOM      7  N   UNL     1       7.440   4.702  16.134  0.00  0.00    +0.000 NA
ATOM      8  C   UNL     1       6.701   4.547  17.204  0.00  0.00    +0.000 A 
ATOM      9  N   UNL     1       5.441   4.192  16.841  0.00  0.00    +0.000 N 
ATOM     10  N   UNL     1       5.316   4.130  15.496  0.00  0.00    +0.000 NA
BRANCH   6  12
ATOM     11  N   UNL     1       6.432   3.518  12.884  0.00  0.00    +0.000 N 
ATOM     12  C   UNL     1       6.965   4.509  13.667  0.00  0.00    +0.000 C 
ATOM     13  O   UNL     1       7.704   5.361  13.181  0.00  0.00    +0.000 OA
ATOM     14  H   UNL     1       6.653   3.493  11.902  0.00  0.00    +0.000 HD
ATOM     15  H   UNL     1       5.817   2.828  13.299  0.00  0.00    +0.000 HD
ENDBRANCH   6  12
ENDBRANCH   1   9
BRANCH   4  16
ATOM     16  O   UNL     1       2.595   3.267  20.045  0.00  0.00    +0.000 OA
ATOM     17  H   UNL     1       1.643   3.479  20.033  0.00  0.00    +0.000 HD
ENDBRANCH   4  16
BRANCH   5  18
ATOM     18  O   UNL     1       5.153   2.822  19.777  0.00  0.00    +0.000 OA
ATOM     19  H   UNL     1       6.120   2.923  19.912  0.00  0.00    +0.000 HD
ENDBRANCH   5  18
BRANCH   3  20
ATOM     20  C   UNL     1       3.073   6.823  18.843  0.00  0.00    +0.000 C 
BRANCH  20  21
ATOM     21  N   UNL     1       2.305   7.410  19.938  0.00  0.00    +0.000 N 
ATOM     22  C   UNL     1       1.550   8.548  19.768  0.00  0.00    +0.000 C 
ATOM     23  N   UNL     1       1.489   9.220  18.654  0.00  0.00    +0.000 NA
ATOM     24  S   UNL     1       0.487  10.514  18.805  0.00  0.00    +0.000 S 
ATOM     25  O   UNL     1      -0.731  10.290  18.056  0.00  0.00    +0.000 OA
ATOM     26  O   UNL     1       1.240  11.746  18.720  0.00  0.00    +0.000 OA
ATOM     27  C   UNL     1       0.111  10.252  20.482  0.00  0.00    +0.000 A 
ATOM     28  C   UNL     1      -0.646  11.041  21.327  0.00  0.00    +0.000 A 
ATOM     29  C   UNL     1      -0.751  10.621  22.653  0.00  0.00    +0.000 A 
ATOM     30  C   UNL     1      -0.108   9.445  23.088  0.00  0.00    +0.000 A 
ATOM     31  C   UNL     1       0.661   8.675  22.202  0.00  0.00    +0.000 A 
ATOM     32  C   UNL     1       0.759   9.101  20.890  0.00  0.00    +0.000 A 
ATOM     33  H   UNL     1       1.949   6.721  20.597  0.00  0.00    +0.000 HD
ENDBRANCH  20  21
ENDBRANCH   3  20
TORSDOF 6
ENDMDL
MODEL 2
REMARK VINA RESULT:      -8.9      2.063      2.588
REMARK  Name = 
REMARK  6 active torsions:
REMARK  status: ('A' for Active; 'I' for Inactive)
REMARK    1  A    between atoms: C_2  and  C_4
REMARK    2  A    between atoms: N_7  and  C_8
REMARK    3  A    between atoms: C_10  and  C_11
REMARK    4  A    between atoms: C_11  and  N_12
REMARK    5  A    between atoms: C_24  and  O_25
REMARK    6  A    between atoms: C_26  and  O_27
REMARK                            x       y       z     vdW  Elec       q    Type
REMARK                         _______ _______ _______ _____ _____    ______ ____
ROOT
ATOM      1  C   UNL     1       3.586   3.213  17.484  0.00  0.00    +0.000 C 
ATOM      2  O   UNL     1       2.611   4.252  17.765  0.00  0.00    +0.000 OA
ATOM      3  C   UNL     1       2.054   4.015  19.083  0.00  0.00    +0.000 C 
ATOM      4  C   UNL     1       2.491   2.608  19.484  0.00  0.00    +0.000 C 
ATOM      5  C   UNL     1       3.822   2.432  18.773  0.00  0.00    +0.000 C 
ENDROOT
BRANCH   1   9
ATOM      6  C   UNL     1       6.258   4.426  15.566  0.00  0.00    +0.000 A 
ATOM      7  N   UNL     1       6.723   4.809  16.811  0.00  0.00    +0.000 NA
ATOM      8  C   UNL     1       5.781   4.417  17.632  0.00  0.00    +0.000 A 
ATOM      9  N   UNL     1       4.792   3.803  16.932  0.00  0.00    +0.000 N 
ATOM     10  N   UNL     1       5.056   3.803  15.606  0.00  0.00    +0.000 NA
BRANCH   6  12
ATOM     11  N   UNL     1       6.673   3.825  13.284  0.00  0.00    +0.000 N 
ATOM     12  C   UNL     1       6.996   4.676  14.309  0.00  0.00    +0.000 C 
ATOM     13  O   UNL     1       7.834   5.559  14.150  0.00  0.00    +0.000 OA
ATOM     14  H   UNL     1       7.133   3.930  12.394  0.00  0.00    +0.000 HD
ATOM     15  H   UNL     1       5.973   3.107  13.429  0.00  0.00    +0.000 HD
ENDBRANCH   6  12
ENDBRANCH   1   9
BRANCH   4  16
ATOM     16  O   UNL     1       1.589   1.607  18.966  0.00  0.00    +0.000 OA
ATOM     17  H   UNL     1       0.810   2.043  18.573  0.00  0.00    +0.000 HD
ENDBRANCH   4  16
BRANCH   5  18
ATOM     18  O   UNL     1       4.101   1.053  18.525  0.00  0.00    +0.000 OA
ATOM     19  H   UNL     1       4.251   0.968  17.558  0.00  0.00    +0.000 HD
ENDBRANCH   5  18
BRANCH   3  20
ATOM     20  C   UNL     1       2.537   5.105  20.056  0.00  0.00    +0.000 C 
BRANCH  20  21
ATOM     21  N   UNL     1       2.369   6.418  19.438  0.00  0.00    +0.000 N 
ATOM     22  C   UNL     1       1.803   7.473  20.117  0.00  0.00    +0.000 C 
ATOM     23  N   UNL     1       1.331   7.389  21.327  0.00  0.00    +0.000 NA
ATOM     24  S   UNL     1       0.741   8.840  21.828  0.00  0.00    +0.000 S 
ATOM     25  O   UNL     1       1.612   9.411  22.833  0.00  0.00    +0.000 OA
ATOM     26  O   UNL     1      -0.695   8.770  21.987  0.00  0.00    +0.000 OA
ATOM     27  C   UNL     1       1.056   9.681  20.340  0.00  0.00    +0.000 A 
ATOM     28  C   UNL     1       0.726  10.979  20.000  0.00  0.00    +0.000 A 
ATOM     29  C   UNL     1       1.057  11.395  18.710  0.00  0.00    +0.000 A 
ATOM     30  C   UNL     1       1.697  10.516  17.814  0.00  0.00    +0.000 A 
ATOM     31  C   UNL     1       2.008   9.201  18.192  0.00  0.00    +0.000 A 
ATOM     32  C   UNL     1       1.674   8.800  19.473  0.00  0.00    +0.000 A 
ATOM     33  H   UNL     1       3.101   6.647  18.769  0.00  0.00    +0.000 HD
ENDBRANCH  20  21
ENDBRANCH   3  20
TORSDOF 6
ENDMDL
MODEL 3
REMARK VINA RESULT:      -8.8      2.505      3.218
REMARK  Name = 
REMARK  6 active torsions:
REMARK  status: ('A' for Active; 'I' for Inactive)
REMARK    1  A    between atoms: C_2  and  C_4
REMARK    2  A    between atoms: N_7  and  C_8
REMARK    3  A    between atoms: C_10  and  C_11
REMARK    4  A    between atoms: C_11  and  N_12
REMARK    5  A    between atoms: C_24  and  O_25
REMARK    6  A    between atoms: C_26  and  O_27
REMARK                            x       y       z     vdW  Elec       q    Type
REMARK                         _______ _______ _______ _____ _____    ______ ____
ROOT
ATOM      1  C   UNL     1       3.685   3.401  17.558  0.00  0.00    +0.000 C 
ATOM      2  O   UNL     1       2.597   4.347  17.730  0.00  0.00    +0.000 OA
ATOM      3  C   UNL     1       1.863   3.990  18.930  0.00  0.00    +0.000 C 
ATOM      4  C   UNL     1       2.345   2.597  19.325  0.00  0.00    +0.000 C 
ATOM      5  C   UNL     1       3.781   2.562  18.829  0.00  0.00    +0.000 C 
ENDROOT
BRANCH   1   9
ATOM      6  C   UNL     1       6.516   5.458  17.336  0.00  0.00    +0.000 A 
ATOM      7  N   UNL     1       6.714   4.728  16.178  0.00  0.00    +0.000 NA
ATOM      8  C   UNL     1       5.705   3.893  16.156  0.00  0.00    +0.000 A 
ATOM      9  N   UNL     1       4.911   4.109  17.236  0.00  0.00    +0.000 N 
ATOM     10  N   UNL     1       5.406   5.092  18.022  0.00  0.00    +0.000 NA
BRANCH   6  12
ATOM     11  N   UNL     1       7.487   7.614  16.955  0.00  0.00    +0.000 N 
ATOM     12  C   UNL     1       7.427   6.529  17.790  0.00  0.00    +0.000 C 
ATOM     13  O   UNL     1       8.094   6.494  18.821  0.00  0.00    +0.000 OA
ATOM     14  H   UNL     1       8.087   8.388  17.194  0.00  0.00    +0.000 HD
ATOM     15  H   UNL     1       6.924   7.631  16.113  0.00  0.00    +0.000 HD
ENDBRANCH   6  12
ENDBRANCH   1   9
BRANCH   4  16
ATOM     16  O   UNL     1       1.618   1.567  18.622  0.00  0.00    +0.000 OA
ATOM     17  H   UNL     1       1.331   0.882  19.253  0.00  0.00    +0.000 HD
ENDBRANCH   4  16
BRANCH   5  18
ATOM     18  O   UNL     1       4.205   1.223  18.561  0.00  0.00    +0.000 OA
ATOM     19  H   UNL     1       5.101   1.290  18.166  0.00  0.00    +0.000 HD
ENDBRANCH   5  18
BRANCH   3  20
ATOM     20  C   UNL     1       2.100   5.050  20.019  0.00  0.00    +0.000 C 
BRANCH  20  21
ATOM     21  N   UNL     1       2.078   6.381  19.417  0.00  0.00    +0.000 N 
ATOM     22  C   UNL     1       1.642   7.487  20.113  0.00  0.00    +0.000 C 
ATOM     23  N   UNL     1       1.174   7.443  21.327  0.00  0.00    +0.000 NA
ATOM     24  S   UNL     1       0.758   8.946  21.848  0.00  0.00    +0.000 S 
ATOM     25  O   UNL     1       1.698   9.402  22.850  0.00  0.00    +0.000 OA
ATOM     26  O   UNL     1      -0.675   9.039  22.022  0.00  0.00    +0.000 OA
ATOM     27  C   UNL     1       1.154   9.763  20.366  0.00  0.00    +0.000 A 
ATOM     28  C   UNL     1       0.972  11.094  20.043  0.00  0.00    +0.000 A 
ATOM     29  C   UNL     1       1.336  11.484  18.753  0.00  0.00    +0.000 A 
ATOM     30  C   UNL     1       1.864  10.547  17.842  0.00  0.00    +0.000 A 
ATOM     31  C   UNL     1       2.025   9.202  18.203  0.00  0.00    +0.000 A 
ATOM     32  C   UNL     1       1.660   8.827  19.484  0.00  0.00    +0.000 A 
ATOM     33  H   UNL     1       2.824   6.533  18.743  0.00  0.00    +0.000 HD
ENDBRANCH  20  21
ENDBRANCH   3  20
TORSDOF 6
ENDMDL
MODEL 4
REMARK VINA RESULT:      -8.8      1.755      2.286
REMARK  Name = 
REMARK  6 active torsions:
REMARK  status: ('A' for Active; 'I' for Inactive)
REMARK    1  A    between atoms: C_2  and  C_4
REMARK    2  A    between atoms: N_7  and  C_8
REMARK    3  A    between atoms: C_10  and  C_11
REMARK    4  A    between atoms: C_11  and  N_12
REMARK    5  A    between atoms: C_24  and  O_25
REMARK    6  A    between atoms: C_26  and  O_27
REMARK                            x       y       z     vdW  Elec       q    Type
REMARK                         _______ _______ _______ _____ _____    ______ ____
ROOT
ATOM      1  C   UNL     1       4.078   3.690  17.702  0.00  0.00    +0.000 C 
ATOM      2  O   UNL     1       3.123   4.784  17.720  0.00  0.00    +0.000 OA
ATOM      3  C   UNL     1       2.625   4.938  19.073  0.00  0.00    +0.000 C 
ATOM      4  C   UNL     1       3.070   3.691  19.835  0.00  0.00    +0.000 C 
ATOM      5  C   UNL     1       4.367   3.298  19.147  0.00  0.00    +0.000 C 
ENDROOT
BRANCH   1   9
ATOM      6  C   UNL     1       6.565   4.495  15.366  0.00  0.00    +0.000 A 
ATOM      7  N   UNL     1       7.299   4.720  16.516  0.00  0.00    +0.000 NA
ATOM      8  C   UNL     1       6.454   4.462  17.483  0.00  0.00    +0.000 A 
ATOM      9  N   UNL     1       5.262   4.078  16.958  0.00  0.00    +0.000 N 
ATOM     10  N   UNL     1       5.291   4.101  15.606  0.00  0.00    +0.000 NA
BRANCH   6  12
ATOM     11  N   UNL     1       6.608   3.801  13.073  0.00  0.00    +0.000 N 
ATOM     12  C   UNL     1       7.111   4.672  14.004  0.00  0.00    +0.000 C 
ATOM     13  O   UNL     1       7.945   5.516  13.686  0.00  0.00    +0.000 OA
ATOM     14  H   UNL     1       6.931   3.857  12.120  0.00  0.00    +0.000 HD
ATOM     15  H   UNL     1       5.915   3.116  13.349  0.00  0.00    +0.000 HD
ENDBRANCH   6  12
ENDBRANCH   1   9
BRANCH   4  16
ATOM     16  O   UNL     1       2.138   2.604  19.657  0.00  0.00    +0.000 OA
ATOM     17  H   UNL     1       2.121   2.055  20.463  0.00  0.00    +0.000 HD
ENDBRANCH   4  16
BRANCH   5  18
ATOM     18  O   UNL     1       4.624   1.899  19.286  0.00  0.00    +0.000 OA
ATOM     19  H   UNL     1       3.951   1.437  18.741  0.00  0.00    +0.000 HD
ENDBRANCH   5  18
BRANCH   3  20
ATOM     20  C   UNL     1       3.159   6.247  19.680  0.00  0.00    +0.000 C 
BRANCH  20  21
ATOM     21  N   UNL     1       2.365   7.371  19.189  0.00  0.00    +0.000 N 
ATOM     22  C   UNL     1       1.580   8.128  20.028  0.00  0.00    +0.000 C 
ATOM     23  N   UNL     1       1.436   7.889  21.300  0.00  0.00    +0.000 NA
ATOM     24  S   UNL     1       0.437   8.995  21.995  0.00  0.00    +0.000 S 
ATOM     25  O   UNL     1       1.197   9.887  22.844  0.00  0.00    +0.000 OA
ATOM     26  O   UNL     1      -0.790   8.362  22.426  0.00  0.00    +0.000 OA
ATOM     27  C   UNL     1       0.085   9.859  20.528  0.00  0.00    +0.000 A 
ATOM     28  C   UNL     1      -0.791  10.911  20.340  0.00  0.00    +0.000 A 
ATOM     29  C   UNL     1      -0.922  11.395  19.037  0.00  0.00    +0.000 A 
ATOM     30  C   UNL     1      -0.183  10.825  17.982  0.00  0.00    +0.000 A 
ATOM     31  C   UNL     1       0.690   9.751  18.210  0.00  0.00    +0.000 A 
ATOM     32  C   UNL     1       0.810   9.279  19.505  0.00  0.00    +0.000 A 
ATOM     33  H   UNL     1       2.794   7.858  18.405  0.00  0.00    +0.000 HD
ENDBRANCH  20  21
ENDBRANCH   3  20
TORSDOF 6
ENDMDL
MODEL 5
REMARK VINA RESULT:      -8.8      1.710      2.104
REMARK  Name = 
REMARK  6 active torsions:
REMARK  status: ('A' for Active; 'I' for Inactive)
REMARK    1  A    between atoms: C_2  and  C_4
REMARK    2  A    between atoms: N_7  and  C_8
REMARK    3  A    between atoms: C_10  and  C_11
REMARK    4  A    between atoms: C_11  and  N_12
REMARK    5  A    between atoms: C_24  and  O_25
REMARK    6  A    between atoms: C_26  and  O_27
REMARK                            x       y       z     vdW  Elec       q    Type
REMARK                         _______ _______ _______ _____ _____    ______ ____
ROOT
ATOM      1  C   UNL     1       2.787   3.944  18.661  0.00  0.00    +0.000 C 
ATOM      2  O   UNL     1       2.029   5.180  18.583  0.00  0.00    +0.000 OA
ATOM      3  C   UNL     1       1.647   5.571  19.926  0.00  0.00    +0.000 C 
ATOM      4  C   UNL     1       1.925   4.363  20.817  0.00  0.00    +0.000 C 
ATOM      5  C   UNL     1       3.095   3.676  20.131  0.00  0.00    +0.000 C 
ENDROOT
BRANCH   1   9
ATOM      6  C   UNL     1       5.933   4.423  17.190  0.00  0.00    +0.000 A 
ATOM      7  N   UNL     1       5.278   3.911  16.085  0.00  0.00    +0.000 NA
ATOM      8  C   UNL     1       4.067   3.671  16.522  0.00  0.00    +0.000 A 
ATOM      9  N   UNL     1       3.971   4.035  17.827  0.00  0.00    +0.000 N 
ATOM     10  N   UNL     1       5.150   4.506  18.293  0.00  0.00    +0.000 NA
BRANCH   6  12
ATOM     11  N   UNL     1       7.587   6.047  16.583  0.00  0.00    +0.000 N 
ATOM     12  C   UNL     1       7.353   4.834  17.177  0.00  0.00    +0.000 C 
ATOM     13  O   UNL     1       8.279   4.178  17.648  0.00  0.00    +0.000 OA
ATOM     14  H   UNL     1       8.530   6.398  16.533  0.00  0.00    +0.000 HD
ATOM     15  H   UNL     1       6.811   6.580  16.207  0.00  0.00    +0.000 HD
ENDBRANCH   6  12
ENDBRANCH   1   9
BRANCH   4  16
ATOM     16  O   UNL     1       0.818   3.438  20.813  0.00  0.00    +0.000 OA
ATOM     17  H   UNL     1       0.060   3.838  20.347  0.00  0.00    +0.000 HD
ENDBRANCH   4  16
BRANCH   5  18
ATOM     18  O   UNL     1       3.125   2.279  20.430  0.00  0.00    +0.000 OA
ATOM     19  H   UNL     1       2.194   2.005  20.573  0.00  0.00    +0.000 HD
ENDBRANCH   5  18
BRANCH   3  20
ATOM     20  C   UNL     1       2.427   6.830  20.344  0.00  0.00    +0.000 C 
BRANCH  20  21
ATOM     21  N   UNL     1       1.554   7.709  21.118  0.00  0.00    +0.000 N 
ATOM     22  C   UNL     1       1.001   8.846  20.575  0.00  0.00    +0.000 C 
ATOM     23  N   UNL     1       1.236   9.262  19.364  0.00  0.00    +0.000 NA
ATOM     24  S   UNL     1       0.403  10.643  19.046  0.00  0.00    +0.000 S 
ATOM     25  O   UNL     1      -0.675  10.371  18.119  0.00  0.00    +0.000 OA
ATOM     26  O   UNL     1       1.315  11.753  18.880  0.00  0.00    +0.000 OA
ATOM     27  C   UNL     1      -0.307  10.788  20.627  0.00  0.00    +0.000 A 
ATOM     28  C   UNL     1      -1.096  11.807  21.124  0.00  0.00    +0.000 A 
ATOM     29  C   UNL     1      -1.499  11.698  22.456  0.00  0.00    +0.000 A 
ATOM     30  C   UNL     1      -1.108  10.592  23.236  0.00  0.00    +0.000 A 
ATOM     31  C   UNL     1      -0.298   9.581  22.699  0.00  0.00    +0.000 A 
ATOM     32  C   UNL     1       0.096   9.700  21.378  0.00  0.00    +0.000 A 
ATOM     33  H   UNL     1       0.995   7.216  21.811  0.00  0.00    +0.000 HD
ENDBRANCH  20  21
ENDBRANCH   3  20
TORSDOF 6
ENDMDL
MODEL 6
REMARK VINA RESULT:      -8.7      1.014      1.030
REMARK  Name = 
REMARK  6 active torsions:
REMARK  status: ('A' for Active; 'I' for Inactive)
REMARK    1  A    between atoms: C_2  and  C_4
REMARK    2  A    between atoms: N_7  and  C_8
REMARK    3  A    between atoms: C_10  and  C_11
REMARK    4  A    between atoms: C_11  and  N_12
REMARK    5  A    between atoms: C_24  and  O_25
REMARK    6  A    between atoms: C_26  and  O_27
REMARK                            x       y       z     vdW  Elec       q    Type
REMARK                         _______ _______ _______ _____ _____    ______ ____
ROOT
ATOM      1  C   UNL     1       3.427   4.097  18.001  0.00  0.00    +0.000 C 
ATOM      2  O   UNL     1       2.637   5.307  17.858  0.00  0.00    +0.000 OA
ATOM      3  C   UNL     1       2.125   5.679  19.163  0.00  0.00    +0.000 C 
ATOM      4  C   UNL     1       2.366   4.477  20.073  0.00  0.00    +0.000 C 
ATOM      5  C   UNL     1       3.614   3.834  19.492  0.00  0.00    +0.000 C 
ENDROOT
BRANCH   1   9
ATOM      6  C   UNL     1       6.060   4.354  15.700  0.00  0.00    +0.000 A 
ATOM      7  N   UNL     1       6.805   4.458  16.861  0.00  0.00    +0.000 NA
ATOM      8  C   UNL     1       5.910   4.390  17.815  0.00  0.00    +0.000 A 
ATOM      9  N   UNL     1       4.675   4.232  17.273  0.00  0.00    +0.000 N 
ATOM     10  N   UNL     1       4.730   4.220  15.922  0.00  0.00    +0.000 NA
BRANCH   6  12
ATOM     11  N   UNL     1       7.636   5.334  14.184  0.00  0.00    +0.000 N 
ATOM     12  C   UNL     1       6.652   4.393  14.347  0.00  0.00    +0.000 C 
ATOM     13  O   UNL     1       6.324   3.663  13.415  0.00  0.00    +0.000 OA
ATOM     14  H   UNL     1       8.089   5.424  13.289  0.00  0.00    +0.000 HD
ATOM     15  H   UNL     1       7.901   5.923  14.965  0.00  0.00    +0.000 HD
ENDBRANCH   6  12
ENDBRANCH   1   9
BRANCH   4  16
ATOM     16  O   UNL     1       1.296   3.514  19.972  0.00  0.00    +0.000 OA
ATOM     17  H   UNL     1       1.533   2.831  19.318  0.00  0.00    +0.000 HD
ENDBRANCH   4  16
BRANCH   5  18
ATOM     18  O   UNL     1       3.667   2.437  19.791  0.00  0.00    +0.000 OA
ATOM     19  H   UNL     1       4.232   2.026  19.101  0.00  0.00    +0.000 HD
ENDBRANCH   5  18
BRANCH   3  20
ATOM     20  C   UNL     1       2.821   6.962  19.649  0.00  0.00    +0.000 C 
BRANCH  20  21
ATOM     21  N   UNL     1       1.948   7.665  20.586  0.00  0.00    +0.000 N 
ATOM     22  C   UNL     1       1.261   8.802  20.225  0.00  0.00    +0.000 C 
ATOM     23  N   UNL     1       1.361   9.372  19.059  0.00  0.00    +0.000 NA
ATOM     24  S   UNL     1       0.395  10.700  18.972  0.00  0.00    +0.000 S 
ATOM     25  O   UNL     1      -0.731  10.440  18.100  0.00  0.00    +0.000 OA
ATOM     26  O   UNL     1       1.198  11.899  18.874  0.00  0.00    +0.000 OA
ATOM     27  C   UNL     1      -0.190  10.600  20.606  0.00  0.00    +0.000 A 
ATOM     28  C   UNL     1      -1.015  11.481  21.279  0.00  0.00    +0.000 A 
ATOM     29  C   UNL     1      -1.295  11.186  22.614  0.00  0.00    +0.000 A 
ATOM     30  C   UNL     1      -0.752  10.038  23.224  0.00  0.00    +0.000 A 
ATOM     31  C   UNL     1       0.089   9.171  22.511  0.00  0.00    +0.000 A 
ATOM     32  C   UNL     1       0.361   9.475  21.189  0.00  0.00    +0.000 A 
ATOM     33  H   UNL     1       1.490   7.048  21.253  0.00  0.00    +0.000 HD
ENDBRANCH  20  21
ENDBRANCH   3  20
TORSDOF 6
ENDMDL
MODEL 7
REMARK VINA RESULT:      -8.6      1.214      1.289
REMARK  Name = 
REMARK  6 active torsions:
REMARK  status: ('A' for Active; 'I' for Inactive)
REMARK    1  A    between atoms: C_2  and  C_4
REMARK    2  A    between atoms: N_7  and  C_8
REMARK    3  A    between atoms: C_10  and  C_11
REMARK    4  A    between atoms: C_11  and  N_12
REMARK    5  A    between atoms: C_24  and  O_25
REMARK    6  A    between atoms: C_26  and  O_27
REMARK                            x       y       z     vdW  Elec       q    Type
REMARK                         _______ _______ _______ _____ _____    ______ ____
ROOT
ATOM      1  C   UNL     1       3.012   4.618  17.632  0.00  0.00    +0.000 C 
ATOM      2  O   UNL     1       2.244   5.748  18.124  0.00  0.00    +0.000 OA
ATOM      3  C   UNL     1       1.986   5.548  19.537  0.00  0.00    +0.000 C 
ATOM      4  C   UNL     1       2.351   4.096  19.835  0.00  0.00    +0.000 C 
ATOM      5  C   UNL     1       3.455   3.794  18.836  0.00  0.00    +0.000 C 
ENDROOT
BRANCH   1   9
ATOM      6  C   UNL     1       5.719   5.111  15.460  0.00  0.00    +0.000 A 
ATOM      7  N   UNL     1       5.594   6.411  15.914  0.00  0.00    +0.000 NA
ATOM      8  C   UNL     1       4.580   6.360  16.740  0.00  0.00    +0.000 A 
ATOM      9  N   UNL     1       4.113   5.086  16.811  0.00  0.00    +0.000 N 
ATOM     10  N   UNL     1       4.808   4.262  15.994  0.00  0.00    +0.000 NA
BRANCH   6  12
ATOM     11  N   UNL     1       6.420   3.551  13.782  0.00  0.00    +0.000 N 
ATOM     12  C   UNL     1       6.743   4.684  14.483  0.00  0.00    +0.000 C 
ATOM     13  O   UNL     1       7.806   5.265  14.279  0.00  0.00    +0.000 OA
ATOM     14  H   UNL     1       7.067   3.195  13.097  0.00  0.00    +0.000 HD
ATOM     15  H   UNL     1       5.536   3.088  13.956  0.00  0.00    +0.000 HD
ENDBRANCH   6  12
ENDBRANCH   1   9
BRANCH   4  16
ATOM     16  O   UNL     1       1.252   3.205  19.549  0.00  0.00    +0.000 OA
ATOM     17  H   UNL     1       1.512   2.584  18.844  0.00  0.00    +0.000 HD
ENDBRANCH   4  16
BRANCH   5  18
ATOM     18  O   UNL     1       3.520   2.397  18.540  0.00  0.00    +0.000 OA
ATOM     19  H   UNL     1       4.385   2.245  18.101  0.00  0.00    +0.000 HD
ENDBRANCH   5  18
BRANCH   3  20
ATOM     20  C   UNL     1       2.795   6.563  20.363  0.00  0.00    +0.000 C 
BRANCH  20  21
ATOM     21  N   UNL     1       1.880   7.419  21.115  0.00  0.00    +0.000 N 
ATOM     22  C   UNL     1       1.312   8.542  20.558  0.00  0.00    +0.000 C 
ATOM     23  N   UNL     1       1.567   8.964  19.353  0.00  0.00    +0.000 NA
ATOM     24  S   UNL     1       0.707  10.323  19.014  0.00  0.00    +0.000 S 
ATOM     25  O   UNL     1      -0.339  10.025  18.059  0.00  0.00    +0.000 OA
ATOM     26  O   UNL     1       1.594  11.457  18.871  0.00  0.00    +0.000 OA
ATOM     27  C   UNL     1      -0.047  10.449  20.575  0.00  0.00    +0.000 A 
ATOM     28  C   UNL     1      -0.874  11.447  21.052  0.00  0.00    +0.000 A 
ATOM     29  C   UNL     1      -1.308  11.327  22.373  0.00  0.00    +0.000 A 
ATOM     30  C   UNL     1      -0.909  10.231  23.164  0.00  0.00    +0.000 A 
ATOM     31  C   UNL     1      -0.059   9.241  22.647  0.00  0.00    +0.000 A 
ATOM     32  C   UNL     1       0.365   9.372  21.337  0.00  0.00    +0.000 A 
ATOM     33  H   UNL     1       1.316   6.911  21.793  0.00  0.00    +0.000 HD
ENDBRANCH  20  21
ENDBRANCH   3  20
TORSDOF 6
ENDMDL
MODEL 8
REMARK VINA RESULT:      -8.6      1.173      1.204
REMARK  Name = 
REMARK  6 active torsions:
REMARK  status: ('A' for Active; 'I' for Inactive)
REMARK    1  A    between atoms: C_2  and  C_4
REMARK    2  A    between atoms: N_7  and  C_8
REMARK    3  A    between atoms: C_10  and  C_11
REMARK    4  A    between atoms: C_11  and  N_12
REMARK    5  A    between atoms: C_24  and  O_25
REMARK    6  A    between atoms: C_26  and  O_27
REMARK                            x       y       z     vdW  Elec       q    Type
REMARK                         _______ _______ _______ _____ _____    ______ ____
ROOT
ATOM      1  C   UNL     1       3.810   4.648  17.768  0.00  0.00    +0.000 C 
ATOM      2  O   UNL     1       2.606   5.459  17.808  0.00  0.00    +0.000 OA
ATOM      3  C   UNL     1       2.382   5.882  19.177  0.00  0.00    +0.000 C 
ATOM      4  C   UNL     1       3.318   5.042  20.042  0.00  0.00    +0.000 C 
ATOM      5  C   UNL     1       4.498   4.765  19.125  0.00  0.00    +0.000 C 
ENDROOT
BRANCH   1   9
ATOM      6  C   UNL     1       5.889   4.981  14.965  0.00  0.00    +0.000 A 
ATOM      7  N   UNL     1       5.758   6.323  15.271  0.00  0.00    +0.000 NA
ATOM      8  C   UNL     1       4.971   6.332  16.318  0.00  0.00    +0.000 A 
ATOM      9  N   UNL     1       4.646   5.057  16.655  0.00  0.00    +0.000 N 
ATOM     10  N   UNL     1       5.203   4.166  15.804  0.00  0.00    +0.000 NA
BRANCH   6  12
ATOM     11  N   UNL     1       7.841   5.186  13.592  0.00  0.00    +0.000 N 
ATOM     12  C   UNL     1       6.692   4.478  13.831  0.00  0.00    +0.000 C 
ATOM     13  O   UNL     1       6.395   3.512  13.133  0.00  0.00    +0.000 OA
ATOM     14  H   UNL     1       8.444   4.907  12.834  0.00  0.00    +0.000 HD
ATOM     15  H   UNL     1       8.076   5.976  14.181  0.00  0.00    +0.000 HD
ENDBRANCH   6  12
ENDBRANCH   1   9
BRANCH   4  16
ATOM     16  O   UNL     1       2.725   3.770  20.380  0.00  0.00    +0.000 OA
ATOM     17  H   UNL     1       3.404   3.187  20.768  0.00  0.00    +0.000 HD
ENDBRANCH   4  16
BRANCH   5  18
ATOM     18  O   UNL     1       5.172   3.561  19.495  0.00  0.00    +0.000 OA
ATOM     19  H   UNL     1       4.843   2.861  18.890  0.00  0.00    +0.000 HD
ENDBRANCH   5  18
BRANCH   3  20
ATOM     20  C   UNL     1       2.630   7.396  19.301  0.00  0.00    +0.000 C 
BRANCH  20  21
ATOM     21  N   UNL     1       1.779   7.945  20.354  0.00  0.00    +0.000 N 
ATOM     22  C   UNL     1       1.121   9.144  20.205  0.00  0.00    +0.000 C 
ATOM     23  N   UNL     1       1.231   9.908  19.156  0.00  0.00    +0.000 NA
ATOM     24  S   UNL     1       0.299  11.254  19.312  0.00  0.00    +0.000 S 
ATOM     25  O   UNL     1      -0.836  11.180  18.416  0.00  0.00    +0.000 OA
ATOM     26  O   UNL     1       1.133  12.431  19.420  0.00  0.00    +0.000 OA
ATOM     27  C   UNL     1      -0.282  10.883  20.907  0.00  0.00    +0.000 A 
ATOM     28  C   UNL     1      -1.081  11.652  21.731  0.00  0.00    +0.000 A 
ATOM     29  C   UNL     1      -1.364  11.133  22.996  0.00  0.00    +0.000 A 
ATOM     30  C   UNL     1      -0.849   9.882  23.390  0.00  0.00    +0.000 A 
ATOM     31  C   UNL     1      -0.033   9.134  22.529  0.00  0.00    +0.000 A 
ATOM     32  C   UNL     1       0.242   9.659  21.279  0.00  0.00    +0.000 A 
ATOM     33  H   UNL     1       1.307   7.231  20.906  0.00  0.00    +0.000 HD
ENDBRANCH  20  21
ENDBRANCH   3  20
TORSDOF 6
ENDMDL
MODEL 9
REMARK VINA RESULT:      -8.6      2.477      4.381
REMARK  Name = 
REMARK  6 active torsions:
REMARK  status: ('A' for Active; 'I' for Inactive)
REMARK    1  A    between atoms: C_2  and  C_4
REMARK    2  A    between atoms: N_7  and  C_8
REMARK    3  A    between atoms: C_10  and  C_11
REMARK    4  A    between atoms: C_11  and  N_12
REMARK    5  A    between atoms: C_24  and  O_25
REMARK    6  A    between atoms: C_26  and  O_27
REMARK                            x       y       z     vdW  Elec       q    Type
REMARK                         _______ _______ _______ _____ _____    ______ ____
ROOT
ATOM      1  C   UNL     1       5.042   4.899  18.459  0.00  0.00    +0.000 C 
ATOM      2  O   UNL     1       4.696   6.261  18.825  0.00  0.00    +0.000 OA
ATOM      3  C   UNL     1       4.463   7.017  17.609  0.00  0.00    +0.000 C 
ATOM      4  C   UNL     1       4.986   6.155  16.463  0.00  0.00    +0.000 C 
ATOM      5  C   UNL     1       4.782   4.735  16.965  0.00  0.00    +0.000 C 
ENDROOT
BRANCH   1   9
ATOM      6  C   UNL     1       2.776   3.104  20.444  0.00  0.00    +0.000 A 
ATOM      7  N   UNL     1       3.809   2.185  20.449  0.00  0.00    +0.000 NA
ATOM      8  C   UNL     1       4.733   2.746  19.709  0.00  0.00    +0.000 A 
ATOM      9  N   UNL     1       4.301   3.962  19.283  0.00  0.00    +0.000 N 
ATOM     10  N   UNL     1       3.047   4.218  19.722  0.00  0.00    +0.000 NA
BRANCH   6  12
ATOM     11  N   UNL     1       0.381   3.102  20.381  0.00  0.00    +0.000 N 
ATOM     12  C   UNL     1       1.496   2.893  21.151  0.00  0.00    +0.000 C 
ATOM     13  O   UNL     1       1.390   2.557  22.328  0.00  0.00    +0.000 OA
ATOM     14  H   UNL     1      -0.531   2.979  20.790  0.00  0.00    +0.000 HD
ATOM     15  H   UNL     1       0.486   3.370  19.409  0.00  0.00    +0.000 HD
ENDBRANCH   6  12
ENDBRANCH   1   9
BRANCH   4  16
ATOM     16  O   UNL     1       6.402   6.345  16.263  0.00  0.00    +0.000 OA
ATOM     17  H   UNL     1       6.684   7.174  16.693  0.00  0.00    +0.000 HD
ENDBRANCH   4  16
BRANCH   5  18
ATOM     18  O   UNL     1       5.705   3.831  16.353  0.00  0.00    +0.000 OA
ATOM     19  H   UNL     1       5.615   3.956  15.383  0.00  0.00    +0.000 HD
ENDBRANCH   5  18
BRANCH   3  20
ATOM     20  C   UNL     1       2.967   7.356  17.486  0.00  0.00    +0.000 C 
BRANCH  20  21
ATOM     21  N   UNL     1       2.441   7.726  18.797  0.00  0.00    +0.000 N 
ATOM     22  C   UNL     1       1.530   8.746  18.954  0.00  0.00    +0.000 C 
ATOM     23  N   UNL     1       1.098   9.491  17.978  0.00  0.00    +0.000 NA
ATOM     24  S   UNL     1       0.013  10.600  18.522  0.00  0.00    +0.000 S 
ATOM     25  O   UNL     1      -1.319  10.255  18.073  0.00  0.00    +0.000 OA
ATOM     26  O   UNL     1       0.557  11.935  18.402  0.00  0.00    +0.000 OA
ATOM     27  C   UNL     1       0.122  10.145  20.197  0.00  0.00    +0.000 A 
ATOM     28  C   UNL     1      -0.484  10.736  21.289  0.00  0.00    +0.000 A 
ATOM     29  C   UNL     1      -0.187  10.197  22.541  0.00  0.00    +0.000 A 
ATOM     30  C   UNL     1       0.690   9.101  22.661  0.00  0.00    +0.000 A 
ATOM     31  C   UNL     1       1.294   8.533  21.530  0.00  0.00    +0.000 A 
ATOM     32  C   UNL     1       0.994   9.077  20.294  0.00  0.00    +0.000 A 
ATOM     33  H   UNL     1       2.358   6.939  19.437  0.00  0.00    +0.000 HD
ENDBRANCH  20  21
ENDBRANCH   3  20
TORSDOF 6
ENDMDL
