MODEL 1
REMARK VINA RESULT:      -7.5      0.000      0.000
REMARK  Name = 
REMARK  8 active torsions:
REMARK  status: ('A' for Active; 'I' for Inactive)
REMARK    1  A    between atoms: C_1  and  O_2
REMARK    2  A    between atoms: O_2  and  C_3
REMARK    3  A    between atoms: C_6  and  S_7
REMARK    4  A    between atoms: S_7  and  N_10
REMARK    5  A    between atoms: N_10  and  C_11
REMARK    6  A    between atoms: C_16  and  C_17
REMARK    7  A    between atoms: C_21  and  O_22
REMARK    8  A    between atoms: O_22  and  C_23
REMARK                            x       y       z     vdW  Elec       q    Type
REMARK                         _______ _______ _______ _____ _____    ______ ____
ROOT
ATOM      1  S   UNL     1       3.682   3.143  17.742  0.00  0.00    +0.000 S 
ATOM      2  O   UNL     1       2.485   3.741  17.189  0.00  0.00    +0.000 OA
ATOM      3  O   UNL     1       3.809   1.702  17.842  0.00  0.00    +0.000 OA
ENDROOT
BRANCH   1   7
ATOM      4  C   UNL     1       6.959   4.966  15.110  0.00  0.00    +0.000 A 
ATOM      5  C   UNL     1       6.039   4.045  14.576  0.00  0.00    +0.000 A 
ATOM      6  C   UNL     1       5.064   3.449  15.379  0.00  0.00    +0.000 A 
ATOM      7  C   UNL     1       5.043   3.722  16.742  0.00  0.00    +0.000 A 
ATOM      8  C   UNL     1       5.992   4.591  17.296  0.00  0.00    +0.000 A 
ATOM      9  C   UNL     1       6.961   5.219  16.491  0.00  0.00    +0.000 A 
BRANCH   4  11
ATOM     10  C   UNL     1       7.856   5.153  12.938  0.00  0.00    +0.000 C 
ATOM     11  O   UNL     1       7.855   5.612  14.293  0.00  0.00    +0.000 OA
ENDBRANCH   4  11
BRANCH   9  12
ATOM     12  O   UNL     1       7.760   6.058  17.217  0.00  0.00    +0.000 OA
ATOM     13  C   UNL     1       7.642   6.106  18.630  0.00  0.00    +0.000 C 
ENDBRANCH   9  12
ENDBRANCH   1   7
BRANCH   1  14
ATOM     14  N   UNL     1       3.931   3.854  19.264  0.00  0.00    +0.000 N 
ATOM     15  H   UNL     1       3.922   3.123  19.994  0.00  0.00    +0.000 HD
BRANCH  14  16
ATOM     16  C   UNL     1       3.104   4.974  19.639  0.00  0.00    +0.000 A 
ATOM     17  C   UNL     1       3.409   6.215  19.058  0.00  0.00    +0.000 A 
ATOM     18  C   UNL     1       2.696   7.364  19.415  0.00  0.00    +0.000 A 
ATOM     19  C   UNL     1       1.642   7.275  20.320  0.00  0.00    +0.000 A 
ATOM     20  C   UNL     1       1.313   6.044  20.889  0.00  0.00    +0.000 A 
ATOM     21  C   UNL     1       2.046   4.887  20.561  0.00  0.00    +0.000 A 
BRANCH  21  22
ATOM     22  C   UNL     1       1.784   3.617  21.280  0.00  0.00    +0.000 C 
ATOM     23  N   UNL     1       0.715   2.856  20.896  0.00  0.00    +0.000 N 
ATOM     24  O   UNL     1       2.519   3.253  22.197  0.00  0.00    +0.000 OA
ATOM     25  H   UNL     1       0.170   3.022  20.061  0.00  0.00    +0.000 HD
ATOM     26  H   UNL     1       0.566   1.987  21.391  0.00  0.00    +0.000 HD
ENDBRANCH  21  22
ENDBRANCH  14  16
ENDBRANCH   1  14
TORSDOF 6
ENDMDL
MODEL 2
REMARK VINA RESULT:      -7.5      1.185      1.272
REMARK  Name = 
REMARK  8 active torsions:
REMARK  status: ('A' for Active; 'I' for Inactive)
REMARK    1  A    between atoms: C_1  and  O_2
REMARK    2  A    between atoms: O_2  and  C_3
REMARK    3  A    between atoms: C_6  and  S_7
REMARK    4  A    between atoms: S_7  and  N_10
REMARK    5  A    between atoms: N_10  and  C_11
REMARK    6  A    between atoms: C_16  and  C_17
REMARK    7  A    between atoms: C_21  and  O_22
REMARK    8  A    between atoms: O_22  and  C_23
REMARK                            x       y       z     vdW  Elec       q    Type
REMARK                         _______ _______ _______ _____ _____    ______ ____
ROOT
ATOM      1  S   UNL     1       4.130   3.363  17.972  0.00  0.00    +0.000 S 
ATOM      2  O   UNL     1       3.791   2.009  17.591  0.00  0.00    +0.000 OA
ATOM      3  O   UNL     1       4.622   3.655  19.305  0.00  0.00    +0.000 OA
ENDROOT
BRANCH   1   7
ATOM      4  C   UNL     1       7.060   5.041  14.874  0.00  0.00    +0.000 A 
ATOM      5  C   UNL     1       6.333   3.865  14.612  0.00  0.00    +0.000 A 
ATOM      6  C   UNL     1       5.471   3.319  15.566  0.00  0.00    +0.000 A 
ATOM      7  C   UNL     1       5.379   3.914  16.820  0.00  0.00    +0.000 A 
ATOM      8  C   UNL     1       6.143   5.050  17.113  0.00  0.00    +0.000 A 
ATOM      9  C   UNL     1       6.992   5.625  16.150  0.00  0.00    +0.000 A 
BRANCH   4  11
ATOM     10  C   UNL     1       7.671   5.041  12.598  0.00  0.00    +0.000 C 
ATOM     11  O   UNL     1       7.835   5.616  13.897  0.00  0.00    +0.000 OA
ENDBRANCH   4  11
BRANCH   9  12
ATOM     12  O   UNL     1       7.612   6.749  16.622  0.00  0.00    +0.000 OA
ATOM     13  C   UNL     1       7.654   7.004  18.017  0.00  0.00    +0.000 C 
ENDBRANCH   9  12
ENDBRANCH   1   7
BRANCH   1  14
ATOM     14  N   UNL     1       2.774   4.327  17.632  0.00  0.00    +0.000 N 
ATOM     15  H   UNL     1       2.857   4.721  16.681  0.00  0.00    +0.000 HD
BRANCH  14  16
ATOM     16  C   UNL     1       2.402   5.344  18.585  0.00  0.00    +0.000 A 
ATOM     17  C   UNL     1       2.727   6.671  18.261  0.00  0.00    +0.000 A 
ATOM     18  C   UNL     1       2.458   7.710  19.157  0.00  0.00    +0.000 A 
ATOM     19  C   UNL     1       1.820   7.439  20.365  0.00  0.00    +0.000 A 
ATOM     20  C   UNL     1       1.472   6.128  20.691  0.00  0.00    +0.000 A 
ATOM     21  C   UNL     1       1.769   5.070  19.809  0.00  0.00    +0.000 A 
BRANCH  21  22
ATOM     22  C   UNL     1       1.528   3.668  20.228  0.00  0.00    +0.000 C 
ATOM     23  N   UNL     1       2.227   3.174  21.293  0.00  0.00    +0.000 N 
ATOM     24  O   UNL     1       0.708   2.969  19.634  0.00  0.00    +0.000 OA
ATOM     25  H   UNL     1       2.796   3.738  21.911  0.00  0.00    +0.000 HD
ATOM     26  H   UNL     1       2.035   2.221  21.570  0.00  0.00    +0.000 HD
ENDBRANCH  21  22
ENDBRANCH  14  16
ENDBRANCH   1  14
TORSDOF 6
ENDMDL
MODEL 3
REMARK VINA RESULT:      -7.4      1.175      2.416
REMARK  Name = 
REMARK  8 active torsions:
REMARK  status: ('A' for Active; 'I' for Inactive)
REMARK    1  A    between atoms: C_1  and  O_2
REMARK    2  A    between atoms: O_2  and  C_3
REMARK    3  A    between atoms: C_6  and  S_7
REMARK    4  A    between atoms: S_7  and  N_10
REMARK    5  A    between atoms: N_10  and  C_11
REMARK    6  A    between atoms: C_16  and  C_17
REMARK    7  A    between atoms: C_21  and  O_22
REMARK    8  A    between atoms: O_22  and  C_23
REMARK                            x       y       z     vdW  Elec       q    Type
REMARK                         _______ _______ _______ _____ _____    ______ ____
ROOT
ATOM      1  S   UNL     1       3.958   2.873  18.363  0.00  0.00    +0.000 S 
ATOM      2  O   UNL     1       4.017   1.954  17.247  0.00  0.00    +0.000 OA
ATOM      3  O   UNL     1       4.349   2.444  19.693  0.00  0.00    +0.000 OA
ENDROOT
BRANCH   1   7
ATOM      4  C   UNL     1       6.927   6.163  17.200  0.00  0.00    +0.000 A 
ATOM      5  C   UNL     1       6.675   5.868  18.553  0.00  0.00    +0.000 A 
ATOM      6  C   UNL     1       5.740   4.899  18.920  0.00  0.00    +0.000 A 
ATOM      7  C   UNL     1       4.998   4.259  17.933  0.00  0.00    +0.000 A 
ATOM      8  C   UNL     1       5.197   4.587  16.586  0.00  0.00    +0.000 A 
ATOM      9  C   UNL     1       6.157   5.541  16.203  0.00  0.00    +0.000 A 
BRANCH   4  11
ATOM     10  C   UNL     1       7.932   8.250  17.633  0.00  0.00    +0.000 C 
ATOM     11  O   UNL     1       7.913   7.054  16.850  0.00  0.00    +0.000 OA
ENDBRANCH   4  11
BRANCH   9  12
ATOM     12  O   UNL     1       6.223   5.682  14.844  0.00  0.00    +0.000 OA
ATOM     13  C   UNL     1       6.721   4.621  14.044  0.00  0.00    +0.000 C 
ENDBRANCH   9  12
ENDBRANCH   1   7
BRANCH   1  14
ATOM     14  N   UNL     1       2.384   3.508  18.399  0.00  0.00    +0.000 N 
ATOM     15  H   UNL     1       1.984   3.500  17.447  0.00  0.00    +0.000 HD
BRANCH  14  16
ATOM     16  C   UNL     1       2.176   4.784  19.039  0.00  0.00    +0.000 A 
ATOM     17  C   UNL     1       2.393   5.931  18.261  0.00  0.00    +0.000 A 
ATOM     18  C   UNL     1       2.275   7.206  18.822  0.00  0.00    +0.000 A 
ATOM     19  C   UNL     1       1.892   7.348  20.153  0.00  0.00    +0.000 A 
ATOM     20  C   UNL     1       1.652   6.216  20.934  0.00  0.00    +0.000 A 
ATOM     21  C   UNL     1       1.801   4.927  20.387  0.00  0.00    +0.000 A 
BRANCH  21  22
ATOM     22  C   UNL     1       1.686   3.735  21.261  0.00  0.00    +0.000 C 
ATOM     23  N   UNL     1       0.702   2.823  21.000  0.00  0.00    +0.000 N 
ATOM     24  O   UNL     1       2.467   3.568  22.197  0.00  0.00    +0.000 OA
ATOM     25  H   UNL     1       0.133   2.826  20.164  0.00  0.00    +0.000 HD
ATOM     26  H   UNL     1       0.654   2.011  21.600  0.00  0.00    +0.000 HD
ENDBRANCH  21  22
ENDBRANCH  14  16
ENDBRANCH   1  14
TORSDOF 6
ENDMDL
MODEL 4
REMARK VINA RESULT:      -7.3      2.161      6.028
REMARK  Name = 
REMARK  8 active torsions:
REMARK  status: ('A' for Active; 'I' for Inactive)
REMARK    1  A    between atoms: C_1  and  O_2
REMARK    2  A    between atoms: O_2  and  C_3
REMARK    3  A    between atoms: C_6  and  S_7
REMARK    4  A    between atoms: S_7  and  N_10
REMARK    5  A    between atoms: N_10  and  C_11
REMARK    6  A    between atoms: C_16  and  C_17
REMARK    7  A    between atoms: C_21  and  O_22
REMARK    8  A    between atoms: O_22  and  C_23
REMARK                            x       y       z     vdW  Elec       q    Type
REMARK                         _______ _______ _______ _____ _____    ______ ____
ROOT
ATOM      1  S   UNL     1       2.798   3.194  17.981  0.00  0.00    +0.000 S 
ATOM      2  O   UNL     1       2.260   2.098  18.758  0.00  0.00    +0.000 OA
ATOM      3  O   UNL     1       2.449   3.349  16.582  0.00  0.00    +0.000 OA
ENDROOT
BRANCH   1   7
ATOM      4  C   UNL     1       1.911   7.070  20.258  0.00  0.00    +0.000 A 
ATOM      5  C   UNL     1       1.594   5.818  20.819  0.00  0.00    +0.000 A 
ATOM      6  C   UNL     1       1.819   4.633  20.117  0.00  0.00    +0.000 A 
ATOM      7  C   UNL     1       2.304   4.694  18.814  0.00  0.00    +0.000 A 
ATOM      8  C   UNL     1       2.565   5.937  18.223  0.00  0.00    +0.000 A 
ATOM      9  C   UNL     1       2.370   7.136  18.933  0.00  0.00    +0.000 A 
BRANCH   4  11
ATOM     10  C   UNL     1       0.411   8.589  21.259  0.00  0.00    +0.000 C 
ATOM     11  O   UNL     1       1.768   8.221  20.994  0.00  0.00    +0.000 OA
ENDBRANCH   4  11
BRANCH   9  12
ATOM     12  O   UNL     1       2.724   8.230  18.193  0.00  0.00    +0.000 OA
ATOM     13  C   UNL     1       1.728   9.130  17.733  0.00  0.00    +0.000 C 
ENDBRANCH   9  12
ENDBRANCH   1   7
BRANCH   1  14
ATOM     14  N   UNL     1       4.487   3.141  18.154  0.00  0.00    +0.000 N 
ATOM     15  H   UNL     1       4.743   3.357  19.131  0.00  0.00    +0.000 HD
BRANCH  14  16
ATOM     16  C   UNL     1       5.293   3.895  17.226  0.00  0.00    +0.000 A 
ATOM     17  C   UNL     1       5.193   3.551  15.869  0.00  0.00    +0.000 A 
ATOM     18  C   UNL     1       5.987   4.191  14.911  0.00  0.00    +0.000 A 
ATOM     19  C   UNL     1       6.852   5.212  15.294  0.00  0.00    +0.000 A 
ATOM     20  C   UNL     1       6.946   5.579  16.637  0.00  0.00    +0.000 A 
ATOM     21  C   UNL     1       6.176   4.919  17.613  0.00  0.00    +0.000 A 
BRANCH  21  22
ATOM     22  C   UNL     1       6.390   5.216  19.050  0.00  0.00    +0.000 C 
ATOM     23  N   UNL     1       7.672   5.342  19.509  0.00  0.00    +0.000 N 
ATOM     24  O   UNL     1       5.433   5.354  19.811  0.00  0.00    +0.000 OA
ATOM     25  H   UNL     1       8.487   5.390  18.912  0.00  0.00    +0.000 HD
ATOM     26  H   UNL     1       7.792   5.560  20.488  0.00  0.00    +0.000 HD
ENDBRANCH  21  22
ENDBRANCH  14  16
ENDBRANCH   1  14
TORSDOF 6
ENDMDL
MODEL 5
REMARK VINA RESULT:      -7.2      2.693      3.654
REMARK  Name = 
REMARK  8 active torsions:
REMARK  status: ('A' for Active; 'I' for Inactive)
REMARK    1  A    between atoms: C_1  and  O_2
REMARK    2  A    between atoms: O_2  and  C_3
REMARK    3  A    between atoms: C_6  and  S_7
REMARK    4  A    between atoms: S_7  and  N_10
REMARK    5  A    between atoms: N_10  and  C_11
REMARK    6  A    between atoms: C_16  and  C_17
REMARK    7  A    between atoms: C_21  and  O_22
REMARK    8  A    between atoms: O_22  and  C_23
REMARK                            x       y       z     vdW  Elec       q    Type
REMARK                         _______ _______ _______ _____ _____    ______ ____
ROOT
ATOM      1  S   UNL     1       1.989   4.918  20.586  0.00  0.00    +0.000 S 
ATOM      2  O   UNL     1       0.654   4.964  20.030  0.00  0.00    +0.000 OA
ATOM      3  O   UNL     1       2.276   4.102  21.750  0.00  0.00    +0.000 OA
ENDROOT
BRANCH   1   7
ATOM      4  C   UNL     1       4.763   3.865  17.094  0.00  0.00    +0.000 A 
ATOM      5  C   UNL     1       3.370   3.692  16.983  0.00  0.00    +0.000 A 
ATOM      6  C   UNL     1       2.519   3.967  18.056  0.00  0.00    +0.000 A 
ATOM      7  C   UNL     1       3.064   4.357  19.275  0.00  0.00    +0.000 A 
ATOM      8  C   UNL     1       4.452   4.474  19.415  0.00  0.00    +0.000 A 
ATOM      9  C   UNL     1       5.317   4.227  18.333  0.00  0.00    +0.000 A 
BRANCH   4  11
ATOM     10  C   UNL     1       5.709   4.821  15.159  0.00  0.00    +0.000 C 
ATOM     11  O   UNL     1       5.579   3.676  16.006  0.00  0.00    +0.000 OA
ENDBRANCH   4  11
BRANCH   9  12
ATOM     12  O   UNL     1       6.626   4.440  18.667  0.00  0.00    +0.000 OA
ATOM     13  C   UNL     1       7.169   5.749  18.611  0.00  0.00    +0.000 C 
ENDBRANCH   9  12
ENDBRANCH   1   7
BRANCH   1  14
ATOM     14  N   UNL     1       2.461   6.524  20.873  0.00  0.00    +0.000 N 
ATOM     15  H   UNL     1       2.217   6.789  21.841  0.00  0.00    +0.000 HD
BRANCH  14  16
ATOM     16  C   UNL     1       2.044   7.537  19.935  0.00  0.00    +0.000 A 
ATOM     17  C   UNL     1       2.515   7.419  18.618  0.00  0.00    +0.000 A 
ATOM     18  C   UNL     1       2.209   8.393  17.662  0.00  0.00    +0.000 A 
ATOM     19  C   UNL     1       1.391   9.467  18.000  0.00  0.00    +0.000 A 
ATOM     20  C   UNL     1       0.897   9.585  19.300  0.00  0.00    +0.000 A 
ATOM     21  C   UNL     1       1.227   8.628  20.279  0.00  0.00    +0.000 A 
BRANCH  21  22
ATOM     22  C   UNL     1       0.818   8.840  21.689  0.00  0.00    +0.000 C 
ATOM     23  N   UNL     1      -0.475   8.576  22.043  0.00  0.00    +0.000 N 
ATOM     24  O   UNL     1       1.630   9.239  22.522  0.00  0.00    +0.000 OA
ATOM     25  H   UNL     1      -1.143   8.107  21.445  0.00  0.00    +0.000 HD
ATOM     26  H   UNL     1      -0.725   8.713  23.012  0.00  0.00    +0.000 HD
ENDBRANCH  21  22
ENDBRANCH  14  16
ENDBRANCH   1  14
TORSDOF 6
ENDMDL
MODEL 6
REMARK VINA RESULT:      -7.2      3.233      6.719
REMARK  Name = 
REMARK  8 active torsions:
REMARK  status: ('A' for Active; 'I' for Inactive)
REMARK    1  A    between atoms: C_1  and  O_2
REMARK    2  A    between atoms: O_2  and  C_3
REMARK    3  A    between atoms: C_6  and  S_7
REMARK    4  A    between atoms: S_7  and  N_10
REMARK    5  A    between atoms: N_10  and  C_11
REMARK    6  A    between atoms: C_16  and  C_17
REMARK    7  A    between atoms: C_21  and  O_22
REMARK    8  A    between atoms: O_22  and  C_23
REMARK                            x       y       z     vdW  Elec       q    Type
REMARK                         _______ _______ _______ _____ _____    ______ ____
ROOT
ATOM      1  S   UNL     1       2.410   5.802  19.732  0.00  0.00    +0.000 S 
ATOM      2  O   UNL     1       2.159   5.296  21.064  0.00  0.00    +0.000 OA
ATOM      3  O   UNL     1       1.741   5.221  18.583  0.00  0.00    +0.000 OA
ENDROOT
BRANCH   1   7
ATOM      4  C   UNL     1       0.938  10.140  19.791  0.00  0.00    +0.000 A 
ATOM      5  C   UNL     1       1.369   9.545  18.591  0.00  0.00    +0.000 A 
ATOM      6  C   UNL     1       1.862   8.238  18.568  0.00  0.00    +0.000 A 
ATOM      7  C   UNL     1       1.988   7.537  19.763  0.00  0.00    +0.000 A 
ATOM      8  C   UNL     1       1.619   8.141  20.971  0.00  0.00    +0.000 A 
ATOM      9  C   UNL     1       1.094   9.447  21.002  0.00  0.00    +0.000 A 
BRANCH   4  11
ATOM     10  C   UNL     1      -1.044  11.401  19.597  0.00  0.00    +0.000 C 
ATOM     11  O   UNL     1       0.373  11.393  19.785  0.00  0.00    +0.000 OA
ENDBRANCH   4  11
BRANCH   9  12
ATOM     12  O   UNL     1       0.758   9.831  22.270  0.00  0.00    +0.000 OA
ATOM     13  C   UNL     1      -0.460   9.386  22.847  0.00  0.00    +0.000 C 
ENDBRANCH   9  12
ENDBRANCH   1   7
BRANCH   1  14
ATOM     14  N   UNL     1       4.092   5.771  19.499  0.00  0.00    +0.000 N 
ATOM     15  H   UNL     1       4.511   6.636  19.875  0.00  0.00    +0.000 HD
BRANCH  14  16
ATOM     16  C   UNL     1       4.594   5.481  18.178  0.00  0.00    +0.000 A 
ATOM     17  C   UNL     1       4.778   6.571  17.313  0.00  0.00    +0.000 A 
ATOM     18  C   UNL     1       5.202   6.371  15.995  0.00  0.00    +0.000 A 
ATOM     19  C   UNL     1       5.490   5.086  15.544  0.00  0.00    +0.000 A 
ATOM     20  C   UNL     1       5.332   3.995  16.400  0.00  0.00    +0.000 A 
ATOM     21  C   UNL     1       4.874   4.182  17.719  0.00  0.00    +0.000 A 
BRANCH  21  22
ATOM     22  C   UNL     1       4.570   3.007  18.570  0.00  0.00    +0.000 C 
ATOM     23  N   UNL     1       3.902   1.951  18.015  0.00  0.00    +0.000 N 
ATOM     24  O   UNL     1       4.921   2.980  19.749  0.00  0.00    +0.000 OA
ATOM     25  H   UNL     1       3.723   1.849  17.025  0.00  0.00    +0.000 HD
ATOM     26  H   UNL     1       3.720   1.156  18.611  0.00  0.00    +0.000 HD
ENDBRANCH  21  22
ENDBRANCH  14  16
ENDBRANCH   1  14
TORSDOF 6
ENDMDL
MODEL 7
REMARK VINA RESULT:      -7.1      2.483      3.208
REMARK  Name = 
REMARK  8 active torsions:
REMARK  status: ('A' for Active; 'I' for Inactive)
REMARK    1  A    between atoms: C_1  and  O_2
REMARK    2  A    between atoms: O_2  and  C_3
REMARK    3  A    between atoms: C_6  and  S_7
REMARK    4  A    between atoms: S_7  and  N_10
REMARK    5  A    between atoms: N_10  and  C_11
REMARK    6  A    between atoms: C_16  and  C_17
REMARK    7  A    between atoms: C_21  and  O_22
REMARK    8  A    between atoms: O_22  and  C_23
REMARK                            x       y       z     vdW  Elec       q    Type
REMARK                         _______ _______ _______ _____ _____    ______ ____
ROOT
ATOM      1  S   UNL     1       2.412   4.696  19.906  0.00  0.00    +0.000 S 
ATOM      2  O   UNL     1       1.231   4.728  19.071  0.00  0.00    +0.000 OA
ATOM      3  O   UNL     1       2.511   3.760  21.009  0.00  0.00    +0.000 OA
ENDROOT
BRANCH   1   7
ATOM      4  C   UNL     1       5.933   4.260  17.007  0.00  0.00    +0.000 A 
ATOM      5  C   UNL     1       4.631   3.897  16.616  0.00  0.00    +0.000 A 
ATOM      6  C   UNL     1       3.558   3.983  17.504  0.00  0.00    +0.000 A 
ATOM      7  C   UNL     1       3.791   4.373  18.819  0.00  0.00    +0.000 A 
ATOM      8  C   UNL     1       5.092   4.679  19.236  0.00  0.00    +0.000 A 
ATOM      9  C   UNL     1       6.177   4.624  18.341  0.00  0.00    +0.000 A 
BRANCH   4  11
ATOM     10  C   UNL     1       6.664   4.911  14.863  0.00  0.00    +0.000 C 
ATOM     11  O   UNL     1       6.963   4.255  16.098  0.00  0.00    +0.000 OA
ENDBRANCH   4  11
BRANCH   9  12
ATOM     12  O   UNL     1       7.349   5.001  18.936  0.00  0.00    +0.000 OA
ATOM     13  C   UNL     1       7.839   6.322  18.766  0.00  0.00    +0.000 C 
ENDBRANCH   9  12
ENDBRANCH   1   7
BRANCH   1  14
ATOM     14  N   UNL     1       2.665   6.279  20.466  0.00  0.00    +0.000 N 
ATOM     15  H   UNL     1       2.268   6.380  21.414  0.00  0.00    +0.000 HD
BRANCH  14  16
ATOM     16  C   UNL     1       2.268   7.376  19.617  0.00  0.00    +0.000 A 
ATOM     17  C   UNL     1       2.816   7.414  18.326  0.00  0.00    +0.000 A 
ATOM     18  C   UNL     1       2.533   8.476  17.462  0.00  0.00    +0.000 A 
ATOM     19  C   UNL     1       1.661   9.485  17.862  0.00  0.00    +0.000 A 
ATOM     20  C   UNL     1       1.091   9.449  19.135  0.00  0.00    +0.000 A 
ATOM     21  C   UNL     1       1.397   8.401  20.025  0.00  0.00    +0.000 A 
BRANCH  21  22
ATOM     22  C   UNL     1       0.902   8.449  21.423  0.00  0.00    +0.000 C 
ATOM     23  N   UNL     1       1.746   8.896  22.401  0.00  0.00    +0.000 N 
ATOM     24  O   UNL     1      -0.246   8.102  21.693  0.00  0.00    +0.000 OA
ATOM     25  H   UNL     1       2.640   9.334  22.223  0.00  0.00    +0.000 HD
ATOM     26  H   UNL     1       1.382   8.935  23.342  0.00  0.00    +0.000 HD
ENDBRANCH  21  22
ENDBRANCH  14  16
ENDBRANCH   1  14
TORSDOF 6
ENDMDL
MODEL 8
REMARK VINA RESULT:      -7.1      3.463      6.904
REMARK  Name = 
REMARK  8 active torsions:
REMARK  status: ('A' for Active; 'I' for Inactive)
REMARK    1  A    between atoms: C_1  and  O_2
REMARK    2  A    between atoms: O_2  and  C_3
REMARK    3  A    between atoms: C_6  and  S_7
REMARK    4  A    between atoms: S_7  and  N_10
REMARK    5  A    between atoms: N_10  and  C_11
REMARK    6  A    between atoms: C_16  and  C_17
REMARK    7  A    between atoms: C_21  and  O_22
REMARK    8  A    between atoms: O_22  and  C_23
REMARK                            x       y       z     vdW  Elec       q    Type
REMARK                         _______ _______ _______ _____ _____    ______ ____
ROOT
ATOM      1  S   UNL     1       2.880   6.940  18.451  0.00  0.00    +0.000 S 
ATOM      2  O   UNL     1       1.963   6.068  17.750  0.00  0.00    +0.000 OA
ATOM      3  O   UNL     1       4.032   7.500  17.770  0.00  0.00    +0.000 OA
ENDROOT
BRANCH   1   7
ATOM      4  C   UNL     1       0.063  10.270  19.854  0.00  0.00    +0.000 A 
ATOM      5  C   UNL     1       0.768  10.389  18.642  0.00  0.00    +0.000 A 
ATOM      6  C   UNL     1       1.664   9.402  18.226  0.00  0.00    +0.000 A 
ATOM      7  C   UNL     1       1.910   8.313  19.055  0.00  0.00    +0.000 A 
ATOM      8  C   UNL     1       1.259   8.213  20.291  0.00  0.00    +0.000 A 
ATOM      9  C   UNL     1       0.333   9.188  20.707  0.00  0.00    +0.000 A 
BRANCH   4  11
ATOM     10  C   UNL     1      -1.766  11.581  19.150  0.00  0.00    +0.000 C 
ATOM     11  O   UNL     1      -0.880  11.205  20.208  0.00  0.00    +0.000 OA
ENDBRANCH   4  11
BRANCH   9  12
ATOM     12  O   UNL     1      -0.220   8.882  21.919  0.00  0.00    +0.000 OA
ATOM     13  C   UNL     1       0.261   9.509  23.098  0.00  0.00    +0.000 C 
ENDBRANCH   9  12
ENDBRANCH   1   7
BRANCH   1  14
ATOM     14  N   UNL     1       3.378   6.115  19.849  0.00  0.00    +0.000 N 
ATOM     15  H   UNL     1       4.404   6.174  19.940  0.00  0.00    +0.000 HD
BRANCH  14  16
ATOM     16  C   UNL     1       2.915   4.763  20.045  0.00  0.00    +0.000 A 
ATOM     17  C   UNL     1       1.771   4.590  20.840  0.00  0.00    +0.000 A 
ATOM     18  C   UNL     1       1.293   3.308  21.131  0.00  0.00    +0.000 A 
ATOM     19  C   UNL     1       1.925   2.191  20.594  0.00  0.00    +0.000 A 
ATOM     20  C   UNL     1       3.051   2.349  19.784  0.00  0.00    +0.000 A 
ATOM     21  C   UNL     1       3.560   3.634  19.512  0.00  0.00    +0.000 A 
BRANCH  21  22
ATOM     22  C   UNL     1       4.838   3.782  18.774  0.00  0.00    +0.000 C 
ATOM     23  N   UNL     1       4.888   3.388  17.466  0.00  0.00    +0.000 N 
ATOM     24  O   UNL     1       5.828   4.258  19.327  0.00  0.00    +0.000 OA
ATOM     25  H   UNL     1       4.077   3.134  16.917  0.00  0.00    +0.000 HD
ATOM     26  H   UNL     1       5.766   3.513  16.980  0.00  0.00    +0.000 HD
ENDBRANCH  21  22
ENDBRANCH  14  16
ENDBRANCH   1  14
TORSDOF 6
ENDMDL
MODEL 9
REMARK VINA RESULT:      -7.0      3.305      6.835
REMARK  Name = 
REMARK  8 active torsions:
REMARK  status: ('A' for Active; 'I' for Inactive)
REMARK    1  A    between atoms: C_1  and  O_2
REMARK    2  A    between atoms: O_2  and  C_3
REMARK    3  A    between atoms: C_6  and  S_7
REMARK    4  A    between atoms: S_7  and  N_10
REMARK    5  A    between atoms: N_10  and  C_11
REMARK    6  A    between atoms: C_16  and  C_17
REMARK    7  A    between atoms: C_21  and  O_22
REMARK    8  A    between atoms: O_22  and  C_23
REMARK                            x       y       z     vdW  Elec       q    Type
REMARK                         _______ _______ _______ _____ _____    ______ ____
ROOT
ATOM      1  S   UNL     1       2.453   5.875  19.647  0.00  0.00    +0.000 S 
ATOM      2  O   UNL     1       3.837   5.793  20.061  0.00  0.00    +0.000 OA
ATOM      3  O   UNL     1       1.426   5.134  20.353  0.00  0.00    +0.000 OA
ENDROOT
BRANCH   1   7
ATOM      4  C   UNL     1       0.910  10.185  19.835  0.00  0.00    +0.000 A 
ATOM      5  C   UNL     1       1.334   9.627  18.615  0.00  0.00    +0.000 A 
ATOM      6  C   UNL     1       1.848   8.330  18.553  0.00  0.00    +0.000 A 
ATOM      7  C   UNL     1       2.003   7.601  19.728  0.00  0.00    +0.000 A 
ATOM      8  C   UNL     1       1.641   8.169  20.955  0.00  0.00    +0.000 A 
ATOM      9  C   UNL     1       1.095   9.464  21.026  0.00  0.00    +0.000 A 
BRANCH   4  11
ATOM     10  C   UNL     1      -1.081  11.426  19.605  0.00  0.00    +0.000 C 
ATOM     11  O   UNL     1       0.325  11.428  19.869  0.00  0.00    +0.000 OA
ENDBRANCH   4  11
BRANCH   9  12
ATOM     12  O   UNL     1       0.770   9.812  22.308  0.00  0.00    +0.000 OA
ATOM     13  C   UNL     1      -0.471   9.403  22.862  0.00  0.00    +0.000 C 
ENDBRANCH   9  12
ENDBRANCH   1   7
BRANCH   1  14
ATOM     14  N   UNL     1       2.408   5.494  17.993  0.00  0.00    +0.000 N 
ATOM     15  H   UNL     1       1.712   4.750  17.827  0.00  0.00    +0.000 HD
BRANCH  14  16
ATOM     16  C   UNL     1       3.653   5.201  17.325  0.00  0.00    +0.000 A 
ATOM     17  C   UNL     1       4.386   6.292  16.835  0.00  0.00    +0.000 A 
ATOM     18  C   UNL     1       5.572   6.092  16.121  0.00  0.00    +0.000 A 
ATOM     19  C   UNL     1       6.060   4.802  15.931  0.00  0.00    +0.000 A 
ATOM     20  C   UNL     1       5.353   3.708  16.432  0.00  0.00    +0.000 A 
ATOM     21  C   UNL     1       4.140   3.898  17.124  0.00  0.00    +0.000 A 
BRANCH  21  22
ATOM     22  C   UNL     1       3.325   2.725  17.522  0.00  0.00    +0.000 C 
ATOM     23  N   UNL     1       3.946   1.675  18.139  0.00  0.00    +0.000 N 
ATOM     24  O   UNL     1       2.114   2.703  17.309  0.00  0.00    +0.000 OA
ATOM     25  H   UNL     1       4.899   1.697  18.476  0.00  0.00    +0.000 HD
ATOM     26  H   UNL     1       3.367   0.894  18.415  0.00  0.00    +0.000 HD
ENDBRANCH  21  22
ENDBRANCH  14  16
ENDBRANCH   1  14
TORSDOF 6
ENDMDL
