MODEL 1
REMARK VINA RESULT:      -9.4      0.000      0.000
REMARK  Name = 
REMARK  9 active torsions:
REMARK  status: ('A' for Active; 'I' for Inactive)
REMARK    1  A    between atoms: C_1  and  C_2
REMARK    2  A    between atoms: C_2  and  C_3
REMARK    3  A    between atoms: C_2  and  C_4
REMARK    4  A    between atoms: N_6  and  C_7
REMARK    5  A    between atoms: C_7  and  C_8
REMARK    6  A    between atoms: C_8  and  N_9
REMARK    7  A    between atoms: N_9  and  C_10
REMARK    8  A    between atoms: C_12  and  C_13
REMARK    9  A    between atoms: N_24  and  C_25
REMARK                            x       y       z     vdW  Elec       q    Type
REMARK                         _______ _______ _______ _____ _____    ______ ____
ROOT
ATOM      1  C   UNL     1       3.728   6.319  17.857  0.00  0.00    +0.000 A 
ATOM      2  N   UNL     1       3.587   5.243  18.666  0.00  0.00    +0.000 NA
ATOM      3  C   UNL     1       2.786   5.294  19.751  0.00  0.00    +0.000 A 
ATOM      4  N   UNL     1       2.062   6.356  20.135  0.00  0.00    +0.000 NA
ATOM      5  C   UNL     1       2.252   7.437  19.351  0.00  0.00    +0.000 A 
ATOM      6  C   UNL     1       3.025   7.472  18.203  0.00  0.00    +0.000 A 
ATOM      7  C   UNL     1       2.804   8.750  17.663  0.00  0.00    +0.000 A 
ATOM      8  N   UNL     1       1.936   9.470  18.374  0.00  0.00    +0.000 NA
ATOM      9  N   UNL     1       1.688   8.700  19.481  0.00  0.00    +0.000 N 
ENDROOT
BRANCH   9  10
ATOM     10  C   UNL     1       0.868   9.220  20.516  0.00  0.00    +0.000 A 
ATOM     11  C   UNL     1       1.224   8.901  21.843  0.00  0.00    +0.000 A 
ATOM     12  C   UNL     1       0.489   9.400  22.917  0.00  0.00    +0.000 A 
ATOM     13  C   UNL     1      -0.620  10.206  22.683  0.00  0.00    +0.000 A 
ATOM     14  C   UNL     1      -1.004  10.495  21.373  0.00  0.00    +0.000 A 
ATOM     15  C   UNL     1      -0.273  10.000  20.282  0.00  0.00    +0.000 A 
ATOM     16 CL   UNL     1      -1.006  10.233  18.733  0.00  0.00    +0.000 Cl
ENDBRANCH   9  10
BRANCH   3  17
ATOM     17  C   UNL     1       2.697   4.047  20.616  0.00  0.00    +0.000 C 
ATOM     18  C   UNL     1       1.253   3.558  20.810  0.00  0.00    +0.000 C 
ATOM     19  C   UNL     1       0.673   2.848  19.587  0.00  0.00    +0.000 C 
ATOM     20  C   UNL     1       1.587   1.753  19.046  0.00  0.00    +0.000 C 
ATOM     21  C   UNL     1       3.034   2.202  18.861  0.00  0.00    +0.000 C 
ATOM     22  C   UNL     1       3.591   2.909  20.098  0.00  0.00    +0.000 C 
ENDBRANCH   3  17
BRANCH   1  23
ATOM     23  N   UNL     1       4.516   6.220  16.712  0.00  0.00    +0.000 N 
ATOM     24  H   UNL     1       4.495   5.304  16.280  0.00  0.00    +0.000 HD
BRANCH  23  25
ATOM     25  C   UNL     1       5.861   6.793  16.812  0.00  0.00    +0.000 C 
BRANCH  25  26
ATOM     26  C   UNL     1       6.952   5.721  16.635  0.00  0.00    +0.000 C 
BRANCH  26  29
ATOM     27  C   UNL     1       6.496   4.323  14.658  0.00  0.00    +0.000 C 
ATOM     28  O   UNL     1       5.610   3.707  15.242  0.00  0.00    +0.000 OA
ATOM     29  N   UNL     1       7.188   5.353  15.252  0.00  0.00    +0.000 N 
ATOM     30  H   UNL     1       7.901   5.853  14.738  0.00  0.00    +0.000 HD
BRANCH  27  32
ATOM     31  C   UNL     1       5.783   3.504  12.395  0.00  0.00    +0.000 C 
ATOM     32  C   UNL     1       6.959   3.992  13.241  0.00  0.00    +0.000 C 
ATOM     33  C   UNL     1       7.624   5.194  12.577  0.00  0.00    +0.000 C 
ENDBRANCH  27  32
ENDBRANCH  26  29
ENDBRANCH  25  26
ENDBRANCH  23  25
ENDBRANCH   1  23
TORSDOF 7
ENDMDL
MODEL 2
REMARK VINA RESULT:      -8.9      1.041      1.307
REMARK  Name = 
REMARK  9 active torsions:
REMARK  status: ('A' for Active; 'I' for Inactive)
REMARK    1  A    between atoms: C_1  and  C_2
REMARK    2  A    between atoms: C_2  and  C_3
REMARK    3  A    between atoms: C_2  and  C_4
REMARK    4  A    between atoms: N_6  and  C_7
REMARK    5  A    between atoms: C_7  and  C_8
REMARK    6  A    between atoms: C_8  and  N_9
REMARK    7  A    between atoms: N_9  and  C_10
REMARK    8  A    between atoms: C_12  and  C_13
REMARK    9  A    between atoms: N_24  and  C_25
REMARK                            x       y       z     vdW  Elec       q    Type
REMARK                         _______ _______ _______ _____ _____    ______ ____
ROOT
ATOM      1  C   UNL     1       3.961   6.141  17.740  0.00  0.00    +0.000 A 
ATOM      2  N   UNL     1       3.782   5.095  18.579  0.00  0.00    +0.000 NA
ATOM      3  C   UNL     1       2.941   5.188  19.631  0.00  0.00    +0.000 A 
ATOM      4  N   UNL     1       2.212   6.267  19.951  0.00  0.00    +0.000 NA
ATOM      5  C   UNL     1       2.440   7.320  19.138  0.00  0.00    +0.000 A 
ATOM      6  C   UNL     1       3.254   7.310  18.020  0.00  0.00    +0.000 A 
ATOM      7  C   UNL     1       3.064   8.570  17.429  0.00  0.00    +0.000 A 
ATOM      8  N   UNL     1       2.176   9.321  18.082  0.00  0.00    +0.000 NA
ATOM      9  N   UNL     1       1.881   8.591  19.205  0.00  0.00    +0.000 N 
ENDROOT
BRANCH   9  10
ATOM     10  C   UNL     1       1.028   9.151  20.190  0.00  0.00    +0.000 A 
ATOM     11  C   UNL     1       1.298   8.829  21.536  0.00  0.00    +0.000 A 
ATOM     12  C   UNL     1       0.526   9.366  22.566  0.00  0.00    +0.000 A 
ATOM     13  C   UNL     1      -0.536  10.212  22.267  0.00  0.00    +0.000 A 
ATOM     14  C   UNL     1      -0.836  10.505  20.936  0.00  0.00    +0.000 A 
ATOM     15  C   UNL     1      -0.068   9.972  19.890  0.00  0.00    +0.000 A 
ATOM     16 CL   UNL     1      -0.706  10.220  18.301  0.00  0.00    +0.000 Cl
ENDBRANCH   9  10
BRANCH   3  17
ATOM     17  C   UNL     1       2.810   3.972  20.533  0.00  0.00    +0.000 C 
ATOM     18  C   UNL     1       1.348   3.624  20.857  0.00  0.00    +0.000 C 
ATOM     19  C   UNL     1       0.605   2.949  19.705  0.00  0.00    +0.000 C 
ATOM     20  C   UNL     1       1.366   1.763  19.122  0.00  0.00    +0.000 C 
ATOM     21  C   UNL     1       2.828   2.070  18.807  0.00  0.00    +0.000 C 
ATOM     22  C   UNL     1       3.549   2.745  19.975  0.00  0.00    +0.000 C 
ENDBRANCH   3  17
BRANCH   1  23
ATOM     23  N   UNL     1       4.790   5.998  16.629  0.00  0.00    +0.000 N 
ATOM     24  H   UNL     1       4.447   6.470  15.800  0.00  0.00    +0.000 HD
BRANCH  23  25
ATOM     25  C   UNL     1       5.285   4.642  16.372  0.00  0.00    +0.000 C 
BRANCH  25  26
ATOM     26  C   UNL     1       6.228   4.601  15.156  0.00  0.00    +0.000 C 
BRANCH  26  29
ATOM     27  C   UNL     1       6.340   3.604  12.906  0.00  0.00    +0.000 C 
ATOM     28  O   UNL     1       7.046   4.516  12.488  0.00  0.00    +0.000 OA
ATOM     29  N   UNL     1       5.917   3.544  14.214  0.00  0.00    +0.000 N 
ATOM     30  H   UNL     1       5.350   2.769  14.531  0.00  0.00    +0.000 HD
BRANCH  27  32
ATOM     31  C   UNL     1       4.592   2.931  11.236  0.00  0.00    +0.000 C 
ATOM     32  C   UNL     1       5.818   2.471  12.025  0.00  0.00    +0.000 C 
ATOM     33  C   UNL     1       6.897   1.963  11.073  0.00  0.00    +0.000 C 
ENDBRANCH  27  32
ENDBRANCH  26  29
ENDBRANCH  25  26
ENDBRANCH  23  25
ENDBRANCH   1  23
TORSDOF 7
ENDMDL
MODEL 3
REMARK VINA RESULT:      -8.5      1.310      2.417
REMARK  Name = 
REMARK  9 active torsions:
REMARK  status: ('A' for Active; 'I' for Inactive)
REMARK    1  A    between atoms: C_1  and  C_2
REMARK    2  A    between atoms: C_2  and  C_3
REMARK    3  A    between atoms: C_2  and  C_4
REMARK    4  A    between atoms: N_6  and  C_7
REMARK    5  A    between atoms: C_7  and  C_8
REMARK    6  A    between atoms: C_8  and  N_9
REMARK    7  A    between atoms: N_9  and  C_10
REMARK    8  A    between atoms: C_12  and  C_13
REMARK    9  A    between atoms: N_24  and  C_25
REMARK                            x       y       z     vdW  Elec       q    Type
REMARK                         _______ _______ _______ _____ _____    ______ ____
ROOT
ATOM      1  C   UNL     1       3.876   6.367  17.582  0.00  0.00    +0.000 A 
ATOM      2  N   UNL     1       3.776   5.280  18.381  0.00  0.00    +0.000 NA
ATOM      3  C   UNL     1       2.989   5.297  19.478  0.00  0.00    +0.000 A 
ATOM      4  N   UNL     1       2.241   6.335  19.882  0.00  0.00    +0.000 NA
ATOM      5  C   UNL     1       2.391   7.429  19.107  0.00  0.00    +0.000 A 
ATOM      6  C   UNL     1       3.146   7.497  17.950  0.00  0.00    +0.000 A 
ATOM      7  C   UNL     1       2.882   8.774  17.426  0.00  0.00    +0.000 A 
ATOM      8  N   UNL     1       2.006   9.463  18.156  0.00  0.00    +0.000 NA
ATOM      9  N   UNL     1       1.794   8.675  19.258  0.00  0.00    +0.000 N 
ENDROOT
BRANCH   9  10
ATOM     10  C   UNL     1       0.974   9.161  20.309  0.00  0.00    +0.000 A 
ATOM     11  C   UNL     1       1.350   8.830  21.627  0.00  0.00    +0.000 A 
ATOM     12  C   UNL     1       0.616   9.296  22.717  0.00  0.00    +0.000 A 
ATOM     13  C   UNL     1      -0.512  10.082  22.507  0.00  0.00    +0.000 A 
ATOM     14  C   UNL     1      -0.916  10.382  21.205  0.00  0.00    +0.000 A 
ATOM     15  C   UNL     1      -0.186   9.919  20.100  0.00  0.00    +0.000 A 
ATOM     16 CL   UNL     1      -0.940  10.161  18.562  0.00  0.00    +0.000 Cl
ENDBRANCH   9  10
BRANCH   3  17
ATOM     17  C   UNL     1       2.946   4.040  20.330  0.00  0.00    +0.000 C 
ATOM     18  C   UNL     1       1.529   3.701  20.822  0.00  0.00    +0.000 C 
ATOM     19  C   UNL     1       0.630   3.097  19.744  0.00  0.00    +0.000 C 
ATOM     20  C   UNL     1       1.283   1.929  19.011  0.00  0.00    +0.000 C 
ATOM     21  C   UNL     1       2.699   2.228  18.527  0.00  0.00    +0.000 C 
ATOM     22  C   UNL     1       3.578   2.830  19.624  0.00  0.00    +0.000 C 
ENDBRANCH   3  17
BRANCH   1  23
ATOM     23  N   UNL     1       4.651   6.302  16.425  0.00  0.00    +0.000 N 
ATOM     24  H   UNL     1       4.428   7.019  15.744  0.00  0.00    +0.000 HD
BRANCH  23  25
ATOM     25  C   UNL     1       4.817   4.967  15.844  0.00  0.00    +0.000 C 
BRANCH  25  26
ATOM     26  C   UNL     1       6.302   4.609  15.655  0.00  0.00    +0.000 C 
BRANCH  26  29
ATOM     27  C   UNL     1       7.352   5.017  17.847  0.00  0.00    +0.000 C 
ATOM     28  O   UNL     1       6.795   4.044  18.345  0.00  0.00    +0.000 OA
ATOM     29  N   UNL     1       7.195   5.354  16.521  0.00  0.00    +0.000 N 
ATOM     30  H   UNL     1       7.682   6.152  16.137  0.00  0.00    +0.000 HD
BRANCH  27  32
ATOM     31  C   UNL     1       7.924   7.427  18.250  0.00  0.00    +0.000 C 
ATOM     32  C   UNL     1       8.231   5.982  18.639  0.00  0.00    +0.000 C 
ATOM     33  C   UNL     1       8.052   5.790  20.143  0.00  0.00    +0.000 C 
ENDBRANCH  27  32
ENDBRANCH  26  29
ENDBRANCH  25  26
ENDBRANCH  23  25
ENDBRANCH   1  23
TORSDOF 7
ENDMDL
MODEL 4
REMARK VINA RESULT:      -8.5      1.811      2.682
REMARK  Name = 
REMARK  9 active torsions:
REMARK  status: ('A' for Active; 'I' for Inactive)
REMARK    1  A    between atoms: C_1  and  C_2
REMARK    2  A    between atoms: C_2  and  C_3
REMARK    3  A    between atoms: C_2  and  C_4
REMARK    4  A    between atoms: N_6  and  C_7
REMARK    5  A    between atoms: C_7  and  C_8
REMARK    6  A    between atoms: C_8  and  N_9
REMARK    7  A    between atoms: N_9  and  C_10
REMARK    8  A    between atoms: C_12  and  C_13
REMARK    9  A    between atoms: N_24  and  C_25
REMARK                            x       y       z     vdW  Elec       q    Type
REMARK                         _______ _______ _______ _____ _____    ______ ____
ROOT
ATOM      1  C   UNL     1       4.503   5.116  17.366  0.00  0.00    +0.000 A 
ATOM      2  N   UNL     1       3.708   4.122  17.827  0.00  0.00    +0.000 NA
ATOM      3  C   UNL     1       2.505   4.397  18.376  0.00  0.00    +0.000 A 
ATOM      4  N   UNL     1       1.975   5.620  18.514  0.00  0.00    +0.000 NA
ATOM      5  C   UNL     1       2.799   6.605  18.100  0.00  0.00    +0.000 A 
ATOM      6  C   UNL     1       4.031   6.421  17.497  0.00  0.00    +0.000 A 
ATOM      7  C   UNL     1       4.440   7.711  17.121  0.00  0.00    +0.000 A 
ATOM      8  N   UNL     1       3.540   8.648  17.418  0.00  0.00    +0.000 NA
ATOM      9  N   UNL     1       2.579   7.977  18.130  0.00  0.00    +0.000 N 
ENDROOT
BRANCH   9  10
ATOM     10  C   UNL     1       1.502   8.706  18.698  0.00  0.00    +0.000 A 
ATOM     11  C   UNL     1       0.816   9.605  17.855  0.00  0.00    +0.000 A 
ATOM     12  C   UNL     1      -0.275  10.334  18.328  0.00  0.00    +0.000 A 
ATOM     13  C   UNL     1      -0.682  10.191  19.650  0.00  0.00    +0.000 A 
ATOM     14  C   UNL     1       0.015   9.334  20.502  0.00  0.00    +0.000 A 
ATOM     15  C   UNL     1       1.114   8.594  20.039  0.00  0.00    +0.000 A 
ATOM     16 CL   UNL     1       2.021   7.773  21.262  0.00  0.00    +0.000 Cl
ENDBRANCH   9  10
BRANCH   3  17
ATOM     17  C   UNL     1       1.683   3.224  18.884  0.00  0.00    +0.000 C 
ATOM     18  C   UNL     1       2.542   1.994  19.219  0.00  0.00    +0.000 C 
ATOM     19  C   UNL     1       3.317   2.121  20.530  0.00  0.00    +0.000 C 
ATOM     20  C   UNL     1       2.437   2.550  21.701  0.00  0.00    +0.000 C 
ATOM     21  C   UNL     1       1.557   3.758  21.393  0.00  0.00    +0.000 C 
ATOM     22  C   UNL     1       0.792   3.606  20.077  0.00  0.00    +0.000 C 
ENDBRANCH   3  17
BRANCH   1  23
ATOM     23  N   UNL     1       5.713   4.799  16.752  0.00  0.00    +0.000 N 
ATOM     24  H   UNL     1       6.505   4.807  17.384  0.00  0.00    +0.000 HD
BRANCH  23  25
ATOM     25  C   UNL     1       5.973   5.467  15.474  0.00  0.00    +0.000 C 
BRANCH  25  26
ATOM     26  C   UNL     1       6.894   4.627  14.570  0.00  0.00    +0.000 C 
BRANCH  26  29
ATOM     27  C   UNL     1       6.343   3.449  12.477  0.00  0.00    +0.000 C 
ATOM     28  O   UNL     1       7.105   4.156  11.825  0.00  0.00    +0.000 OA
ATOM     29  N   UNL     1       6.199   3.585  13.839  0.00  0.00    +0.000 N 
ATOM     30  H   UNL     1       5.576   2.974  14.349  0.00  0.00    +0.000 HD
BRANCH  27  32
ATOM     31  C   UNL     1       4.301   3.035  11.079  0.00  0.00    +0.000 C 
ATOM     32  C   UNL     1       5.444   2.383  11.855  0.00  0.00    +0.000 C 
ATOM     33  C   UNL     1       6.236   1.450  10.942  0.00  0.00    +0.000 C 
ENDBRANCH  27  32
ENDBRANCH  26  29
ENDBRANCH  25  26
ENDBRANCH  23  25
ENDBRANCH   1  23
TORSDOF 7
ENDMDL
MODEL 5
REMARK VINA RESULT:      -8.3      1.519      2.784
REMARK  Name = 
REMARK  9 active torsions:
REMARK  status: ('A' for Active; 'I' for Inactive)
REMARK    1  A    between atoms: C_1  and  C_2
REMARK    2  A    between atoms: C_2  and  C_3
REMARK    3  A    between atoms: C_2  and  C_4
REMARK    4  A    between atoms: N_6  and  C_7
REMARK    5  A    between atoms: C_7  and  C_8
REMARK    6  A    between atoms: C_8  and  N_9
REMARK    7  A    between atoms: N_9  and  C_10
REMARK    8  A    between atoms: C_12  and  C_13
REMARK    9  A    between atoms: N_24  and  C_25
REMARK                            x       y       z     vdW  Elec       q    Type
REMARK                         _______ _______ _______ _____ _____    ______ ____
ROOT
ATOM      1  C   UNL     1       3.889   5.752  17.044  0.00  0.00    +0.000 A 
ATOM      2  N   UNL     1       3.293   4.624  17.494  0.00  0.00    +0.000 NA
ATOM      3  C   UNL     1       2.294   4.683  18.400  0.00  0.00    +0.000 A 
ATOM      4  N   UNL     1       1.789   5.807  18.929  0.00  0.00    +0.000 NA
ATOM      5  C   UNL     1       2.427   6.921  18.512  0.00  0.00    +0.000 A 
ATOM      6  C   UNL     1       3.436   6.963  17.566  0.00  0.00    +0.000 A 
ATOM      7  C   UNL     1       3.679   8.332  17.364  0.00  0.00    +0.000 A 
ATOM      8  N   UNL     1       2.876   9.113  18.086  0.00  0.00    +0.000 NA
ATOM      9  N   UNL     1       2.184   8.238  18.883  0.00  0.00    +0.000 N 
ENDROOT
BRANCH   9  10
ATOM     10  C   UNL     1       1.297   8.750  19.865  0.00  0.00    +0.000 A 
ATOM     11  C   UNL     1       1.498   8.332  21.197  0.00  0.00    +0.000 A 
ATOM     12  C   UNL     1       0.690   8.815  22.226  0.00  0.00    +0.000 A 
ATOM     13  C   UNL     1      -0.340   9.704  21.938  0.00  0.00    +0.000 A 
ATOM     14  C   UNL     1      -0.573  10.092  20.618  0.00  0.00    +0.000 A 
ATOM     15  C   UNL     1       0.233   9.614  19.573  0.00  0.00    +0.000 A 
ATOM     16 CL   UNL     1      -0.326   9.984  17.978  0.00  0.00    +0.000 Cl
ENDBRANCH   9  10
BRANCH   3  17
ATOM     17  C   UNL     1       1.691   3.368  18.865  0.00  0.00    +0.000 C 
ATOM     18  C   UNL     1       2.734   2.246  18.995  0.00  0.00    +0.000 C 
ATOM     19  C   UNL     1       3.621   2.369  20.234  0.00  0.00    +0.000 C 
ATOM     20  C   UNL     1       2.823   2.569  21.518  0.00  0.00    +0.000 C 
ATOM     21  C   UNL     1       1.765   3.664  21.415  0.00  0.00    +0.000 C 
ATOM     22  C   UNL     1       0.891   3.519  20.169  0.00  0.00    +0.000 C 
ENDBRANCH   3  17
BRANCH   1  23
ATOM     23  N   UNL     1       4.879   5.665  16.066  0.00  0.00    +0.000 N 
ATOM     24  H   UNL     1       4.814   6.383  15.355  0.00  0.00    +0.000 HD
BRANCH  23  25
ATOM     25  C   UNL     1       5.127   4.324  15.529  0.00  0.00    +0.000 C 
BRANCH  25  26
ATOM     26  C   UNL     1       6.620   3.954  15.590  0.00  0.00    +0.000 C 
BRANCH  26  29
ATOM     27  C   UNL     1       7.286   4.827  17.796  0.00  0.00    +0.000 C 
ATOM     28  O   UNL     1       6.558   4.030  18.381  0.00  0.00    +0.000 OA
ATOM     29  N   UNL     1       7.406   4.841  16.425  0.00  0.00    +0.000 N 
ATOM     30  H   UNL     1       8.028   5.499  15.975  0.00  0.00    +0.000 HD
BRANCH  27  32
ATOM     31  C   UNL     1       7.693   7.294  18.000  0.00  0.00    +0.000 C 
ATOM     32  C   UNL     1       8.093   5.910  18.508  0.00  0.00    +0.000 C 
ATOM     33  C   UNL     1       7.915   5.831  20.022  0.00  0.00    +0.000 C 
ENDBRANCH  27  32
ENDBRANCH  26  29
ENDBRANCH  25  26
ENDBRANCH  23  25
ENDBRANCH   1  23
TORSDOF 7
ENDMDL
MODEL 6
REMARK VINA RESULT:      -8.2      1.165      1.746
REMARK  Name = 
REMARK  9 active torsions:
REMARK  status: ('A' for Active; 'I' for Inactive)
REMARK    1  A    between atoms: C_1  and  C_2
REMARK    2  A    between atoms: C_2  and  C_3
REMARK    3  A    between atoms: C_2  and  C_4
REMARK    4  A    between atoms: N_6  and  C_7
REMARK    5  A    between atoms: C_7  and  C_8
REMARK    6  A    between atoms: C_8  and  N_9
REMARK    7  A    between atoms: N_9  and  C_10
REMARK    8  A    between atoms: C_12  and  C_13
REMARK    9  A    between atoms: N_24  and  C_25
REMARK                            x       y       z     vdW  Elec       q    Type
REMARK                         _______ _______ _______ _____ _____    ______ ____
ROOT
ATOM      1  C   UNL     1       3.779   5.674  17.182  0.00  0.00    +0.000 A 
ATOM      2  N   UNL     1       3.173   4.569  17.672  0.00  0.00    +0.000 NA
ATOM      3  C   UNL     1       2.183   4.670  18.584  0.00  0.00    +0.000 A 
ATOM      4  N   UNL     1       1.698   5.817  19.082  0.00  0.00    +0.000 NA
ATOM      5  C   UNL     1       2.347   6.909  18.625  0.00  0.00    +0.000 A 
ATOM      6  C   UNL     1       3.347   6.907  17.669  0.00  0.00    +0.000 A 
ATOM      7  C   UNL     1       3.606   8.265  17.422  0.00  0.00    +0.000 A 
ATOM      8  N   UNL     1       2.820   9.080  18.125  0.00  0.00    +0.000 NA
ATOM      9  N   UNL     1       2.124   8.240  18.956  0.00  0.00    +0.000 N 
ENDROOT
BRANCH   9  10
ATOM     10  C   UNL     1       1.253   8.794  19.929  0.00  0.00    +0.000 A 
ATOM     11  C   UNL     1       1.447   8.398  21.269  0.00  0.00    +0.000 A 
ATOM     12  C   UNL     1       0.654   8.922  22.289  0.00  0.00    +0.000 A 
ATOM     13  C   UNL     1      -0.354   9.832  21.985  0.00  0.00    +0.000 A 
ATOM     14  C   UNL     1      -0.579  10.200  20.658  0.00  0.00    +0.000 A 
ATOM     15  C   UNL     1       0.212   9.680  19.622  0.00  0.00    +0.000 A 
ATOM     16 CL   UNL     1      -0.341  10.032  18.021  0.00  0.00    +0.000 Cl
ENDBRANCH   9  10
BRANCH   3  17
ATOM     17  C   UNL     1       1.566   3.379  19.096  0.00  0.00    +0.000 C 
ATOM     18  C   UNL     1       2.540   2.190  19.040  0.00  0.00    +0.000 C 
ATOM     19  C   UNL     1       3.603   2.211  20.137  0.00  0.00    +0.000 C 
ATOM     20  C   UNL     1       3.015   2.412  21.530  0.00  0.00    +0.000 C 
ATOM     21  C   UNL     1       2.029   3.574  21.615  0.00  0.00    +0.000 C 
ATOM     22  C   UNL     1       0.976   3.530  20.507  0.00  0.00    +0.000 C 
ENDBRANCH   3  17
BRANCH   1  23
ATOM     23  N   UNL     1       4.758   5.543  16.198  0.00  0.00    +0.000 N 
ATOM     24  H   UNL     1       4.567   4.808  15.528  0.00  0.00    +0.000 HD
BRANCH  23  25
ATOM     25  C   UNL     1       6.145   5.562  16.672  0.00  0.00    +0.000 C 
BRANCH  25  26
ATOM     26  C   UNL     1       6.950   4.369  16.126  0.00  0.00    +0.000 C 
BRANCH  26  29
ATOM     27  C   UNL     1       7.025   4.546  13.669  0.00  0.00    +0.000 C 
ATOM     28  O   UNL     1       7.876   5.429  13.714  0.00  0.00    +0.000 OA
ATOM     29  N   UNL     1       6.534   3.942  14.805  0.00  0.00    +0.000 N 
ATOM     30  H   UNL     1       5.846   3.205  14.733  0.00  0.00    +0.000 HD
BRANCH  27  32
ATOM     31  C   UNL     1       7.227   2.941  11.751  0.00  0.00    +0.000 C 
ATOM     32  C   UNL     1       6.386   4.056  12.372  0.00  0.00    +0.000 C 
ATOM     33  C   UNL     1       4.957   3.573  12.603  0.00  0.00    +0.000 C 
ENDBRANCH  27  32
ENDBRANCH  26  29
ENDBRANCH  25  26
ENDBRANCH  23  25
ENDBRANCH   1  23
TORSDOF 7
ENDMDL
MODEL 7
REMARK VINA RESULT:      -8.2      1.744      2.685
REMARK  Name = 
REMARK  9 active torsions:
REMARK  status: ('A' for Active; 'I' for Inactive)
REMARK    1  A    between atoms: C_1  and  C_2
REMARK    2  A    between atoms: C_2  and  C_3
REMARK    3  A    between atoms: C_2  and  C_4
REMARK    4  A    between atoms: N_6  and  C_7
REMARK    5  A    between atoms: C_7  and  C_8
REMARK    6  A    between atoms: C_8  and  N_9
REMARK    7  A    between atoms: N_9  and  C_10
REMARK    8  A    between atoms: C_12  and  C_13
REMARK    9  A    between atoms: N_24  and  C_25
REMARK                            x       y       z     vdW  Elec       q    Type
REMARK                         _______ _______ _______ _____ _____    ______ ____
ROOT
ATOM      1  C   UNL     1       4.988   4.296  17.219  0.00  0.00    +0.000 A 
ATOM      2  N   UNL     1       4.254   3.261  17.688  0.00  0.00    +0.000 NA
ATOM      3  C   UNL     1       3.145   3.478  18.425  0.00  0.00    +0.000 A 
ATOM      4  N   UNL     1       2.654   4.682  18.756  0.00  0.00    +0.000 NA
ATOM      5  C   UNL     1       3.424   5.703  18.327  0.00  0.00    +0.000 A 
ATOM      6  C   UNL     1       4.556   5.582  17.541  0.00  0.00    +0.000 A 
ATOM      7  C   UNL     1       4.924   6.903  17.239  0.00  0.00    +0.000 A 
ATOM      8  N   UNL     1       4.086   7.805  17.751  0.00  0.00    +0.000 NA
ATOM      9  N   UNL     1       3.227   7.065  18.522  0.00  0.00    +0.000 N 
ENDROOT
BRANCH   9  10
ATOM     10  C   UNL     1       2.250   7.733  19.305  0.00  0.00    +0.000 A 
ATOM     11  C   UNL     1       1.845   7.108  20.502  0.00  0.00    +0.000 A 
ATOM     12  C   UNL     1       0.914   7.716  21.344  0.00  0.00    +0.000 A 
ATOM     13  C   UNL     1       0.361   8.943  20.994  0.00  0.00    +0.000 A 
ATOM     14  C   UNL     1       0.726   9.550  19.792  0.00  0.00    +0.000 A 
ATOM     15  C   UNL     1       1.661   8.950  18.936  0.00  0.00    +0.000 A 
ATOM     16 CL   UNL     1       1.824   9.692  17.381  0.00  0.00    +0.000 Cl
ENDBRANCH   9  10
BRANCH   3  17
ATOM     17  C   UNL     1       2.387   2.260  18.928  0.00  0.00    +0.000 C 
ATOM     18  C   UNL     1       3.011   1.651  20.195  0.00  0.00    +0.000 C 
ATOM     19  C   UNL     1       2.729   2.450  21.466  0.00  0.00    +0.000 C 
ATOM     20  C   UNL     1       1.250   2.775  21.648  0.00  0.00    +0.000 C 
ATOM     21  C   UNL     1       0.596   3.364  20.401  0.00  0.00    +0.000 C 
ATOM     22  C   UNL     1       0.892   2.546  19.143  0.00  0.00    +0.000 C 
ENDBRANCH   3  17
BRANCH   1  23
ATOM     23  N   UNL     1       6.097   4.043  16.412  0.00  0.00    +0.000 N 
ATOM     24  H   UNL     1       6.802   3.467  16.856  0.00  0.00    +0.000 HD
BRANCH  23  25
ATOM     25  C   UNL     1       6.645   5.202  15.700  0.00  0.00    +0.000 C 
BRANCH  25  26
ATOM     26  C   UNL     1       7.103   4.832  14.278  0.00  0.00    +0.000 C 
BRANCH  26  29
ATOM     27  C   UNL     1       6.416   3.481  12.334  0.00  0.00    +0.000 C 
ATOM     28  O   UNL     1       7.177   4.088  11.587  0.00  0.00    +0.000 OA
ATOM     29  N   UNL     1       6.337   3.755  13.681  0.00  0.00    +0.000 N 
ATOM     30  H   UNL     1       5.712   3.225  14.273  0.00  0.00    +0.000 HD
BRANCH  27  32
ATOM     31  C   UNL     1       4.262   3.030  11.130  0.00  0.00    +0.000 C 
ATOM     32  C   UNL     1       5.450   2.400  11.856  0.00  0.00    +0.000 C 
ATOM     33  C   UNL     1       6.149   1.391  10.948  0.00  0.00    +0.000 C 
ENDBRANCH  27  32
ENDBRANCH  26  29
ENDBRANCH  25  26
ENDBRANCH  23  25
ENDBRANCH   1  23
TORSDOF 7
ENDMDL
MODEL 8
REMARK VINA RESULT:      -8.0      1.098      1.592
REMARK  Name = 
REMARK  9 active torsions:
REMARK  status: ('A' for Active; 'I' for Inactive)
REMARK    1  A    between atoms: C_1  and  C_2
REMARK    2  A    between atoms: C_2  and  C_3
REMARK    3  A    between atoms: C_2  and  C_4
REMARK    4  A    between atoms: N_6  and  C_7
REMARK    5  A    between atoms: C_7  and  C_8
REMARK    6  A    between atoms: C_8  and  N_9
REMARK    7  A    between atoms: N_9  and  C_10
REMARK    8  A    between atoms: C_12  and  C_13
REMARK    9  A    between atoms: N_24  and  C_25
REMARK                            x       y       z     vdW  Elec       q    Type
REMARK                         _______ _______ _______ _____ _____    ______ ____
ROOT
ATOM      1  C   UNL     1       3.987   6.220  18.038  0.00  0.00    +0.000 A 
ATOM      2  N   UNL     1       3.603   5.266  18.916  0.00  0.00    +0.000 NA
ATOM      3  C   UNL     1       2.580   5.483  19.771  0.00  0.00    +0.000 A 
ATOM      4  N   UNL     1       1.853   6.607  19.842  0.00  0.00    +0.000 NA
ATOM      5  C   UNL     1       2.280   7.570  18.999  0.00  0.00    +0.000 A 
ATOM      6  C   UNL     1       3.293   7.429  18.067  0.00  0.00    +0.000 A 
ATOM      7  C   UNL     1       3.277   8.630  17.339  0.00  0.00    +0.000 A 
ATOM      8  N   UNL     1       2.315   9.464  17.735  0.00  0.00    +0.000 NA
ATOM      9  N   UNL     1       1.777   8.855  18.839  0.00  0.00    +0.000 N 
ENDROOT
BRANCH   9  10
ATOM     10  C   UNL     1       0.775   9.531  19.583  0.00  0.00    +0.000 A 
ATOM     11  C   UNL     1      -0.220  10.214  18.854  0.00  0.00    +0.000 A 
ATOM     12  C   UNL     1      -1.258  10.875  19.510  0.00  0.00    +0.000 A 
ATOM     13  C   UNL     1      -1.305  10.880  20.900  0.00  0.00    +0.000 A 
ATOM     14  C   UNL     1      -0.304  10.241  21.631  0.00  0.00    +0.000 A 
ATOM     15  C   UNL     1       0.746   9.572  20.983  0.00  0.00    +0.000 A 
ATOM     16 CL   UNL     1       2.034   9.045  22.011  0.00  0.00    +0.000 Cl
ENDBRANCH   9  10
BRANCH   3  17
ATOM     17  C   UNL     1       2.224   4.365  20.736  0.00  0.00    +0.000 C 
ATOM     18  C   UNL     1       0.797   3.830  20.528  0.00  0.00    +0.000 C 
ATOM     19  C   UNL     1       0.650   2.928  19.303  0.00  0.00    +0.000 C 
ATOM     20  C   UNL     1       1.697   1.820  19.252  0.00  0.00    +0.000 C 
ATOM     21  C   UNL     1       3.123   2.316  19.475  0.00  0.00    +0.000 C 
ATOM     22  C   UNL     1       3.244   3.216  20.706  0.00  0.00    +0.000 C 
ENDBRANCH   3  17
BRANCH   1  23
ATOM     23  N   UNL     1       5.007   5.947  17.128  0.00  0.00    +0.000 N 
ATOM     24  H   UNL     1       4.845   5.118  16.569  0.00  0.00    +0.000 HD
BRANCH  23  25
ATOM     25  C   UNL     1       6.373   6.046  17.653  0.00  0.00    +0.000 C 
BRANCH  25  26
ATOM     26  C   UNL     1       7.351   5.158  16.863  0.00  0.00    +0.000 C 
BRANCH  26  29
ATOM     27  C   UNL     1       6.546   4.433  14.650  0.00  0.00    +0.000 C 
ATOM     28  O   UNL     1       5.916   3.499  15.136  0.00  0.00    +0.000 OA
ATOM     29  N   UNL     1       7.255   5.322  15.426  0.00  0.00    +0.000 N 
ATOM     30  H   UNL     1       7.750   6.092  14.996  0.00  0.00    +0.000 HD
BRANCH  27  32
ATOM     31  C   UNL     1       8.023   5.273  12.803  0.00  0.00    +0.000 C 
ATOM     32  C   UNL     1       6.655   4.685  13.148  0.00  0.00    +0.000 C 
ATOM     33  C   UNL     1       6.412   3.407  12.350  0.00  0.00    +0.000 C 
ENDBRANCH  27  32
ENDBRANCH  26  29
ENDBRANCH  25  26
ENDBRANCH  23  25
ENDBRANCH   1  23
TORSDOF 7
ENDMDL
MODEL 9
REMARK VINA RESULT:      -7.9      1.438      2.104
REMARK  Name = 
REMARK  9 active torsions:
REMARK  status: ('A' for Active; 'I' for Inactive)
REMARK    1  A    between atoms: C_1  and  C_2
REMARK    2  A    between atoms: C_2  and  C_3
REMARK    3  A    between atoms: C_2  and  C_4
REMARK    4  A    between atoms: N_6  and  C_7
REMARK    5  A    between atoms: C_7  and  C_8
REMARK    6  A    between atoms: C_8  and  N_9
REMARK    7  A    between atoms: N_9  and  C_10
REMARK    8  A    between atoms: C_12  and  C_13
REMARK    9  A    between atoms: N_24  and  C_25
REMARK                            x       y       z     vdW  Elec       q    Type
REMARK                         _______ _______ _______ _____ _____    ______ ____
ROOT
ATOM      1  C   UNL     1       4.620   5.907  16.894  0.00  0.00    +0.000 A 
ATOM      2  N   UNL     1       4.305   4.690  17.394  0.00  0.00    +0.000 NA
ATOM      3  C   UNL     1       3.335   4.554  18.323  0.00  0.00    +0.000 A 
ATOM      4  N   UNL     1       2.597   5.553  18.829  0.00  0.00    +0.000 NA
ATOM      5  C   UNL     1       2.957   6.766  18.362  0.00  0.00    +0.000 A 
ATOM      6  C   UNL     1       3.912   7.002  17.389  0.00  0.00    +0.000 A 
ATOM      7  C   UNL     1       3.833   8.381  17.138  0.00  0.00    +0.000 A 
ATOM      8  N   UNL     1       2.887   8.986  17.856  0.00  0.00    +0.000 NA
ATOM      9  N   UNL     1       2.427   8.006  18.698  0.00  0.00    +0.000 N 
ENDROOT
BRANCH   9  10
ATOM     10  C   UNL     1       1.465   8.338  19.686  0.00  0.00    +0.000 A 
ATOM     11  C   UNL     1       1.541   7.654  20.917  0.00  0.00    +0.000 A 
ATOM     12  C   UNL     1       0.653   7.947  21.951  0.00  0.00    +0.000 A 
ATOM     13  C   UNL     1      -0.334   8.909  21.766  0.00  0.00    +0.000 A 
ATOM     14  C   UNL     1      -0.443   9.563  20.538  0.00  0.00    +0.000 A 
ATOM     15  C   UNL     1       0.444   9.278  19.489  0.00  0.00    +0.000 A 
ATOM     16 CL   UNL     1       0.034   9.980  17.961  0.00  0.00    +0.000 Cl
ENDBRANCH   9  10
BRANCH   3  17
ATOM     17  C   UNL     1       3.055   3.154  18.844  0.00  0.00    +0.000 C 
ATOM     18  C   UNL     1       3.451   2.977  20.320  0.00  0.00    +0.000 C 
ATOM     19  C   UNL     1       2.476   3.624  21.302  0.00  0.00    +0.000 C 
ATOM     20  C   UNL     1       1.024   3.235  21.042  0.00  0.00    +0.000 C 
ATOM     21  C   UNL     1       0.605   3.381  19.582  0.00  0.00    +0.000 C 
ATOM     22  C   UNL     1       1.596   2.725  18.620  0.00  0.00    +0.000 C 
ENDBRANCH   3  17
BRANCH   1  23
ATOM     23  N   UNL     1       5.585   6.011  15.894  0.00  0.00    +0.000 N 
ATOM     24  H   UNL     1       5.201   6.176  14.971  0.00  0.00    +0.000 HD
BRANCH  23  25
ATOM     25  C   UNL     1       6.641   4.994  15.918  0.00  0.00    +0.000 C 
BRANCH  25  26
ATOM     26  C   UNL     1       7.140   4.657  14.502  0.00  0.00    +0.000 C 
BRANCH  26  29
ATOM     27  C   UNL     1       6.391   3.484  12.468  0.00  0.00    +0.000 C 
ATOM     28  O   UNL     1       7.132   4.154  11.755  0.00  0.00    +0.000 OA
ATOM     29  N   UNL     1       6.352   3.638  13.835  0.00  0.00    +0.000 N 
ATOM     30  H   UNL     1       5.743   3.058  14.396  0.00  0.00    +0.000 HD
BRANCH  27  32
ATOM     31  C   UNL     1       4.252   3.143  11.201  0.00  0.00    +0.000 C 
ATOM     32  C   UNL     1       5.407   2.451  11.924  0.00  0.00    +0.000 C 
ATOM     33  C   UNL     1       6.098   1.461  10.990  0.00  0.00    +0.000 C 
ENDBRANCH  27  32
ENDBRANCH  26  29
ENDBRANCH  25  26
ENDBRANCH  23  25
ENDBRANCH   1  23
TORSDOF 7
ENDMDL
