MODEL 1
REMARK VINA RESULT:      -7.5      0.000      0.000
REMARK  Name = 
REMARK  7 active torsions:
REMARK  status: ('A' for Active; 'I' for Inactive)
REMARK    1  A    between atoms: C_1  and  O_2
REMARK    2  A    between atoms: O_2  and  C_3
REMARK    3  A    between atoms: C_6  and  N_7
REMARK    4  A    between atoms: C_14  and  C_15
REMARK    5  A    between atoms: C_14  and  N_16
REMARK    6  A    between atoms: N_16  and  C_17
REMARK    7  A    between atoms: C_17  and  C_18
REMARK                            x       y       z     vdW  Elec       q    Type
REMARK                         _______ _______ _______ _____ _____    ______ ____
ROOT
ATOM      1  N   UNL     1       4.197   4.364  18.432  0.00  0.00    +0.000 N 
ATOM      2  C   UNL     1       4.248   3.377  19.410  0.00  0.00    +0.000 C 
ATOM      3  O   UNL     1       4.969   2.384  19.435  0.00  0.00    +0.000 OA
ATOM      4  N   UNL     1       3.408   3.551  20.479  0.00  0.00    +0.000 N 
ATOM      5  C   UNL     1       2.545   4.578  20.703  0.00  0.00    +0.000 C 
ATOM      6  O   UNL     1       1.853   4.589  21.718  0.00  0.00    +0.000 OA
ATOM      7  C   UNL     1       2.525   5.608  19.647  0.00  0.00    +0.000 C 
ATOM      8  C   UNL     1       2.153   6.888  19.879  0.00  0.00    +0.000 C 
ATOM      9  C   UNL     1       2.220   7.993  18.841  0.00  0.00    +0.000 C 
ATOM     10  C   UNL     1       3.063   5.179  18.321  0.00  0.00    +0.000 C 
ATOM     11  O   UNL     1       2.530   5.498  17.269  0.00  0.00    +0.000 OA
ATOM     12  H   UNL     1       3.492   2.859  21.213  0.00  0.00    +0.000 HD
ENDROOT
BRANCH   1  16
ATOM     13  C   UNL     1       7.038   5.027  15.339  0.00  0.00    +0.000 A 
ATOM     14  C   UNL     1       7.117   5.768  16.513  0.00  0.00    +0.000 A 
ATOM     15  C   UNL     1       6.239   5.520  17.573  0.00  0.00    +0.000 A 
ATOM     16  C   UNL     1       5.253   4.529  17.475  0.00  0.00    +0.000 A 
ATOM     17  C   UNL     1       5.208   3.773  16.291  0.00  0.00    +0.000 A 
ATOM     18  C   UNL     1       6.075   4.029  15.229  0.00  0.00    +0.000 A 
BRANCH  13  20
ATOM     19  C   UNL     1       7.536   4.949  13.044  0.00  0.00    +0.000 C 
ATOM     20  O   UNL     1       7.908   5.383  14.349  0.00  0.00    +0.000 OA
ENDBRANCH  13  20
ENDBRANCH   1  16
BRANCH   8  21
ATOM     21  N   UNL     1       1.805   7.434  21.127  0.00  0.00    +0.000 N 
ATOM     22  H   UNL     1       2.081   6.832  21.909  0.00  0.00    +0.000 HD
BRANCH  21  23
ATOM     23  C   UNL     1       0.441   7.915  21.417  0.00  0.00    +0.000 C 
BRANCH  23  24
ATOM     24  C   UNL     1       0.484   9.382  21.871  0.00  0.00    +0.000 C 
ATOM     25  C   UNL     1      -0.441   9.704  23.037  0.00  0.00    +0.000 C 
ATOM     26  C   UNL     1      -0.784  11.149  22.791  0.00  0.00    +0.000 C 
ATOM     27  C   UNL     1      -0.809  11.236  21.282  0.00  0.00    +0.000 C 
ATOM     28  O   UNL     1       0.114  10.260  20.785  0.00  0.00    +0.000 OA
ENDBRANCH  23  24
ENDBRANCH  21  23
ENDBRANCH   8  21
TORSDOF 5
ENDMDL
MODEL 2
REMARK VINA RESULT:      -7.5      2.202      8.102
REMARK  Name = 
REMARK  7 active torsions:
REMARK  status: ('A' for Active; 'I' for Inactive)
REMARK    1  A    between atoms: C_1  and  O_2
REMARK    2  A    between atoms: O_2  and  C_3
REMARK    3  A    between atoms: C_6  and  N_7
REMARK    4  A    between atoms: C_14  and  C_15
REMARK    5  A    between atoms: C_14  and  N_16
REMARK    6  A    between atoms: N_16  and  C_17
REMARK    7  A    between atoms: C_17  and  C_18
REMARK                            x       y       z     vdW  Elec       q    Type
REMARK                         _______ _______ _______ _____ _____    ______ ____
ROOT
ATOM      1  N   UNL     1       3.299   5.600  18.475  0.00  0.00    +0.000 N 
ATOM      2  C   UNL     1       2.529   4.564  17.958  0.00  0.00    +0.000 C 
ATOM      3  O   UNL     1       1.311   4.432  18.025  0.00  0.00    +0.000 OA
ATOM      4  N   UNL     1       3.214   3.593  17.275  0.00  0.00    +0.000 N 
ATOM      5  C   UNL     1       4.551   3.529  17.033  0.00  0.00    +0.000 C 
ATOM      6  O   UNL     1       5.016   2.585  16.401  0.00  0.00    +0.000 OA
ATOM      7  C   UNL     1       5.332   4.648  17.591  0.00  0.00    +0.000 C 
ATOM      8  C   UNL     1       6.520   5.042  17.076  0.00  0.00    +0.000 C 
ATOM      9  C   UNL     1       7.297   6.251  17.562  0.00  0.00    +0.000 C 
ATOM     10  C   UNL     1       4.670   5.408  18.695  0.00  0.00    +0.000 C 
ATOM     11  O   UNL     1       5.280   5.783  19.684  0.00  0.00    +0.000 OA
ATOM     12  H   UNL     1       2.640   2.874  16.853  0.00  0.00    +0.000 HD
ENDROOT
BRANCH   1  16
ATOM     13  C   UNL     1       1.229   9.198  19.394  0.00  0.00    +0.000 A 
ATOM     14  C   UNL     1       1.416   8.242  20.386  0.00  0.00    +0.000 A 
ATOM     15  C   UNL     1       2.155   7.083  20.129  0.00  0.00    +0.000 A 
ATOM     16  C   UNL     1       2.714   6.850  18.865  0.00  0.00    +0.000 A 
ATOM     17  C   UNL     1       2.536   7.841  17.884  0.00  0.00    +0.000 A 
ATOM     18  C   UNL     1       1.789   8.991  18.137  0.00  0.00    +0.000 A 
BRANCH  13  20
ATOM     19  C   UNL     1      -0.756  10.388  18.987  0.00  0.00    +0.000 C 
ATOM     20  O   UNL     1       0.451  10.267  19.733  0.00  0.00    +0.000 OA
ENDBRANCH  13  20
ENDBRANCH   1  16
BRANCH   8  21
ATOM     21  N   UNL     1       7.140   4.512  15.931  0.00  0.00    +0.000 N 
ATOM     22  H   UNL     1       8.162   4.515  16.002  0.00  0.00    +0.000 HD
BRANCH  21  23
ATOM     23  C   UNL     1       6.802   4.977  14.573  0.00  0.00    +0.000 C 
BRANCH  23  24
ATOM     24  C   UNL     1       6.386   3.788  13.695  0.00  0.00    +0.000 C 
ATOM     25  C   UNL     1       7.119   3.706  12.363  0.00  0.00    +0.000 C 
ATOM     26  C   UNL     1       6.102   3.044  11.471  0.00  0.00    +0.000 C 
ATOM     27  C   UNL     1       4.792   3.583  12.001  0.00  0.00    +0.000 C 
ATOM     28  O   UNL     1       4.973   3.849  13.396  0.00  0.00    +0.000 OA
ENDBRANCH  23  24
ENDBRANCH  21  23
ENDBRANCH   8  21
TORSDOF 5
ENDMDL
MODEL 3
REMARK VINA RESULT:      -7.3      1.744      8.039
REMARK  Name = 
REMARK  7 active torsions:
REMARK  status: ('A' for Active; 'I' for Inactive)
REMARK    1  A    between atoms: C_1  and  O_2
REMARK    2  A    between atoms: O_2  and  C_3
REMARK    3  A    between atoms: C_6  and  N_7
REMARK    4  A    between atoms: C_14  and  C_15
REMARK    5  A    between atoms: C_14  and  N_16
REMARK    6  A    between atoms: N_16  and  C_17
REMARK    7  A    between atoms: C_17  and  C_18
REMARK                            x       y       z     vdW  Elec       q    Type
REMARK                         _______ _______ _______ _____ _____    ______ ____
ROOT
ATOM      1  N   UNL     1       2.665   5.485  19.523  0.00  0.00    +0.000 N 
ATOM      2  C   UNL     1       1.814   4.387  19.584  0.00  0.00    +0.000 C 
ATOM      3  O   UNL     1       0.709   4.325  20.116  0.00  0.00    +0.000 OA
ATOM      4  N   UNL     1       2.255   3.252  18.955  0.00  0.00    +0.000 N 
ATOM      5  C   UNL     1       3.417   3.078  18.268  0.00  0.00    +0.000 C 
ATOM      6  O   UNL     1       3.670   1.990  17.757  0.00  0.00    +0.000 OA
ATOM      7  C   UNL     1       4.289   4.266  18.221  0.00  0.00    +0.000 C 
ATOM      8  C   UNL     1       5.190   4.474  17.233  0.00  0.00    +0.000 C 
ATOM      9  C   UNL     1       6.028   5.733  17.099  0.00  0.00    +0.000 C 
ATOM     10  C   UNL     1       4.031   5.296  19.272  0.00  0.00    +0.000 C 
ATOM     11  O   UNL     1       4.936   5.874  19.852  0.00  0.00    +0.000 OA
ATOM     12  H   UNL     1       1.605   2.476  18.954  0.00  0.00    +0.000 HD
ENDROOT
BRANCH   1  16
ATOM     13  C   UNL     1       0.949   9.340  20.045  0.00  0.00    +0.000 A 
ATOM     14  C   UNL     1       0.953   8.441  21.107  0.00  0.00    +0.000 A 
ATOM     15  C   UNL     1       1.575   7.195  20.983  0.00  0.00    +0.000 A 
ATOM     16  C   UNL     1       2.196   6.815  19.785  0.00  0.00    +0.000 A 
ATOM     17  C   UNL     1       2.205   7.748  18.734  0.00  0.00    +0.000 A 
ATOM     18  C   UNL     1       1.574   8.986  18.854  0.00  0.00    +0.000 A 
BRANCH  13  20
ATOM     19  C   UNL     1      -0.440  10.994  19.121  0.00  0.00    +0.000 C 
ATOM     20  O   UNL     1       0.273  10.507  20.253  0.00  0.00    +0.000 OA
ENDBRANCH  13  20
ENDBRANCH   1  16
BRANCH   8  21
ATOM     21  N   UNL     1       5.382   3.658  16.105  0.00  0.00    +0.000 N 
ATOM     22  H   UNL     1       5.120   2.683  16.277  0.00  0.00    +0.000 HD
BRANCH  21  23
ATOM     23  C   UNL     1       6.659   3.634  15.366  0.00  0.00    +0.000 C 
BRANCH  23  24
ATOM     24  C   UNL     1       6.551   4.492  14.097  0.00  0.00    +0.000 C 
ATOM     25  C   UNL     1       6.585   3.697  12.799  0.00  0.00    +0.000 C 
ATOM     26  C   UNL     1       7.206   4.673  11.834  0.00  0.00    +0.000 C 
ATOM     27  C   UNL     1       8.175   5.436  12.709  0.00  0.00    +0.000 C 
ATOM     28  O   UNL     1       7.635   5.445  14.035  0.00  0.00    +0.000 OA
ENDBRANCH  23  24
ENDBRANCH  21  23
ENDBRANCH   8  21
TORSDOF 5
ENDMDL
MODEL 4
REMARK VINA RESULT:      -7.3      1.886      8.047
REMARK  Name = 
REMARK  7 active torsions:
REMARK  status: ('A' for Active; 'I' for Inactive)
REMARK    1  A    between atoms: C_1  and  O_2
REMARK    2  A    between atoms: O_2  and  C_3
REMARK    3  A    between atoms: C_6  and  N_7
REMARK    4  A    between atoms: C_14  and  C_15
REMARK    5  A    between atoms: C_14  and  N_16
REMARK    6  A    between atoms: N_16  and  C_17
REMARK    7  A    between atoms: C_17  and  C_18
REMARK                            x       y       z     vdW  Elec       q    Type
REMARK                         _______ _______ _______ _____ _____    ______ ____
ROOT
ATOM      1  N   UNL     1       2.933   5.461  19.140  0.00  0.00    +0.000 N 
ATOM      2  C   UNL     1       2.073   4.371  19.083  0.00  0.00    +0.000 C 
ATOM      3  O   UNL     1       0.917   4.307  19.491  0.00  0.00    +0.000 OA
ATOM      4  N   UNL     1       2.572   3.245  18.481  0.00  0.00    +0.000 N 
ATOM      5  C   UNL     1       3.800   3.074  17.920  0.00  0.00    +0.000 C 
ATOM      6  O   UNL     1       4.100   1.996  17.416  0.00  0.00    +0.000 OA
ATOM      7  C   UNL     1       4.680   4.255  17.994  0.00  0.00    +0.000 C 
ATOM      8  C   UNL     1       5.685   4.476  17.114  0.00  0.00    +0.000 C 
ATOM      9  C   UNL     1       6.541   5.729  17.101  0.00  0.00    +0.000 C 
ATOM     10  C   UNL     1       4.316   5.265  19.034  0.00  0.00    +0.000 C 
ATOM     11  O   UNL     1       5.158   5.822  19.721  0.00  0.00    +0.000 OA
ATOM     12  H   UNL     1       1.920   2.476  18.392  0.00  0.00    +0.000 HD
ENDROOT
BRANCH   1  16
ATOM     13  C   UNL     1       1.161   9.298  19.609  0.00  0.00    +0.000 A 
ATOM     14  C   UNL     1       1.222   8.432  20.696  0.00  0.00    +0.000 A 
ATOM     15  C   UNL     1       1.863   7.194  20.587  0.00  0.00    +0.000 A 
ATOM     16  C   UNL     1       2.448   6.790  19.379  0.00  0.00    +0.000 A 
ATOM     17  C   UNL     1       2.400   7.690  18.301  0.00  0.00    +0.000 A 
ATOM     18  C   UNL     1       1.750   8.919  18.406  0.00  0.00    +0.000 A 
BRANCH  13  20
ATOM     19  C   UNL     1      -0.916  10.389  19.486  0.00  0.00    +0.000 C 
ATOM     20  O   UNL     1       0.470  10.458  19.807  0.00  0.00    +0.000 OA
ENDBRANCH  13  20
ENDBRANCH   1  16
BRANCH   8  21
ATOM     21  N   UNL     1       5.993   3.682  15.996  0.00  0.00    +0.000 N 
ATOM     22  H   UNL     1       6.204   2.712  16.250  0.00  0.00    +0.000 HD
BRANCH  21  23
ATOM     23  C   UNL     1       7.000   4.093  15.000  0.00  0.00    +0.000 C 
BRANCH  23  24
ATOM     24  C   UNL     1       6.337   4.286  13.627  0.00  0.00    +0.000 C 
ATOM     25  C   UNL     1       4.942   3.687  13.516  0.00  0.00    +0.000 C 
ATOM     26  C   UNL     1       4.855   3.332  12.055  0.00  0.00    +0.000 C 
ATOM     27  C   UNL     1       6.277   2.939  11.721  0.00  0.00    +0.000 C 
ATOM     28  O   UNL     1       7.139   3.683  12.588  0.00  0.00    +0.000 OA
ENDBRANCH  23  24
ENDBRANCH  21  23
ENDBRANCH   8  21
TORSDOF 5
ENDMDL
MODEL 5
REMARK VINA RESULT:      -7.1      2.132      7.947
REMARK  Name = 
REMARK  7 active torsions:
REMARK  status: ('A' for Active; 'I' for Inactive)
REMARK    1  A    between atoms: C_1  and  O_2
REMARK    2  A    between atoms: O_2  and  C_3
REMARK    3  A    between atoms: C_6  and  N_7
REMARK    4  A    between atoms: C_14  and  C_15
REMARK    5  A    between atoms: C_14  and  N_16
REMARK    6  A    between atoms: N_16  and  C_17
REMARK    7  A    between atoms: C_17  and  C_18
REMARK                            x       y       z     vdW  Elec       q    Type
REMARK                         _______ _______ _______ _____ _____    ______ ____
ROOT
ATOM      1  N   UNL     1       2.903   5.328  18.665  0.00  0.00    +0.000 N 
ATOM      2  C   UNL     1       2.166   4.241  18.208  0.00  0.00    +0.000 C 
ATOM      3  O   UNL     1       0.950   4.088  18.256  0.00  0.00    +0.000 OA
ATOM      4  N   UNL     1       2.887   3.236  17.617  0.00  0.00    +0.000 N 
ATOM      5  C   UNL     1       4.231   3.184  17.411  0.00  0.00    +0.000 C 
ATOM      6  O   UNL     1       4.730   2.205  16.863  0.00  0.00    +0.000 OA
ATOM      7  C   UNL     1       4.976   4.357  17.903  0.00  0.00    +0.000 C 
ATOM      8  C   UNL     1       6.169   4.737  17.388  0.00  0.00    +0.000 C 
ATOM      9  C   UNL     1       6.909   5.995  17.800  0.00  0.00    +0.000 C 
ATOM     10  C   UNL     1       4.271   5.182  18.930  0.00  0.00    +0.000 C 
ATOM     11  O   UNL     1       4.849   5.643  19.903  0.00  0.00    +0.000 OA
ATOM     12  H   UNL     1       2.338   2.476  17.236  0.00  0.00    +0.000 HD
ENDROOT
BRANCH   1  16
ATOM     13  C   UNL     1       1.407   9.163  19.732  0.00  0.00    +0.000 A 
ATOM     14  C   UNL     1       1.810   8.924  18.422  0.00  0.00    +0.000 A 
ATOM     15  C   UNL     1       2.238   7.651  18.029  0.00  0.00    +0.000 A 
ATOM     16  C   UNL     1       2.284   6.591  18.945  0.00  0.00    +0.000 A 
ATOM     17  C   UNL     1       1.847   6.847  20.256  0.00  0.00    +0.000 A 
ATOM     18  C   UNL     1       1.431   8.118  20.651  0.00  0.00    +0.000 A 
BRANCH  13  20
ATOM     19  C   UNL     1       1.145  11.355  18.928  0.00  0.00    +0.000 C 
ATOM     20  O   UNL     1       1.056  10.449  20.024  0.00  0.00    +0.000 OA
ENDBRANCH  13  20
ENDBRANCH   1  16
BRANCH   8  21
ATOM     21  N   UNL     1       6.827   4.136  16.301  0.00  0.00    +0.000 N 
ATOM     22  H   UNL     1       7.504   3.425  16.597  0.00  0.00    +0.000 HD
BRANCH  21  23
ATOM     23  C   UNL     1       7.478   4.934  15.245  0.00  0.00    +0.000 C 
BRANCH  23  24
ATOM     24  C   UNL     1       6.655   4.866  13.949  0.00  0.00    +0.000 C 
ATOM     25  C   UNL     1       5.760   3.640  13.839  0.00  0.00    +0.000 C 
ATOM     26  C   UNL     1       5.697   3.414  12.352  0.00  0.00    +0.000 C 
ATOM     27  C   UNL     1       7.070   3.848  11.889  0.00  0.00    +0.000 C 
ATOM     28  O   UNL     1       7.526   4.857  12.796  0.00  0.00    +0.000 OA
ENDBRANCH  23  24
ENDBRANCH  21  23
ENDBRANCH   8  21
TORSDOF 5
ENDMDL
MODEL 6
REMARK VINA RESULT:      -7.0      0.357      1.006
REMARK  Name = 
REMARK  7 active torsions:
REMARK  status: ('A' for Active; 'I' for Inactive)
REMARK    1  A    between atoms: C_1  and  O_2
REMARK    2  A    between atoms: O_2  and  C_3
REMARK    3  A    between atoms: C_6  and  N_7
REMARK    4  A    between atoms: C_14  and  C_15
REMARK    5  A    between atoms: C_14  and  N_16
REMARK    6  A    between atoms: N_16  and  C_17
REMARK    7  A    between atoms: C_17  and  C_18
REMARK                            x       y       z     vdW  Elec       q    Type
REMARK                         _______ _______ _______ _____ _____    ______ ____
ROOT
ATOM      1  N   UNL     1       3.971   4.709  18.222  0.00  0.00    +0.000 N 
ATOM      2  C   UNL     1       4.171   3.726  19.185  0.00  0.00    +0.000 C 
ATOM      3  O   UNL     1       4.929   2.762  19.124  0.00  0.00    +0.000 OA
ATOM      4  N   UNL     1       3.453   3.867  20.344  0.00  0.00    +0.000 N 
ATOM      5  C   UNL     1       2.581   4.861  20.668  0.00  0.00    +0.000 C 
ATOM      6  O   UNL     1       2.011   4.846  21.755  0.00  0.00    +0.000 OA
ATOM      7  C   UNL     1       2.401   5.887  19.625  0.00  0.00    +0.000 C 
ATOM      8  C   UNL     1       2.008   7.152  19.902  0.00  0.00    +0.000 C 
ATOM      9  C   UNL     1       1.913   8.258  18.867  0.00  0.00    +0.000 C 
ATOM     10  C   UNL     1       2.800   5.478  18.244  0.00  0.00    +0.000 C 
ATOM     11  O   UNL     1       2.139   5.775  17.261  0.00  0.00    +0.000 OA
ATOM     12  H   UNL     1       3.648   3.181  21.061  0.00  0.00    +0.000 HD
ENDROOT
BRANCH   1  16
ATOM     13  C   UNL     1       7.032   5.165  15.307  0.00  0.00    +0.000 A 
ATOM     14  C   UNL     1       6.050   4.196  15.125  0.00  0.00    +0.000 A 
ATOM     15  C   UNL     1       4.993   4.074  16.033  0.00  0.00    +0.000 A 
ATOM     16  C   UNL     1       4.903   4.914  17.151  0.00  0.00    +0.000 A 
ATOM     17  C   UNL     1       5.889   5.903  17.302  0.00  0.00    +0.000 A 
ATOM     18  C   UNL     1       6.950   6.017  16.404  0.00  0.00    +0.000 A 
BRANCH  13  20
ATOM     19  C   UNL     1       7.623   5.135  13.033  0.00  0.00    +0.000 C 
ATOM     20  O   UNL     1       8.046   5.166  14.393  0.00  0.00    +0.000 OA
ENDBRANCH  13  20
ENDBRANCH   1  16
BRANCH   8  21
ATOM     21  N   UNL     1       1.784   7.685  21.183  0.00  0.00    +0.000 N 
ATOM     22  H   UNL     1       2.191   7.107  21.925  0.00  0.00    +0.000 HD
BRANCH  21  23
ATOM     23  C   UNL     1       0.439   8.084  21.639  0.00  0.00    +0.000 C 
BRANCH  23  24
ATOM     24  C   UNL     1       0.447   9.555  22.084  0.00  0.00    +0.000 C 
ATOM     25  C   UNL     1      -0.586   9.892  23.150  0.00  0.00    +0.000 C 
ATOM     26  C   UNL     1      -0.894  11.337  22.861  0.00  0.00    +0.000 C 
ATOM     27  C   UNL     1      -0.769  11.411  21.356  0.00  0.00    +0.000 C 
ATOM     28  O   UNL     1       0.192  10.425  20.960  0.00  0.00    +0.000 OA
ENDBRANCH  23  24
ENDBRANCH  21  23
ENDBRANCH   8  21
TORSDOF 5
ENDMDL
MODEL 7
REMARK VINA RESULT:      -6.9      2.148      8.191
REMARK  Name = 
REMARK  7 active torsions:
REMARK  status: ('A' for Active; 'I' for Inactive)
REMARK    1  A    between atoms: C_1  and  O_2
REMARK    2  A    between atoms: O_2  and  C_3
REMARK    3  A    between atoms: C_6  and  N_7
REMARK    4  A    between atoms: C_14  and  C_15
REMARK    5  A    between atoms: C_14  and  N_16
REMARK    6  A    between atoms: N_16  and  C_17
REMARK    7  A    between atoms: C_17  and  C_18
REMARK                            x       y       z     vdW  Elec       q    Type
REMARK                         _______ _______ _______ _____ _____    ______ ____
ROOT
ATOM      1  N   UNL     1       2.778   5.502  18.849  0.00  0.00    +0.000 N 
ATOM      2  C   UNL     1       2.088   4.314  19.060  0.00  0.00    +0.000 C 
ATOM      3  O   UNL     1       1.056   4.152  19.704  0.00  0.00    +0.000 OA
ATOM      4  N   UNL     1       2.614   3.201  18.457  0.00  0.00    +0.000 N 
ATOM      5  C   UNL     1       3.719   3.125  17.667  0.00  0.00    +0.000 C 
ATOM      6  O   UNL     1       4.065   2.044  17.198  0.00  0.00    +0.000 OA
ATOM      7  C   UNL     1       4.419   4.406  17.462  0.00  0.00    +0.000 C 
ATOM      8  C   UNL     1       5.190   4.654  16.377  0.00  0.00    +0.000 C 
ATOM      9  C   UNL     1       5.838   5.995  16.085  0.00  0.00    +0.000 C 
ATOM     10  C   UNL     1       4.127   5.468  18.472  0.00  0.00    +0.000 C 
ATOM     11  O   UNL     1       4.999   6.195  18.922  0.00  0.00    +0.000 OA
ATOM     12  H   UNL     1       2.074   2.352  18.568  0.00  0.00    +0.000 HD
ENDROOT
BRANCH   1  16
ATOM     13  C   UNL     1       1.314   9.394  19.739  0.00  0.00    +0.000 A 
ATOM     14  C   UNL     1       1.645   9.068  18.428  0.00  0.00    +0.000 A 
ATOM     15  C   UNL     1       2.060   7.774  18.098  0.00  0.00    +0.000 A 
ATOM     16  C   UNL     1       2.166   6.779  19.079  0.00  0.00    +0.000 A 
ATOM     17  C   UNL     1       1.801   7.120  20.392  0.00  0.00    +0.000 A 
ATOM     18  C   UNL     1       1.399   8.414  20.724  0.00  0.00    +0.000 A 
BRANCH  13  20
ATOM     19  C   UNL     1       0.024  11.229  19.042  0.00  0.00    +0.000 C 
ATOM     20  O   UNL     1       0.969  10.695  19.963  0.00  0.00    +0.000 OA
ENDBRANCH  13  20
ENDBRANCH   1  16
BRANCH   8  21
ATOM     21  N   UNL     1       5.381   3.790  15.285  0.00  0.00    +0.000 N 
ATOM     22  H   UNL     1       5.309   2.803  15.549  0.00  0.00    +0.000 HD
BRANCH  21  23
ATOM     23  C   UNL     1       6.547   3.910  14.389  0.00  0.00    +0.000 C 
BRANCH  23  24
ATOM     24  C   UNL     1       6.090   3.894  12.923  0.00  0.00    +0.000 C 
ATOM     25  C   UNL     1       4.586   3.748  12.737  0.00  0.00    +0.000 C 
ATOM     26  C   UNL     1       4.489   3.033  11.415  0.00  0.00    +0.000 C 
ATOM     27  C   UNL     1       5.711   2.142  11.426  0.00  0.00    +0.000 C 
ATOM     28  O   UNL     1       6.711   2.801  12.210  0.00  0.00    +0.000 OA
ENDBRANCH  23  24
ENDBRANCH  21  23
ENDBRANCH   8  21
TORSDOF 5
ENDMDL
MODEL 8
REMARK VINA RESULT:      -6.9      3.982      8.856
REMARK  Name = 
REMARK  7 active torsions:
REMARK  status: ('A' for Active; 'I' for Inactive)
REMARK    1  A    between atoms: C_1  and  O_2
REMARK    2  A    between atoms: O_2  and  C_3
REMARK    3  A    between atoms: C_6  and  N_7
REMARK    4  A    between atoms: C_14  and  C_15
REMARK    5  A    between atoms: C_14  and  N_16
REMARK    6  A    between atoms: N_16  and  C_17
REMARK    7  A    between atoms: C_17  and  C_18
REMARK                            x       y       z     vdW  Elec       q    Type
REMARK                         _______ _______ _______ _____ _____    ______ ____
ROOT
ATOM      1  N   UNL     1      -0.759  10.857  20.072  0.00  0.00    +0.000 N 
ATOM      2  C   UNL     1      -0.904  11.058  21.440  0.00  0.00    +0.000 C 
ATOM      3  O   UNL     1      -1.776  11.705  22.014  0.00  0.00    +0.000 OA
ATOM      4  N   UNL     1       0.025  10.442  22.237  0.00  0.00    +0.000 N 
ATOM      5  C   UNL     1       1.060   9.647  21.851  0.00  0.00    +0.000 C 
ATOM      6  O   UNL     1       1.812   9.166  22.693  0.00  0.00    +0.000 OA
ATOM      7  C   UNL     1       1.176   9.453  20.394  0.00  0.00    +0.000 C 
ATOM      8  C   UNL     1       1.770   8.368  19.844  0.00  0.00    +0.000 C 
ATOM      9  C   UNL     1       1.814   8.088  18.353  0.00  0.00    +0.000 C 
ATOM     10  C   UNL     1       0.484  10.475  19.551  0.00  0.00    +0.000 C 
ATOM     11  O   UNL     1       0.988  10.930  18.536  0.00  0.00    +0.000 OA
ATOM     12  H   UNL     1      -0.122  10.545  23.233  0.00  0.00    +0.000 HD
ENDROOT
BRANCH   1  16
ATOM     13  C   UNL     1      -4.145  11.247  17.530  0.00  0.00    +0.000 A 
ATOM     14  C   UNL     1      -3.925  12.190  18.528  0.00  0.00    +0.000 A 
ATOM     15  C   UNL     1      -2.781  12.124  19.330  0.00  0.00    +0.000 A 
ATOM     16  C   UNL     1      -1.837  11.103  19.158  0.00  0.00    +0.000 A 
ATOM     17  C   UNL     1      -2.064  10.176  18.126  0.00  0.00    +0.000 A 
ATOM     18  C   UNL     1      -3.211  10.234  17.334  0.00  0.00    +0.000 A 
BRANCH  13  20
ATOM     19  C   UNL     1      -6.083  12.525  17.168  0.00  0.00    +0.000 C 
ATOM     20  O   UNL     1      -5.315  11.372  16.838  0.00  0.00    +0.000 OA
ENDBRANCH  13  20
ENDBRANCH   1  16
BRANCH   8  21
ATOM     21  N   UNL     1       2.288   7.266  20.547  0.00  0.00    +0.000 N 
ATOM     22  H   UNL     1       3.136   7.500  21.072  0.00  0.00    +0.000 HD
BRANCH  21  23
ATOM     23  C   UNL     1       2.536   5.968  19.891  0.00  0.00    +0.000 C 
BRANCH  23  24
ATOM     24  C   UNL     1       1.573   4.906  20.443  0.00  0.00    +0.000 C 
ATOM     25  C   UNL     1       2.195   3.972  21.472  0.00  0.00    +0.000 C 
ATOM     26  C   UNL     1       1.412   2.700  21.274  0.00  0.00    +0.000 C 
ATOM     27  C   UNL     1       1.133   2.708  19.788  0.00  0.00    +0.000 C 
ATOM     28  O   UNL     1       1.066   4.077  19.374  0.00  0.00    +0.000 OA
ENDBRANCH  23  24
ENDBRANCH  21  23
ENDBRANCH   8  21
TORSDOF 5
ENDMDL
MODEL 9
REMARK VINA RESULT:      -6.6      0.827      1.083
REMARK  Name = 
REMARK  7 active torsions:
REMARK  status: ('A' for Active; 'I' for Inactive)
REMARK    1  A    between atoms: C_1  and  O_2
REMARK    2  A    between atoms: O_2  and  C_3
REMARK    3  A    between atoms: C_6  and  N_7
REMARK    4  A    between atoms: C_14  and  C_15
REMARK    5  A    between atoms: C_14  and  N_16
REMARK    6  A    between atoms: N_16  and  C_17
REMARK    7  A    between atoms: C_17  and  C_18
REMARK                            x       y       z     vdW  Elec       q    Type
REMARK                         _______ _______ _______ _____ _____    ______ ____
ROOT
ATOM      1  N   UNL     1       4.203   4.804  18.268  0.00  0.00    +0.000 N 
ATOM      2  C   UNL     1       4.244   4.027  19.421  0.00  0.00    +0.000 C 
ATOM      3  O   UNL     1       4.996   3.088  19.664  0.00  0.00    +0.000 OA
ATOM      4  N   UNL     1       3.354   4.370  20.405  0.00  0.00    +0.000 N 
ATOM      5  C   UNL     1       2.448   5.385  20.393  0.00  0.00    +0.000 C 
ATOM      6  O   UNL     1       1.714   5.564  21.361  0.00  0.00    +0.000 OA
ATOM      7  C   UNL     1       2.440   6.189  19.157  0.00  0.00    +0.000 C 
ATOM      8  C   UNL     1       2.016   7.474  19.122  0.00  0.00    +0.000 C 
ATOM      9  C   UNL     1       2.091   8.359  17.891  0.00  0.00    +0.000 C 
ATOM     10  C   UNL     1       3.048   5.534  17.960  0.00  0.00    +0.000 C 
ATOM     11  O   UNL     1       2.551   5.623  16.847  0.00  0.00    +0.000 OA
ATOM     12  H   UNL     1       3.429   3.837  21.262  0.00  0.00    +0.000 HD
ENDROOT
BRANCH   1  16
ATOM     13  C   UNL     1       7.166   5.040  15.228  0.00  0.00    +0.000 A 
ATOM     14  C   UNL     1       7.271   5.851  16.353  0.00  0.00    +0.000 A 
ATOM     15  C   UNL     1       6.349   5.741  17.399  0.00  0.00    +0.000 A 
ATOM     16  C   UNL     1       5.292   4.823  17.335  0.00  0.00    +0.000 A 
ATOM     17  C   UNL     1       5.220   3.994  16.203  0.00  0.00    +0.000 A 
ATOM     18  C   UNL     1       6.132   4.112  15.154  0.00  0.00    +0.000 A 
BRANCH  13  20
ATOM     19  C   UNL     1       7.616   5.017  12.922  0.00  0.00    +0.000 C 
ATOM     20  O   UNL     1       8.086   5.261  14.244  0.00  0.00    +0.000 OA
ENDBRANCH  13  20
ENDBRANCH   1  16
BRANCH   8  21
ATOM     21  N   UNL     1       1.597   8.236  20.226  0.00  0.00    +0.000 N 
ATOM     22  H   UNL     1       1.018   7.697  20.877  0.00  0.00    +0.000 HD
BRANCH  21  23
ATOM     23  C   UNL     1       0.951   9.553  20.067  0.00  0.00    +0.000 C 
BRANCH  23  24
ATOM     24  C   UNL     1      -0.225   9.686  21.046  0.00  0.00    +0.000 C 
ATOM     25  C   UNL     1      -0.406  11.085  21.620  0.00  0.00    +0.000 C 
ATOM     26  C   UNL     1      -1.008  10.807  22.973  0.00  0.00    +0.000 C 
ATOM     27  C   UNL     1      -0.347   9.506  23.371  0.00  0.00    +0.000 C 
ATOM     28  O   UNL     1      -0.056   8.789  22.166  0.00  0.00    +0.000 OA
ENDBRANCH  23  24
ENDBRANCH  21  23
ENDBRANCH   8  21
TORSDOF 5
ENDMDL
