MODEL 1
REMARK VINA RESULT:      -6.7      0.000      0.000
REMARK  Name = 
REMARK  9 active torsions:
REMARK  status: ('A' for Active; 'I' for Inactive)
REMARK    1  A    between atoms: C_1  and  C_2
REMARK    2  A    between atoms: C_2  and  C_3
REMARK    3  A    between atoms: C_3  and  C_4
REMARK    4  A    between atoms: C_3  and  N_5
REMARK    5  A    between atoms: N_5  and  S_6
REMARK    6  A    between atoms: S_6  and  C_9
REMARK    7  A    between atoms: C_11  and  C_12
REMARK    8  A    between atoms: C_14  and  C_15
REMARK    9  A    between atoms: C_19  and  C_20
REMARK                            x       y       z     vdW  Elec       q    Type
REMARK                         _______ _______ _______ _____ _____    ______ ____
ROOT
ATOM      1  C   UNL     1       5.203   5.447  17.472  0.00  0.00    +0.000 A 
ATOM      2  C   UNL     1       4.705   6.752  17.795  0.00  0.00    +0.000 A 
ATOM      3  C   UNL     1       3.347   6.761  18.038  0.00  0.00    +0.000 A 
ATOM      4  S   UNL     1       2.710   5.176  18.018  0.00  0.00    +0.000 S 
ATOM      5  C   UNL     1       4.202   4.490  17.517  0.00  0.00    +0.000 A 
ATOM      6  C   UNL     1       4.239   3.043  17.150  0.00  0.00    +0.000 C 
ENDROOT
BRANCH   3   7
ATOM      7  C   UNL     1       2.526   7.925  18.240  0.00  0.00    +0.000 A 
ATOM      8  C   UNL     1       1.729   8.283  19.309  0.00  0.00    +0.000 A 
ATOM      9  C   UNL     1       1.089   9.478  18.917  0.00  0.00    +0.000 A 
ATOM     10  C   UNL     1       0.097  10.277  19.668  0.00  0.00    +0.000 C 
ATOM     11  N   UNL     1       1.480   9.856  17.696  0.00  0.00    +0.000 NA
ATOM     12  O   UNL     1       2.376   8.888  17.278  0.00  0.00    +0.000 OA
ENDBRANCH   3   7
BRANCH   1  13
ATOM     13  S   UNL     1       6.855   5.170  16.957  0.00  0.00    +0.000 S 
ATOM     14  O   UNL     1       7.472   4.457  18.048  0.00  0.00    +0.000 OA
ATOM     15  O   UNL     1       7.292   6.492  16.552  0.00  0.00    +0.000 OA
BRANCH  13  16
ATOM     16  N   UNL     1       6.853   4.188  15.566  0.00  0.00    +0.000 NA
ATOM     17  H   UNL     1       7.693   3.618  15.503  0.00  0.00    +0.000 HD
BRANCH  16  18
ATOM     18  C   UNL     1       6.411   4.811  14.295  0.00  0.00    +0.000 C 
ATOM     19  C   UNL     1       7.611   4.998  13.374  0.00  0.00    +0.000 C 
BRANCH  18  21
ATOM     20  C   UNL     1       5.810   3.341  12.224  0.00  0.00    +0.000 C 
ATOM     21  C   UNL     1       5.375   3.944  13.551  0.00  0.00    +0.000 C 
ENDBRANCH  18  21
ENDBRANCH  16  18
ENDBRANCH  13  16
ENDBRANCH   1  13
TORSDOF 5
ENDMDL
MODEL 2
REMARK VINA RESULT:      -6.6      3.034      4.715
REMARK  Name = 
REMARK  9 active torsions:
REMARK  status: ('A' for Active; 'I' for Inactive)
REMARK    1  A    between atoms: C_1  and  C_2
REMARK    2  A    between atoms: C_2  and  C_3
REMARK    3  A    between atoms: C_3  and  C_4
REMARK    4  A    between atoms: C_3  and  N_5
REMARK    5  A    between atoms: N_5  and  S_6
REMARK    6  A    between atoms: S_6  and  C_9
REMARK    7  A    between atoms: C_11  and  C_12
REMARK    8  A    between atoms: C_14  and  C_15
REMARK    9  A    between atoms: C_19  and  C_20
REMARK                            x       y       z     vdW  Elec       q    Type
REMARK                         _______ _______ _______ _____ _____    ______ ____
ROOT
ATOM      1  C   UNL     1       3.646   5.829  18.548  0.00  0.00    +0.000 A 
ATOM      2  C   UNL     1       2.702   6.320  19.509  0.00  0.00    +0.000 A 
ATOM      3  C   UNL     1       2.291   7.611  19.244  0.00  0.00    +0.000 A 
ATOM      4  S   UNL     1       2.932   8.166  17.762  0.00  0.00    +0.000 S 
ATOM      5  C   UNL     1       3.894   6.760  17.552  0.00  0.00    +0.000 A 
ATOM      6  C   UNL     1       4.875   6.723  16.426  0.00  0.00    +0.000 C 
ENDROOT
BRANCH   3   7
ATOM      7  C   UNL     1       1.472   8.434  20.094  0.00  0.00    +0.000 A 
ATOM      8  C   UNL     1       1.167   8.311  21.434  0.00  0.00    +0.000 A 
ATOM      9  C   UNL     1       0.250   9.349  21.707  0.00  0.00    +0.000 A 
ATOM     10  C   UNL     1      -0.433   9.658  22.982  0.00  0.00    +0.000 C 
ATOM     11  N   UNL     1       0.019  10.087  20.618  0.00  0.00    +0.000 NA
ATOM     12  O   UNL     1       0.783   9.517  19.615  0.00  0.00    +0.000 OA
ENDBRANCH   3   7
BRANCH   1  13
ATOM     13  S   UNL     1       4.459   4.287  18.729  0.00  0.00    +0.000 S 
ATOM     14  O   UNL     1       5.687   4.592  19.420  0.00  0.00    +0.000 OA
ATOM     15  O   UNL     1       4.443   3.755  17.381  0.00  0.00    +0.000 OA
BRANCH  13  16
ATOM     16  N   UNL     1       3.505   3.258  19.693  0.00  0.00    +0.000 NA
ATOM     17  H   UNL     1       4.014   2.425  19.977  0.00  0.00    +0.000 HD
BRANCH  16  18
ATOM     18  C   UNL     1       2.103   3.032  19.264  0.00  0.00    +0.000 C 
ATOM     19  C   UNL     1       1.984   1.658  18.615  0.00  0.00    +0.000 C 
BRANCH  18  21
ATOM     20  C   UNL     1       1.647   2.638  21.803  0.00  0.00    +0.000 C 
ATOM     21  C   UNL     1       1.117   3.083  20.448  0.00  0.00    +0.000 C 
ENDBRANCH  18  21
ENDBRANCH  16  18
ENDBRANCH  13  16
ENDBRANCH   1  13
TORSDOF 5
ENDMDL
MODEL 3
REMARK VINA RESULT:      -6.6      2.304      2.840
REMARK  Name = 
REMARK  9 active torsions:
REMARK  status: ('A' for Active; 'I' for Inactive)
REMARK    1  A    between atoms: C_1  and  C_2
REMARK    2  A    between atoms: C_2  and  C_3
REMARK    3  A    between atoms: C_3  and  C_4
REMARK    4  A    between atoms: C_3  and  N_5
REMARK    5  A    between atoms: N_5  and  S_6
REMARK    6  A    between atoms: S_6  and  C_9
REMARK    7  A    between atoms: C_11  and  C_12
REMARK    8  A    between atoms: C_14  and  C_15
REMARK    9  A    between atoms: C_19  and  C_20
REMARK                            x       y       z     vdW  Elec       q    Type
REMARK                         _______ _______ _______ _____ _____    ______ ____
ROOT
ATOM      1  C   UNL     1       3.543   4.515  19.480  0.00  0.00    +0.000 A 
ATOM      2  C   UNL     1       3.532   5.843  18.939  0.00  0.00    +0.000 A 
ATOM      3  C   UNL     1       2.519   6.623  19.457  0.00  0.00    +0.000 A 
ATOM      4  S   UNL     1       1.681   5.798  20.694  0.00  0.00    +0.000 S 
ATOM      5  C   UNL     1       2.549   4.341  20.430  0.00  0.00    +0.000 A 
ATOM      6  C   UNL     1       2.124   3.109  21.160  0.00  0.00    +0.000 C 
ENDROOT
BRANCH   3   7
ATOM      7  C   UNL     1       2.149   7.941  19.014  0.00  0.00    +0.000 A 
ATOM      8  C   UNL     1       1.357   8.898  19.617  0.00  0.00    +0.000 A 
ATOM      9  C   UNL     1       1.270   9.955  18.686  0.00  0.00    +0.000 A 
ATOM     10  C   UNL     1       0.514  11.220  18.802  0.00  0.00    +0.000 C 
ATOM     11  N   UNL     1       1.982   9.689  17.587  0.00  0.00    +0.000 NA
ATOM     12  O   UNL     1       2.530   8.436  17.795  0.00  0.00    +0.000 OA
ENDBRANCH   3   7
BRANCH   1  13
ATOM     13  S   UNL     1       4.614   3.263  18.884  0.00  0.00    +0.000 S 
ATOM     14  O   UNL     1       3.879   2.616  17.826  0.00  0.00    +0.000 OA
ATOM     15  O   UNL     1       5.001   2.566  20.095  0.00  0.00    +0.000 OA
BRANCH  13  16
ATOM     16  N   UNL     1       6.017   3.983  18.242  0.00  0.00    +0.000 NA
ATOM     17  H   UNL     1       6.564   4.453  18.960  0.00  0.00    +0.000 HD
BRANCH  16  18
ATOM     18  C   UNL     1       5.879   4.720  16.963  0.00  0.00    +0.000 C 
ATOM     19  C   UNL     1       6.819   5.919  16.960  0.00  0.00    +0.000 C 
BRANCH  18  21
ATOM     20  C   UNL     1       5.774   4.344  14.383  0.00  0.00    +0.000 C 
ATOM     21  C   UNL     1       6.229   3.841  15.744  0.00  0.00    +0.000 C 
ENDBRANCH  18  21
ENDBRANCH  16  18
ENDBRANCH  13  16
ENDBRANCH   1  13
TORSDOF 5
ENDMDL
MODEL 4
REMARK VINA RESULT:      -6.6      2.610      3.309
REMARK  Name = 
REMARK  9 active torsions:
REMARK  status: ('A' for Active; 'I' for Inactive)
REMARK    1  A    between atoms: C_1  and  C_2
REMARK    2  A    between atoms: C_2  and  C_3
REMARK    3  A    between atoms: C_3  and  C_4
REMARK    4  A    between atoms: C_3  and  N_5
REMARK    5  A    between atoms: N_5  and  S_6
REMARK    6  A    between atoms: S_6  and  C_9
REMARK    7  A    between atoms: C_11  and  C_12
REMARK    8  A    between atoms: C_14  and  C_15
REMARK    9  A    between atoms: C_19  and  C_20
REMARK                            x       y       z     vdW  Elec       q    Type
REMARK                         _______ _______ _______ _____ _____    ______ ____
ROOT
ATOM      1  C   UNL     1       4.414   6.004  17.164  0.00  0.00    +0.000 A 
ATOM      2  C   UNL     1       3.823   7.273  17.472  0.00  0.00    +0.000 A 
ATOM      3  C   UNL     1       2.804   7.178  18.397  0.00  0.00    +0.000 A 
ATOM      4  S   UNL     1       2.666   5.585  18.996  0.00  0.00    +0.000 S 
ATOM      5  C   UNL     1       3.844   4.980  17.904  0.00  0.00    +0.000 A 
ATOM      6  C   UNL     1       4.065   3.505  17.832  0.00  0.00    +0.000 C 
ENDROOT
BRANCH   3   7
ATOM      7  C   UNL     1       1.919   8.239  18.801  0.00  0.00    +0.000 A 
ATOM      8  C   UNL     1       1.363   9.267  18.067  0.00  0.00    +0.000 A 
ATOM      9  C   UNL     1       0.655  10.055  19.001  0.00  0.00    +0.000 A 
ATOM     10  C   UNL     1      -0.099  11.304  18.763  0.00  0.00    +0.000 C 
ATOM     11  N   UNL     1       0.742   9.538  20.230  0.00  0.00    +0.000 NA
ATOM     12  O   UNL     1       1.527   8.407  20.102  0.00  0.00    +0.000 OA
ENDBRANCH   3   7
BRANCH   1  13
ATOM     13  S   UNL     1       5.615   5.804  15.903  0.00  0.00    +0.000 S 
ATOM     14  O   UNL     1       5.328   6.843  14.947  0.00  0.00    +0.000 OA
ATOM     15  O   UNL     1       5.504   4.397  15.573  0.00  0.00    +0.000 OA
BRANCH  13  16
ATOM     16  N   UNL     1       7.166   6.050  16.561  0.00  0.00    +0.000 NA
ATOM     17  H   UNL     1       7.817   5.321  16.278  0.00  0.00    +0.000 HD
BRANCH  16  18
ATOM     18  C   UNL     1       7.244   6.456  17.985  0.00  0.00    +0.000 C 
ATOM     19  C   UNL     1       7.715   5.276  18.827  0.00  0.00    +0.000 C 
BRANCH  18  21
ATOM     20  C   UNL     1       7.807   8.987  17.693  0.00  0.00    +0.000 C 
ATOM     21  C   UNL     1       8.233   7.619  18.205  0.00  0.00    +0.000 C 
ENDBRANCH  18  21
ENDBRANCH  16  18
ENDBRANCH  13  16
ENDBRANCH   1  13
TORSDOF 5
ENDMDL
MODEL 5
REMARK VINA RESULT:      -6.5      3.193      6.830
REMARK  Name = 
REMARK  9 active torsions:
REMARK  status: ('A' for Active; 'I' for Inactive)
REMARK    1  A    between atoms: C_1  and  C_2
REMARK    2  A    between atoms: C_2  and  C_3
REMARK    3  A    between atoms: C_3  and  C_4
REMARK    4  A    between atoms: C_3  and  N_5
REMARK    5  A    between atoms: N_5  and  S_6
REMARK    6  A    between atoms: S_6  and  C_9
REMARK    7  A    between atoms: C_11  and  C_12
REMARK    8  A    between atoms: C_14  and  C_15
REMARK    9  A    between atoms: C_19  and  C_20
REMARK                            x       y       z     vdW  Elec       q    Type
REMARK                         _______ _______ _______ _____ _____    ______ ____
ROOT
ATOM      1  C   UNL     1       4.751   4.007  18.413  0.00  0.00    +0.000 A 
ATOM      2  C   UNL     1       5.560   3.752  17.257  0.00  0.00    +0.000 A 
ATOM      3  C   UNL     1       5.748   4.876  16.479  0.00  0.00    +0.000 A 
ATOM      4  S   UNL     1       5.074   6.257  17.222  0.00  0.00    +0.000 S 
ATOM      5  C   UNL     1       4.380   5.339  18.495  0.00  0.00    +0.000 A 
ATOM      6  C   UNL     1       3.461   6.023  19.454  0.00  0.00    +0.000 C 
ENDROOT
BRANCH   3   7
ATOM      7  C   UNL     1       6.381   4.919  15.186  0.00  0.00    +0.000 A 
ATOM      8  C   UNL     1       6.098   4.223  14.029  0.00  0.00    +0.000 A 
ATOM      9  C   UNL     1       7.099   4.602  13.109  0.00  0.00    +0.000 A 
ATOM     10  C   UNL     1       7.298   4.128  11.722  0.00  0.00    +0.000 C 
ATOM     11  N   UNL     1       7.935   5.495  13.647  0.00  0.00    +0.000 NA
ATOM     12  O   UNL     1       7.484   5.693  14.939  0.00  0.00    +0.000 OA
ENDBRANCH   3   7
BRANCH   1  13
ATOM     13  S   UNL     1       4.213   2.730  19.487  0.00  0.00    +0.000 S 
ATOM     14  O   UNL     1       5.364   2.413  20.295  0.00  0.00    +0.000 OA
ATOM     15  O   UNL     1       3.620   1.771  18.575  0.00  0.00    +0.000 OA
BRANCH  13  16
ATOM     16  N   UNL     1       2.966   3.323  20.483  0.00  0.00    +0.000 NA
ATOM     17  H   UNL     1       3.319   3.647  21.380  0.00  0.00    +0.000 HD
BRANCH  16  18
ATOM     18  C   UNL     1       1.710   2.536  20.540  0.00  0.00    +0.000 C 
ATOM     19  C   UNL     1       1.223   2.456  21.981  0.00  0.00    +0.000 C 
BRANCH  18  21
ATOM     20  C   UNL     1       0.949   3.597  18.280  0.00  0.00    +0.000 C 
ATOM     21  C   UNL     1       0.587   3.172  19.695  0.00  0.00    +0.000 C 
ENDBRANCH  18  21
ENDBRANCH  16  18
ENDBRANCH  13  16
ENDBRANCH   1  13
TORSDOF 5
ENDMDL
MODEL 6
REMARK VINA RESULT:      -6.5      3.624      7.007
REMARK  Name = 
REMARK  9 active torsions:
REMARK  status: ('A' for Active; 'I' for Inactive)
REMARK    1  A    between atoms: C_1  and  C_2
REMARK    2  A    between atoms: C_2  and  C_3
REMARK    3  A    between atoms: C_3  and  C_4
REMARK    4  A    between atoms: C_3  and  N_5
REMARK    5  A    between atoms: N_5  and  S_6
REMARK    6  A    between atoms: S_6  and  C_9
REMARK    7  A    between atoms: C_11  and  C_12
REMARK    8  A    between atoms: C_14  and  C_15
REMARK    9  A    between atoms: C_19  and  C_20
REMARK                            x       y       z     vdW  Elec       q    Type
REMARK                         _______ _______ _______ _____ _____    ______ ____
ROOT
ATOM      1  C   UNL     1       5.428   4.249  17.900  0.00  0.00    +0.000 A 
ATOM      2  C   UNL     1       5.078   3.779  16.592  0.00  0.00    +0.000 A 
ATOM      3  C   UNL     1       6.003   4.131  15.631  0.00  0.00    +0.000 A 
ATOM      4  S   UNL     1       7.356   4.898  16.335  0.00  0.00    +0.000 S 
ATOM      5  C   UNL     1       6.642   4.919  17.895  0.00  0.00    +0.000 A 
ATOM      6  C   UNL     1       7.333   5.662  18.991  0.00  0.00    +0.000 C 
ENDROOT
BRANCH   3   7
ATOM      7  C   UNL     1       5.869   3.941  14.211  0.00  0.00    +0.000 A 
ATOM      8  C   UNL     1       4.751   3.680  13.445  0.00  0.00    +0.000 A 
ATOM      9  C   UNL     1       5.231   3.500  12.129  0.00  0.00    +0.000 A 
ATOM     10  C   UNL     1       4.464   3.161  10.911  0.00  0.00    +0.000 C 
ATOM     11  N   UNL     1       6.556   3.665  12.073  0.00  0.00    +0.000 NA
ATOM     12  O   UNL     1       6.950   3.941  13.370  0.00  0.00    +0.000 OA
ENDBRANCH   3   7
BRANCH   1  13
ATOM     13  S   UNL     1       4.357   4.091  19.277  0.00  0.00    +0.000 S 
ATOM     14  O   UNL     1       3.968   5.440  19.606  0.00  0.00    +0.000 OA
ATOM     15  O   UNL     1       5.123   3.263  20.188  0.00  0.00    +0.000 OA
BRANCH  13  16
ATOM     16  N   UNL     1       2.981   3.199  18.819  0.00  0.00    +0.000 NA
ATOM     17  H   UNL     1       3.027   2.904  17.846  0.00  0.00    +0.000 HD
BRANCH  16  18
ATOM     18  C   UNL     1       1.661   3.707  19.267  0.00  0.00    +0.000 C 
ATOM     19  C   UNL     1       0.570   2.729  18.851  0.00  0.00    +0.000 C 
BRANCH  18  21
ATOM     20  C   UNL     1       1.634   2.597  21.628  0.00  0.00    +0.000 C 
ATOM     21  C   UNL     1       1.591   3.871  20.799  0.00  0.00    +0.000 C 
ENDBRANCH  18  21
ENDBRANCH  16  18
ENDBRANCH  13  16
ENDBRANCH   1  13
TORSDOF 5
ENDMDL
MODEL 7
REMARK VINA RESULT:      -6.5      2.840      6.884
REMARK  Name = 
REMARK  9 active torsions:
REMARK  status: ('A' for Active; 'I' for Inactive)
REMARK    1  A    between atoms: C_1  and  C_2
REMARK    2  A    between atoms: C_2  and  C_3
REMARK    3  A    between atoms: C_3  and  C_4
REMARK    4  A    between atoms: C_3  and  N_5
REMARK    5  A    between atoms: N_5  and  S_6
REMARK    6  A    between atoms: S_6  and  C_9
REMARK    7  A    between atoms: C_11  and  C_12
REMARK    8  A    between atoms: C_14  and  C_15
REMARK    9  A    between atoms: C_19  and  C_20
REMARK                            x       y       z     vdW  Elec       q    Type
REMARK                         _______ _______ _______ _____ _____    ______ ____
ROOT
ATOM      1  C   UNL     1       4.912   5.198  17.591  0.00  0.00    +0.000 A 
ATOM      2  C   UNL     1       5.678   4.522  16.586  0.00  0.00    +0.000 A 
ATOM      3  C   UNL     1       5.729   5.217  15.395  0.00  0.00    +0.000 A 
ATOM      4  S   UNL     1       4.980   6.743  15.544  0.00  0.00    +0.000 S 
ATOM      5  C   UNL     1       4.434   6.417  17.138  0.00  0.00    +0.000 A 
ATOM      6  C   UNL     1       3.512   7.391  17.795  0.00  0.00    +0.000 C 
ENDROOT
BRANCH   3   7
ATOM      7  C   UNL     1       6.287   4.743  14.156  0.00  0.00    +0.000 A 
ATOM      8  C   UNL     1       5.967   3.635  13.397  0.00  0.00    +0.000 A 
ATOM      9  C   UNL     1       6.901   3.622  12.339  0.00  0.00    +0.000 A 
ATOM     10  C   UNL     1       7.040   2.631  11.250  0.00  0.00    +0.000 C 
ATOM     11  N   UNL     1       7.731   4.666  12.416  0.00  0.00    +0.000 NA
ATOM     12  O   UNL     1       7.345   5.363  13.547  0.00  0.00    +0.000 OA
ENDBRANCH   3   7
BRANCH   1  13
ATOM     13  S   UNL     1       4.542   4.470  19.142  0.00  0.00    +0.000 S 
ATOM     14  O   UNL     1       4.175   5.574  19.994  0.00  0.00    +0.000 OA
ATOM     15  O   UNL     1       5.709   3.650  19.400  0.00  0.00    +0.000 OA
BRANCH  13  16
ATOM     16  N   UNL     1       3.213   3.421  18.967  0.00  0.00    +0.000 NA
ATOM     17  H   UNL     1       3.345   2.766  18.199  0.00  0.00    +0.000 HD
BRANCH  16  18
ATOM     18  C   UNL     1       1.859   4.016  19.069  0.00  0.00    +0.000 C 
ATOM     19  C   UNL     1       1.270   4.187  17.675  0.00  0.00    +0.000 C 
BRANCH  18  21
ATOM     20  C   UNL     1       1.284   2.839  21.326  0.00  0.00    +0.000 C 
ATOM     21  C   UNL     1       0.894   3.131  19.885  0.00  0.00    +0.000 C 
ENDBRANCH  18  21
ENDBRANCH  16  18
ENDBRANCH  13  16
ENDBRANCH   1  13
TORSDOF 5
ENDMDL
MODEL 8
REMARK VINA RESULT:      -6.4      2.347      3.289
REMARK  Name = 
REMARK  9 active torsions:
REMARK  status: ('A' for Active; 'I' for Inactive)
REMARK    1  A    between atoms: C_1  and  C_2
REMARK    2  A    between atoms: C_2  and  C_3
REMARK    3  A    between atoms: C_3  and  C_4
REMARK    4  A    between atoms: C_3  and  N_5
REMARK    5  A    between atoms: N_5  and  S_6
REMARK    6  A    between atoms: S_6  and  C_9
REMARK    7  A    between atoms: C_11  and  C_12
REMARK    8  A    between atoms: C_14  and  C_15
REMARK    9  A    between atoms: C_19  and  C_20
REMARK                            x       y       z     vdW  Elec       q    Type
REMARK                         _______ _______ _______ _____ _____    ______ ____
ROOT
ATOM      1  C   UNL     1       3.348   4.865  19.297  0.00  0.00    +0.000 A 
ATOM      2  C   UNL     1       3.284   6.184  18.741  0.00  0.00    +0.000 A 
ATOM      3  C   UNL     1       2.382   6.998  19.395  0.00  0.00    +0.000 A 
ATOM      4  S   UNL     1       1.728   6.212  20.763  0.00  0.00    +0.000 S 
ATOM      5  C   UNL     1       2.511   4.730  20.393  0.00  0.00    +0.000 A 
ATOM      6  C   UNL     1       2.176   3.520  21.203  0.00  0.00    +0.000 C 
ENDROOT
BRANCH   3   7
ATOM      7  C   UNL     1       1.979   8.319  18.992  0.00  0.00    +0.000 A 
ATOM      8  C   UNL     1       1.106   9.208  19.586  0.00  0.00    +0.000 A 
ATOM      9  C   UNL     1       1.028  10.305  18.702  0.00  0.00    +0.000 A 
ATOM     10  C   UNL     1       0.207  11.529  18.828  0.00  0.00    +0.000 C 
ATOM     11  N   UNL     1       1.819  10.126  17.640  0.00  0.00    +0.000 NA
ATOM     12  O   UNL     1       2.411   8.889  17.824  0.00  0.00    +0.000 OA
ENDBRANCH   3   7
BRANCH   1  13
ATOM     13  S   UNL     1       4.284   3.577  18.564  0.00  0.00    +0.000 S 
ATOM     14  O   UNL     1       3.317   2.567  18.211  0.00  0.00    +0.000 OA
ATOM     15  O   UNL     1       5.327   3.340  19.542  0.00  0.00    +0.000 OA
BRANCH  13  16
ATOM     16  N   UNL     1       5.035   4.162  17.153  0.00  0.00    +0.000 NA
ATOM     17  H   UNL     1       4.788   3.609  16.335  0.00  0.00    +0.000 HD
BRANCH  16  18
ATOM     18  C   UNL     1       6.464   4.546  17.252  0.00  0.00    +0.000 C 
ATOM     19  C   UNL     1       7.099   4.512  15.868  0.00  0.00    +0.000 C 
BRANCH  18  21
ATOM     20  C   UNL     1       7.809   6.183  18.775  0.00  0.00    +0.000 C 
ATOM     21  C   UNL     1       6.644   5.969  17.821  0.00  0.00    +0.000 C 
ENDBRANCH  18  21
ENDBRANCH  16  18
ENDBRANCH  13  16
ENDBRANCH   1  13
TORSDOF 5
ENDMDL
MODEL 9
REMARK VINA RESULT:      -6.4      0.999      1.024
REMARK  Name = 
REMARK  9 active torsions:
REMARK  status: ('A' for Active; 'I' for Inactive)
REMARK    1  A    between atoms: C_1  and  C_2
REMARK    2  A    between atoms: C_2  and  C_3
REMARK    3  A    between atoms: C_3  and  C_4
REMARK    4  A    between atoms: C_3  and  N_5
REMARK    5  A    between atoms: N_5  and  S_6
REMARK    6  A    between atoms: S_6  and  C_9
REMARK    7  A    between atoms: C_11  and  C_12
REMARK    8  A    between atoms: C_14  and  C_15
REMARK    9  A    between atoms: C_19  and  C_20
REMARK                            x       y       z     vdW  Elec       q    Type
REMARK                         _______ _______ _______ _____ _____    ______ ____
ROOT
ATOM      1  C   UNL     1       4.994   5.303  17.679  0.00  0.00    +0.000 A 
ATOM      2  C   UNL     1       4.489   6.585  18.072  0.00  0.00    +0.000 A 
ATOM      3  C   UNL     1       3.161   6.545  18.446  0.00  0.00    +0.000 A 
ATOM      4  S   UNL     1       2.577   4.941  18.462  0.00  0.00    +0.000 S 
ATOM      5  C   UNL     1       4.034   4.312  17.806  0.00  0.00    +0.000 A 
ATOM      6  C   UNL     1       4.081   2.872  17.412  0.00  0.00    +0.000 C 
ENDROOT
BRANCH   3   7
ATOM      7  C   UNL     1       2.327   7.678  18.748  0.00  0.00    +0.000 A 
ATOM      8  C   UNL     1       1.906   8.717  17.943  0.00  0.00    +0.000 A 
ATOM      9  C   UNL     1       1.186   9.584  18.794  0.00  0.00    +0.000 A 
ATOM     10  C   UNL     1       0.546  10.874  18.461  0.00  0.00    +0.000 C 
ATOM     11  N   UNL     1       1.138   9.104  20.041  0.00  0.00    +0.000 NA
ATOM     12  O   UNL     1       1.847   7.917  20.008  0.00  0.00    +0.000 OA
ENDBRANCH   3   7
BRANCH   1  13
ATOM     13  S   UNL     1       6.596   5.089  17.000  0.00  0.00    +0.000 S 
ATOM     14  O   UNL     1       7.360   4.450  18.041  0.00  0.00    +0.000 OA
ATOM     15  O   UNL     1       6.917   6.414  16.507  0.00  0.00    +0.000 OA
BRANCH  13  16
ATOM     16  N   UNL     1       6.500   4.056  15.650  0.00  0.00    +0.000 NA
ATOM     17  H   UNL     1       7.240   3.357  15.654  0.00  0.00    +0.000 HD
BRANCH  16  18
ATOM     18  C   UNL     1       6.223   4.680  14.334  0.00  0.00    +0.000 C 
ATOM     19  C   UNL     1       7.535   4.925  13.599  0.00  0.00    +0.000 C 
BRANCH  18  21
ATOM     20  C   UNL     1       5.962   3.278  12.149  0.00  0.00    +0.000 C 
ATOM     21  C   UNL     1       5.340   3.786  13.440  0.00  0.00    +0.000 C 
ENDBRANCH  18  21
ENDBRANCH  16  18
ENDBRANCH  13  16
ENDBRANCH   1  13
TORSDOF 5
ENDMDL
