MODEL 1
REMARK VINA RESULT:      -9.3      0.000      0.000
REMARK  Name = 
REMARK  3 active torsions:
REMARK  status: ('A' for Active; 'I' for Inactive)
REMARK    1  A    between atoms: C_2  and  C_14
REMARK    2  A    between atoms: N_3  and  C_4
REMARK    3  A    between atoms: N_16  and  C_17
REMARK                            x       y       z     vdW  Elec       q    Type
REMARK                         _______ _______ _______ _____ _____    ______ ____
ROOT
ATOM      1  C   UNL     1       1.609   9.154  19.157  0.00  0.00    +0.000 A 
ATOM      2  N   UNL     1       1.666  10.347  18.521  0.00  0.00    +0.000 NA
ATOM      3  N   UNL     1       1.166  11.252  19.412  0.00  0.00    +0.000 N 
ATOM      4  C   UNL     1       0.645  10.639  20.528  0.00  0.00    +0.000 A 
ATOM      5  C   UNL     1       0.902   9.288  20.394  0.00  0.00    +0.000 A 
ATOM      6  C   UNL     1       0.488   8.287  21.421  0.00  0.00    +0.000 C 
ATOM      7  C   UNL     1      -0.577   8.866  22.381  0.00  0.00    +0.000 C 
ATOM      8  C   UNL     1      -0.243  10.299  22.824  0.00  0.00    +0.000 C 
ATOM      9  C   UNL     1      -0.172  11.254  21.620  0.00  0.00    +0.000 C 
ENDROOT
BRANCH   3  10
ATOM     10  C   UNL     1       1.281  12.640  19.143  0.00  0.00    +0.000 A 
ATOM     11  C   UNL     1       0.152  13.458  19.239  0.00  0.00    +0.000 A 
ATOM     12  C   UNL     1       0.254  14.819  18.932  0.00  0.00    +0.000 A 
ATOM     13  C   UNL     1       1.471  15.358  18.500  0.00  0.00    +0.000 A 
ATOM     14 CL   UNL     1       1.511  17.034  18.085  0.00  0.00    +0.000 Cl
ATOM     15  C   UNL     1       2.596  14.535  18.393  0.00  0.00    +0.000 A 
ATOM     16 CL   UNL     1       4.127  15.117  17.841  0.00  0.00    +0.000 Cl
ATOM     17  C   UNL     1       2.501  13.179  18.717  0.00  0.00    +0.000 A 
ENDBRANCH   3  10
BRANCH   1  19
ATOM     18  O   UNL     1       2.717   7.923  17.456  0.00  0.00    +0.000 OA
ATOM     19  C   UNL     1       2.211   7.922  18.580  0.00  0.00    +0.000 C 
ATOM     20  N   UNL     1       2.138   6.790  19.382  0.00  0.00    +0.000 N 
ATOM     21  H   UNL     1       1.647   6.928  20.258  0.00  0.00    +0.000 HD
BRANCH  20  22
ATOM     22  C   UNL     1       2.666   5.449  19.036  0.00  0.00    +0.000 C 
ATOM     23  C   UNL     1       4.193   5.497  18.762  0.00  0.00    +0.000 C 
ATOM     24  C   UNL     1       4.746   4.100  18.425  0.00  0.00    +0.000 C 
ATOM     25  C   UNL     1       4.510   3.154  19.611  0.00  0.00    +0.000 C 
ATOM     26  C   UNL     1       3.003   3.058  19.902  0.00  0.00    +0.000 C 
ATOM     27  C   UNL     1       2.295   2.497  18.660  0.00  0.00    +0.000 C 
ATOM     28  C   UNL     1       2.511   3.441  17.467  0.00  0.00    +0.000 C 
ATOM     29  C   UNL     1       4.019   3.553  17.186  0.00  0.00    +0.000 C 
ATOM     30  C   UNL     1       1.947   4.838  17.803  0.00  0.00    +0.000 C 
ATOM     31  C   UNL     1       2.446   4.464  20.224  0.00  0.00    +0.000 C 
ENDBRANCH  20  22
ENDBRANCH   1  19
TORSDOF 3
ENDMDL
MODEL 2
REMARK VINA RESULT:      -9.3      0.662      1.353
REMARK  Name = 
REMARK  3 active torsions:
REMARK  status: ('A' for Active; 'I' for Inactive)
REMARK    1  A    between atoms: C_2  and  C_14
REMARK    2  A    between atoms: N_3  and  C_4
REMARK    3  A    between atoms: N_16  and  C_17
REMARK                            x       y       z     vdW  Elec       q    Type
REMARK                         _______ _______ _______ _____ _____    ______ ____
ROOT
ATOM      1  C   UNL     1       1.670   9.009  19.190  0.00  0.00    +0.000 A 
ATOM      2  N   UNL     1       1.780  10.159  18.487  0.00  0.00    +0.000 NA
ATOM      3  N   UNL     1       1.283  11.130  19.307  0.00  0.00    +0.000 N 
ATOM      4  C   UNL     1       0.714  10.600  20.442  0.00  0.00    +0.000 A 
ATOM      5  C   UNL     1       0.933   9.237  20.395  0.00  0.00    +0.000 A 
ATOM      6  C   UNL     1       0.461   8.310  21.467  0.00  0.00    +0.000 C 
ATOM      7  C   UNL     1      -0.611   8.976  22.359  0.00  0.00    +0.000 C 
ATOM      8  C   UNL     1      -0.246  10.423  22.727  0.00  0.00    +0.000 C 
ATOM      9  C   UNL     1      -0.114  11.302  21.472  0.00  0.00    +0.000 C 
ENDROOT
BRANCH   3  10
ATOM     10  C   UNL     1       1.448  12.495  18.961  0.00  0.00    +0.000 A 
ATOM     11  C   UNL     1       2.670  12.935  18.445  0.00  0.00    +0.000 A 
ATOM     12  C   UNL     1       2.849  14.289  18.143  0.00  0.00    +0.000 A 
ATOM     13  C   UNL     1       1.823  15.209  18.384  0.00  0.00    +0.000 A 
ATOM     14 CL   UNL     1       2.132  16.874  18.040  0.00  0.00    +0.000 Cl
ATOM     15  C   UNL     1       0.605  14.769  18.911  0.00  0.00    +0.000 A 
ATOM     16 CL   UNL     1      -0.701  15.845  19.263  0.00  0.00    +0.000 Cl
ATOM     17  C   UNL     1       0.418  13.414  19.196  0.00  0.00    +0.000 A 
ENDBRANCH   3  10
BRANCH   1  19
ATOM     18  O   UNL     1       2.940   7.684  17.683  0.00  0.00    +0.000 OA
ATOM     19  C   UNL     1       2.250   7.728  18.704  0.00  0.00    +0.000 C 
ATOM     20  N   UNL     1       1.939   6.606  19.461  0.00  0.00    +0.000 N 
ATOM     21  H   UNL     1       1.318   6.788  20.243  0.00  0.00    +0.000 HD
BRANCH  20  22
ATOM     22  C   UNL     1       2.396   5.223  19.189  0.00  0.00    +0.000 C 
ATOM     23  C   UNL     1       3.938   5.102  19.324  0.00  0.00    +0.000 C 
ATOM     24  C   UNL     1       4.412   3.661  19.063  0.00  0.00    +0.000 C 
ATOM     25  C   UNL     1       3.773   2.716  20.091  0.00  0.00    +0.000 C 
ATOM     26  C   UNL     1       2.241   2.787  19.975  0.00  0.00    +0.000 C 
ATOM     27  C   UNL     1       1.832   2.345  18.563  0.00  0.00    +0.000 C 
ATOM     28  C   UNL     1       2.453   3.291  17.521  0.00  0.00    +0.000 C 
ATOM     29  C   UNL     1       3.985   3.235  17.648  0.00  0.00    +0.000 C 
ATOM     30  C   UNL     1       1.969   4.733  17.779  0.00  0.00    +0.000 C 
ATOM     31  C   UNL     1       1.768   4.238  20.221  0.00  0.00    +0.000 C 
ENDBRANCH  20  22
ENDBRANCH   1  19
TORSDOF 3
ENDMDL
MODEL 3
REMARK VINA RESULT:      -9.2      0.065      1.383
REMARK  Name = 
REMARK  3 active torsions:
REMARK  status: ('A' for Active; 'I' for Inactive)
REMARK    1  A    between atoms: C_2  and  C_14
REMARK    2  A    between atoms: N_3  and  C_4
REMARK    3  A    between atoms: N_16  and  C_17
REMARK                            x       y       z     vdW  Elec       q    Type
REMARK                         _______ _______ _______ _____ _____    ______ ____
ROOT
ATOM      1  C   UNL     1       1.593   9.194  19.161  0.00  0.00    +0.000 A 
ATOM      2  N   UNL     1       1.655  10.384  18.522  0.00  0.00    +0.000 NA
ATOM      3  N   UNL     1       1.159  11.294  19.410  0.00  0.00    +0.000 N 
ATOM      4  C   UNL     1       0.635  10.686  20.528  0.00  0.00    +0.000 A 
ATOM      5  C   UNL     1       0.887   9.334  20.397  0.00  0.00    +0.000 A 
ATOM      6  C   UNL     1       0.468   8.337  21.427  0.00  0.00    +0.000 C 
ATOM      7  C   UNL     1      -0.594   8.924  22.385  0.00  0.00    +0.000 C 
ATOM      8  C   UNL     1      -0.254  10.356  22.824  0.00  0.00    +0.000 C 
ATOM      9  C   UNL     1      -0.180  11.307  21.618  0.00  0.00    +0.000 C 
ENDROOT
BRANCH   3  10
ATOM     10  C   UNL     1       1.279  12.680  19.137  0.00  0.00    +0.000 A 
ATOM     11  C   UNL     1       0.149  13.500  19.208  0.00  0.00    +0.000 A 
ATOM     12  C   UNL     1       0.257  14.859  18.896  0.00  0.00    +0.000 A 
ATOM     13  C   UNL     1       1.482  15.395  18.485  0.00  0.00    +0.000 A 
ATOM     14 CL   UNL     1       1.530  17.070  18.063  0.00  0.00    +0.000 Cl
ATOM     15  C   UNL     1       2.608  14.572  18.403  0.00  0.00    +0.000 A 
ATOM     16 CL   UNL     1       4.150  15.151  17.878  0.00  0.00    +0.000 Cl
ATOM     17  C   UNL     1       2.507  13.217  18.731  0.00  0.00    +0.000 A 
ENDBRANCH   3  10
BRANCH   1  19
ATOM     18  O   UNL     1       2.678   7.948  17.456  0.00  0.00    +0.000 OA
ATOM     19  C   UNL     1       2.191   7.957  18.588  0.00  0.00    +0.000 C 
ATOM     20  N   UNL     1       2.134   6.833  19.402  0.00  0.00    +0.000 N 
ATOM     21  H   UNL     1       1.657   6.980  20.285  0.00  0.00    +0.000 HD
BRANCH  20  22
ATOM     22  C   UNL     1       2.661   5.491  19.063  0.00  0.00    +0.000 C 
ATOM     23  C   UNL     1       1.958   4.909  17.807  0.00  0.00    +0.000 C 
ATOM     24  C   UNL     1       2.520   3.524  17.441  0.00  0.00    +0.000 C 
ATOM     25  C   UNL     1       4.018   3.644  17.128  0.00  0.00    +0.000 C 
ATOM     26  C   UNL     1       4.759   4.195  18.358  0.00  0.00    +0.000 C 
ATOM     27  C   UNL     1       4.565   3.221  19.529  0.00  0.00    +0.000 C 
ATOM     28  C   UNL     1       3.069   3.101  19.863  0.00  0.00    +0.000 C 
ATOM     29  C   UNL     1       2.323   2.567  18.628  0.00  0.00    +0.000 C 
ATOM     30  C   UNL     1       2.510   4.489  20.240  0.00  0.00    +0.000 C 
ATOM     31  C   UNL     1       4.182   5.579  18.735  0.00  0.00    +0.000 C 
ENDBRANCH  20  22
ENDBRANCH   1  19
TORSDOF 3
ENDMDL
MODEL 4
REMARK VINA RESULT:      -9.2      0.545      1.394
REMARK  Name = 
REMARK  3 active torsions:
REMARK  status: ('A' for Active; 'I' for Inactive)
REMARK    1  A    between atoms: C_2  and  C_14
REMARK    2  A    between atoms: N_3  and  C_4
REMARK    3  A    between atoms: N_16  and  C_17
REMARK                            x       y       z     vdW  Elec       q    Type
REMARK                         _______ _______ _______ _____ _____    ______ ____
ROOT
ATOM      1  C   UNL     1       1.468   9.360  19.226  0.00  0.00    +0.000 A 
ATOM      2  N   UNL     1       1.477  10.580  18.641  0.00  0.00    +0.000 NA
ATOM      3  N   UNL     1       0.966  11.431  19.578  0.00  0.00    +0.000 N 
ATOM      4  C   UNL     1       0.483  10.754  20.675  0.00  0.00    +0.000 A 
ATOM      5  C   UNL     1       0.779   9.420  20.478  0.00  0.00    +0.000 A 
ATOM      6  C   UNL     1       0.414   8.363  21.468  0.00  0.00    +0.000 C 
ATOM      7  C   UNL     1      -0.651   8.867  22.469  0.00  0.00    +0.000 C 
ATOM      8  C   UNL     1      -0.353  10.290  22.968  0.00  0.00    +0.000 C 
ATOM      9  C   UNL     1      -0.333  11.297  21.806  0.00  0.00    +0.000 C 
ENDROOT
BRANCH   3  10
ATOM     10  C   UNL     1       1.034  12.831  19.367  0.00  0.00    +0.000 A 
ATOM     11  C   UNL     1      -0.103  13.522  18.937  0.00  0.00    +0.000 A 
ATOM     12  C   UNL     1      -0.027  14.896  18.686  0.00  0.00    +0.000 A 
ATOM     13  C   UNL     1       1.186  15.576  18.833  0.00  0.00    +0.000 A 
ATOM     14 CL   UNL     1       1.221  17.260  18.453  0.00  0.00    +0.000 Cl
ATOM     15  C   UNL     1       2.325  14.881  19.252  0.00  0.00    +0.000 A 
ATOM     16 CL   UNL     1       3.867  15.642  19.432  0.00  0.00    +0.000 Cl
ATOM     17  C   UNL     1       2.247  13.512  19.521  0.00  0.00    +0.000 A 
ENDBRANCH   3  10
BRANCH   1  19
ATOM     18  O   UNL     1       2.457   8.196  17.408  0.00  0.00    +0.000 OA
ATOM     19  C   UNL     1       2.097   8.173  18.587  0.00  0.00    +0.000 C 
ATOM     20  N   UNL     1       2.222   7.053  19.399  0.00  0.00    +0.000 N 
ATOM     21  H   UNL     1       1.834   7.166  20.329  0.00  0.00    +0.000 HD
BRANCH  20  22
ATOM     22  C   UNL     1       2.816   5.756  19.000  0.00  0.00    +0.000 C 
ATOM     23  C   UNL     1       2.880   4.772  20.199  0.00  0.00    +0.000 C 
ATOM     24  C   UNL     1       3.477   3.416  19.780  0.00  0.00    +0.000 C 
ATOM     25  C   UNL     1       2.595   2.780  18.696  0.00  0.00    +0.000 C 
ATOM     26  C   UNL     1       2.523   3.713  17.476  0.00  0.00    +0.000 C 
ATOM     27  C   UNL     1       3.942   3.911  16.921  0.00  0.00    +0.000 C 
ATOM     28  C   UNL     1       4.834   4.560  17.992  0.00  0.00    +0.000 C 
ATOM     29  C   UNL     1       4.892   3.636  19.220  0.00  0.00    +0.000 C 
ATOM     30  C   UNL     1       4.240   5.923  18.403  0.00  0.00    +0.000 C 
ATOM     31  C   UNL     1       1.940   5.081  17.901  0.00  0.00    +0.000 C 
ENDBRANCH  20  22
ENDBRANCH   1  19
TORSDOF 3
ENDMDL
MODEL 5
REMARK VINA RESULT:      -9.2      0.645      1.973
REMARK  Name = 
REMARK  3 active torsions:
REMARK  status: ('A' for Active; 'I' for Inactive)
REMARK    1  A    between atoms: C_2  and  C_14
REMARK    2  A    between atoms: N_3  and  C_4
REMARK    3  A    between atoms: N_16  and  C_17
REMARK                            x       y       z     vdW  Elec       q    Type
REMARK                         _______ _______ _______ _____ _____    ______ ____
ROOT
ATOM      1  C   UNL     1       1.682   9.021  19.206  0.00  0.00    +0.000 A 
ATOM      2  N   UNL     1       1.788  10.170  18.501  0.00  0.00    +0.000 NA
ATOM      3  N   UNL     1       1.284  11.140  19.317  0.00  0.00    +0.000 N 
ATOM      4  C   UNL     1       0.712  10.610  20.451  0.00  0.00    +0.000 A 
ATOM      5  C   UNL     1       0.939   9.248  20.408  0.00  0.00    +0.000 A 
ATOM      6  C   UNL     1       0.468   8.322  21.481  0.00  0.00    +0.000 C 
ATOM      7  C   UNL     1      -0.612   8.984  22.367  0.00  0.00    +0.000 C 
ATOM      8  C   UNL     1      -0.256  10.433  22.733  0.00  0.00    +0.000 C 
ATOM      9  C   UNL     1      -0.123  11.310  21.476  0.00  0.00    +0.000 C 
ENDROOT
BRANCH   3  10
ATOM     10  C   UNL     1       1.442  12.505  18.968  0.00  0.00    +0.000 A 
ATOM     11  C   UNL     1       2.661  12.948  18.446  0.00  0.00    +0.000 A 
ATOM     12  C   UNL     1       2.835  14.302  18.142  0.00  0.00    +0.000 A 
ATOM     13  C   UNL     1       1.807  15.219  18.385  0.00  0.00    +0.000 A 
ATOM     14 CL   UNL     1       2.109  16.884  18.037  0.00  0.00    +0.000 Cl
ATOM     15  C   UNL     1       0.592  14.776  18.917  0.00  0.00    +0.000 A 
ATOM     16 CL   UNL     1      -0.716  15.849  19.272  0.00  0.00    +0.000 Cl
ATOM     17  C   UNL     1       0.411  13.421  19.205  0.00  0.00    +0.000 A 
ENDBRANCH   3  10
BRANCH   1  19
ATOM     18  O   UNL     1       2.936   7.692  17.690  0.00  0.00    +0.000 OA
ATOM     19  C   UNL     1       2.270   7.741  18.726  0.00  0.00    +0.000 C 
ATOM     20  N   UNL     1       1.996   6.627  19.508  0.00  0.00    +0.000 N 
ATOM     21  H   UNL     1       1.391   6.811  20.302  0.00  0.00    +0.000 HD
BRANCH  20  22
ATOM     22  C   UNL     1       2.468   5.247  19.246  0.00  0.00    +0.000 C 
ATOM     23  C   UNL     1       1.884   4.245  20.277  0.00  0.00    +0.000 C 
ATOM     24  C   UNL     1       2.357   2.808  19.992  0.00  0.00    +0.000 C 
ATOM     25  C   UNL     1       1.883   2.378  18.596  0.00  0.00    +0.000 C 
ATOM     26  C   UNL     1       2.461   3.333  17.539  0.00  0.00    +0.000 C 
ATOM     27  C   UNL     1       3.994   3.262  17.595  0.00  0.00    +0.000 C 
ATOM     28  C   UNL     1       4.485   3.703  18.983  0.00  0.00    +0.000 C 
ATOM     29  C   UNL     1       3.892   2.760  20.044  0.00  0.00    +0.000 C 
ATOM     30  C   UNL     1       4.018   5.147  19.263  0.00  0.00    +0.000 C 
ATOM     31  C   UNL     1       1.999   4.779  17.836  0.00  0.00    +0.000 C 
ENDBRANCH  20  22
ENDBRANCH   1  19
TORSDOF 3
ENDMDL
MODEL 6
REMARK VINA RESULT:      -9.1      0.561      1.877
REMARK  Name = 
REMARK  3 active torsions:
REMARK  status: ('A' for Active; 'I' for Inactive)
REMARK    1  A    between atoms: C_2  and  C_14
REMARK    2  A    between atoms: N_3  and  C_4
REMARK    3  A    between atoms: N_16  and  C_17
REMARK                            x       y       z     vdW  Elec       q    Type
REMARK                         _______ _______ _______ _____ _____    ______ ____
ROOT
ATOM      1  C   UNL     1       1.660   9.071  19.106  0.00  0.00    +0.000 A 
ATOM      2  N   UNL     1       1.759  10.237  18.429  0.00  0.00    +0.000 NA
ATOM      3  N   UNL     1       1.272  11.188  19.278  0.00  0.00    +0.000 N 
ATOM      4  C   UNL     1       0.717  10.630  20.407  0.00  0.00    +0.000 A 
ATOM      5  C   UNL     1       0.939   9.269  20.325  0.00  0.00    +0.000 A 
ATOM      6  C   UNL     1       0.482   8.317  21.381  0.00  0.00    +0.000 C 
ATOM      7  C   UNL     1      -0.580   8.960  22.303  0.00  0.00    +0.000 C 
ATOM      8  C   UNL     1      -0.213  10.398  22.699  0.00  0.00    +0.000 C 
ATOM      9  C   UNL     1      -0.099  11.306  21.463  0.00  0.00    +0.000 C 
ENDROOT
BRANCH   3  10
ATOM     10  C   UNL     1       1.429  12.561  18.961  0.00  0.00    +0.000 A 
ATOM     11  C   UNL     1       2.655  13.021  18.471  0.00  0.00    +0.000 A 
ATOM     12  C   UNL     1       2.826  14.383  18.199  0.00  0.00    +0.000 A 
ATOM     13  C   UNL     1       1.790  15.289  18.444  0.00  0.00    +0.000 A 
ATOM     14 CL   UNL     1       2.090  16.962  18.138  0.00  0.00    +0.000 Cl
ATOM     15  C   UNL     1       0.568  14.829  18.945  0.00  0.00    +0.000 A 
ATOM     16 CL   UNL     1      -0.752  15.887  19.301  0.00  0.00    +0.000 Cl
ATOM     17  C   UNL     1       0.389  13.466  19.201  0.00  0.00    +0.000 A 
ENDBRANCH   3  10
BRANCH   1  19
ATOM     18  O   UNL     1       2.778   7.754  17.477  0.00  0.00    +0.000 OA
ATOM     19  C   UNL     1       2.236   7.802  18.583  0.00  0.00    +0.000 C 
ATOM     20  N   UNL     1       2.097   6.697  19.412  0.00  0.00    +0.000 N 
ATOM     21  H   UNL     1       1.583   6.877  20.268  0.00  0.00    +0.000 HD
BRANCH  20  22
ATOM     22  C   UNL     1       2.587   5.329  19.121  0.00  0.00    +0.000 C 
ATOM     23  C   UNL     1       1.964   4.772  17.813  0.00  0.00    +0.000 C 
ATOM     24  C   UNL     1       2.490   3.360  17.498  0.00  0.00    +0.000 C 
ATOM     25  C   UNL     1       4.013   3.409  17.311  0.00  0.00    +0.000 C 
ATOM     26  C   UNL     1       4.674   3.934  18.596  0.00  0.00    +0.000 C 
ATOM     27  C   UNL     1       4.338   2.977  19.750  0.00  0.00    +0.000 C 
ATOM     28  C   UNL     1       2.816   2.928  19.959  0.00  0.00    +0.000 C 
ATOM     29  C   UNL     1       2.152   2.421  18.668  0.00  0.00    +0.000 C 
ATOM     30  C   UNL     1       2.292   4.343  20.284  0.00  0.00    +0.000 C 
ATOM     31  C   UNL     1       4.133   5.345  18.921  0.00  0.00    +0.000 C 
ENDBRANCH  20  22
ENDBRANCH   1  19
TORSDOF 3
ENDMDL
MODEL 7
REMARK VINA RESULT:      -8.9      3.748      8.374
REMARK  Name = 
REMARK  3 active torsions:
REMARK  status: ('A' for Active; 'I' for Inactive)
REMARK    1  A    between atoms: C_2  and  C_14
REMARK    2  A    between atoms: N_3  and  C_4
REMARK    3  A    between atoms: N_16  and  C_17
REMARK                            x       y       z     vdW  Elec       q    Type
REMARK                         _______ _______ _______ _____ _____    ______ ____
ROOT
ATOM      1  C   UNL     1       2.410   6.593  19.538  0.00  0.00    +0.000 A 
ATOM      2  N   UNL     1       3.512   6.781  18.776  0.00  0.00    +0.000 NA
ATOM      3  N   UNL     1       3.881   5.533  18.365  0.00  0.00    +0.000 N 
ATOM      4  C   UNL     1       3.139   4.551  18.980  0.00  0.00    +0.000 A 
ATOM      5  C   UNL     1       2.191   5.195  19.750  0.00  0.00    +0.000 A 
ATOM      6  C   UNL     1       1.187   4.455  20.572  0.00  0.00    +0.000 C 
ATOM      7  C   UNL     1       1.598   2.978  20.774  0.00  0.00    +0.000 C 
ATOM      8  C   UNL     1       2.124   2.339  19.480  0.00  0.00    +0.000 C 
ATOM      9  C   UNL     1       3.373   3.073  18.962  0.00  0.00    +0.000 C 
ENDROOT
BRANCH   3  10
ATOM     10  C   UNL     1       4.880   5.388  17.369  0.00  0.00    +0.000 A 
ATOM     11  C   UNL     1       6.138   5.968  17.562  0.00  0.00    +0.000 A 
ATOM     12  C   UNL     1       7.111   5.863  16.563  0.00  0.00    +0.000 A 
ATOM     13  C   UNL     1       6.822   5.210  15.360  0.00  0.00    +0.000 A 
ATOM     14 CL   UNL     1       8.052   5.166  14.148  0.00  0.00    +0.000 Cl
ATOM     15  C   UNL     1       5.560   4.641  15.164  0.00  0.00    +0.000 A 
ATOM     16 CL   UNL     1       5.116   3.841  13.697  0.00  0.00    +0.000 Cl
ATOM     17  C   UNL     1       4.592   4.728  16.169  0.00  0.00    +0.000 A 
ENDBRANCH   3  10
BRANCH   1  19
ATOM     18  O   UNL     1       1.053   7.679  21.155  0.00  0.00    +0.000 OA
ATOM     19  C   UNL     1       1.602   7.731  20.053  0.00  0.00    +0.000 C 
ATOM     20  N   UNL     1       1.497   8.823  19.201  0.00  0.00    +0.000 N 
ATOM     21  H   UNL     1       1.958   8.701  18.305  0.00  0.00    +0.000 HD
BRANCH  20  22
ATOM     22  C   UNL     1       0.755  10.074  19.483  0.00  0.00    +0.000 C 
ATOM     23  C   UNL     1       0.826  10.444  20.989  0.00  0.00    +0.000 C 
ATOM     24  C   UNL     1       0.074  11.755  21.281  0.00  0.00    +0.000 C 
ATOM     25  C   UNL     1       0.714  12.901  20.484  0.00  0.00    +0.000 C 
ATOM     26  C   UNL     1       0.644  12.587  18.981  0.00  0.00    +0.000 C 
ATOM     27  C   UNL     1      -0.831  12.451  18.573  0.00  0.00    +0.000 C 
ATOM     28  C   UNL     1      -1.482  11.297  19.353  0.00  0.00    +0.000 C 
ATOM     29  C   UNL     1      -1.396  11.602  20.858  0.00  0.00    +0.000 C 
ATOM     30  C   UNL     1      -0.734   9.981  19.052  0.00  0.00    +0.000 C 
ATOM     31  C   UNL     1       1.384  11.261  18.692  0.00  0.00    +0.000 C 
ENDBRANCH  20  22
ENDBRANCH   1  19
TORSDOF 3
ENDMDL
MODEL 8
REMARK VINA RESULT:      -8.9      3.796      8.445
REMARK  Name = 
REMARK  3 active torsions:
REMARK  status: ('A' for Active; 'I' for Inactive)
REMARK    1  A    between atoms: C_2  and  C_14
REMARK    2  A    between atoms: N_3  and  C_4
REMARK    3  A    between atoms: N_16  and  C_17
REMARK                            x       y       z     vdW  Elec       q    Type
REMARK                         _______ _______ _______ _____ _____    ______ ____
ROOT
ATOM      1  C   UNL     1       2.550   6.487  19.163  0.00  0.00    +0.000 A 
ATOM      2  N   UNL     1       3.652   6.652  18.396  0.00  0.00    +0.000 NA
ATOM      3  N   UNL     1       3.933   5.412  17.900  0.00  0.00    +0.000 N 
ATOM      4  C   UNL     1       3.136   4.442  18.464  0.00  0.00    +0.000 A 
ATOM      5  C   UNL     1       2.242   5.095  19.290  0.00  0.00    +0.000 A 
ATOM      6  C   UNL     1       1.202   4.370  20.080  0.00  0.00    +0.000 C 
ATOM      7  C   UNL     1       1.517   2.860  20.180  0.00  0.00    +0.000 C 
ATOM      8  C   UNL     1       1.983   2.273  18.839  0.00  0.00    +0.000 C 
ATOM      9  C   UNL     1       3.271   2.956  18.347  0.00  0.00    +0.000 C 
ENDROOT
BRANCH   3  10
ATOM     10  C   UNL     1       4.907   5.267  16.880  0.00  0.00    +0.000 A 
ATOM     11  C   UNL     1       6.170   5.842  17.045  0.00  0.00    +0.000 A 
ATOM     12  C   UNL     1       7.119   5.738  16.022  0.00  0.00    +0.000 A 
ATOM     13  C   UNL     1       6.799   5.089  14.824  0.00  0.00    +0.000 A 
ATOM     14 CL   UNL     1       8.000   5.046  13.583  0.00  0.00    +0.000 Cl
ATOM     15  C   UNL     1       5.531   4.524  14.657  0.00  0.00    +0.000 A 
ATOM     16 CL   UNL     1       5.049   3.730  13.199  0.00  0.00    +0.000 Cl
ATOM     17  C   UNL     1       4.588   4.611  15.685  0.00  0.00    +0.000 A 
ENDBRANCH   3  10
BRANCH   1  19
ATOM     18  O   UNL     1       1.378   7.587  20.911  0.00  0.00    +0.000 OA
ATOM     19  C   UNL     1       1.825   7.639  19.764  0.00  0.00    +0.000 C 
ATOM     20  N   UNL     1       1.675   8.746  18.938  0.00  0.00    +0.000 N 
ATOM     21  H   UNL     1       2.048   8.624  18.003  0.00  0.00    +0.000 HD
BRANCH  20  22
ATOM     22  C   UNL     1       0.999  10.013  19.302  0.00  0.00    +0.000 C 
ATOM     23  C   UNL     1       1.640  11.225  18.574  0.00  0.00    +0.000 C 
ATOM     24  C   UNL     1       0.925  12.539  18.935  0.00  0.00    +0.000 C 
ATOM     25  C   UNL     1      -0.547  12.456  18.506  0.00  0.00    +0.000 C 
ATOM     26  C   UNL     1      -1.229  11.281  19.224  0.00  0.00    +0.000 C 
ATOM     27  C   UNL     1      -1.158  11.520  20.740  0.00  0.00    +0.000 C 
ATOM     28  C   UNL     1       0.310  11.591  21.187  0.00  0.00    +0.000 C 
ATOM     29  C   UNL     1       0.999  12.756  20.455  0.00  0.00    +0.000 C 
ATOM     30  C   UNL     1       1.024  10.269  20.834  0.00  0.00    +0.000 C 
ATOM     31  C   UNL     1      -0.499   9.963  18.875  0.00  0.00    +0.000 C 
ENDBRANCH  20  22
ENDBRANCH   1  19
TORSDOF 3
ENDMDL
MODEL 9
REMARK VINA RESULT:      -8.9      3.782      8.413
REMARK  Name = 
REMARK  3 active torsions:
REMARK  status: ('A' for Active; 'I' for Inactive)
REMARK    1  A    between atoms: C_2  and  C_14
REMARK    2  A    between atoms: N_3  and  C_4
REMARK    3  A    between atoms: N_16  and  C_17
REMARK                            x       y       z     vdW  Elec       q    Type
REMARK                         _______ _______ _______ _____ _____    ______ ____
ROOT
ATOM      1  C   UNL     1       2.522   6.574  19.400  0.00  0.00    +0.000 A 
ATOM      2  N   UNL     1       3.608   6.733  18.609  0.00  0.00    +0.000 NA
ATOM      3  N   UNL     1       3.930   5.476  18.187  0.00  0.00    +0.000 N 
ATOM      4  C   UNL     1       3.178   4.514  18.821  0.00  0.00    +0.000 A 
ATOM      5  C   UNL     1       2.270   5.183  19.617  0.00  0.00    +0.000 A 
ATOM      6  C   UNL     1       1.267   4.470  20.464  0.00  0.00    +0.000 C 
ATOM      7  C   UNL     1       1.641   2.982  20.654  0.00  0.00    +0.000 C 
ATOM      8  C   UNL     1       2.115   2.330  19.346  0.00  0.00    +0.000 C 
ATOM      9  C   UNL     1       3.369   3.030  18.795  0.00  0.00    +0.000 C 
ENDROOT
BRANCH   3  10
ATOM     10  C   UNL     1       4.898   5.305  17.165  0.00  0.00    +0.000 A 
ATOM     11  C   UNL     1       6.176   5.849  17.324  0.00  0.00    +0.000 A 
ATOM     12  C   UNL     1       7.118   5.719  16.299  0.00  0.00    +0.000 A 
ATOM     13  C   UNL     1       6.780   5.075  15.104  0.00  0.00    +0.000 A 
ATOM     14 CL   UNL     1       7.975   5.000  13.860  0.00  0.00    +0.000 Cl
ATOM     15  C   UNL     1       5.498   4.541  14.942  0.00  0.00    +0.000 A 
ATOM     16 CL   UNL     1       4.993   3.756  13.487  0.00  0.00    +0.000 Cl
ATOM     17  C   UNL     1       4.560   4.654  15.972  0.00  0.00    +0.000 A 
ENDBRANCH   3  10
BRANCH   1  19
ATOM     18  O   UNL     1       1.275   7.711  21.070  0.00  0.00    +0.000 OA
ATOM     19  C   UNL     1       1.760   7.734  19.937  0.00  0.00    +0.000 C 
ATOM     20  N   UNL     1       1.621   8.811  19.071  0.00  0.00    +0.000 N 
ATOM     21  H   UNL     1       2.027   8.664  18.153  0.00  0.00    +0.000 HD
BRANCH  20  22
ATOM     22  C   UNL     1       0.913  10.078  19.371  0.00  0.00    +0.000 C 
ATOM     23  C   UNL     1      -0.578  10.006  18.945  0.00  0.00    +0.000 C 
ATOM     24  C   UNL     1      -1.319  11.314  19.276  0.00  0.00    +0.000 C 
ATOM     25  C   UNL     1      -1.272  11.561  20.791  0.00  0.00    +0.000 C 
ATOM     26  C   UNL     1       0.191  11.664  21.252  0.00  0.00    +0.000 C 
ATOM     27  C   UNL     1       0.856  12.843  20.528  0.00  0.00    +0.000 C 
ATOM     28  C   UNL     1       0.829  12.604  19.010  0.00  0.00    +0.000 C 
ATOM     29  C   UNL     1      -0.634  12.483  18.549  0.00  0.00    +0.000 C 
ATOM     30  C   UNL     1       1.581  11.297  18.679  0.00  0.00    +0.000 C 
ATOM     31  C   UNL     1       0.938  10.356  20.904  0.00  0.00    +0.000 C 
ENDBRANCH  20  22
ENDBRANCH   1  19
TORSDOF 3
ENDMDL
