MODEL 1
REMARK VINA RESULT:      -8.3      0.000      0.000
REMARK  Name = 
REMARK  5 active torsions:
REMARK  status: ('A' for Active; 'I' for Inactive)
REMARK    1  A    between atoms: C_2  and  C_11
REMARK    2  A    between atoms: N_3  and  C_4
REMARK    3  A    between atoms: C_14  and  C_15
REMARK    4  A    between atoms: C_18  and  C_19
REMARK    5  A    between atoms: N_21  and  C_22
REMARK                            x       y       z     vdW  Elec       q    Type
REMARK                         _______ _______ _______ _____ _____    ______ ____
ROOT
ATOM      1  C   UNL     1       0.094  10.189  20.461  0.00  0.00    +0.000 A 
ATOM      2  C   UNL     1       0.384   9.138  21.336  0.00  0.00    +0.000 A 
ATOM      3  C   UNL     1       1.233   8.106  20.936  0.00  0.00    +0.000 A 
ATOM      4  C   UNL     1       1.820   8.113  19.661  0.00  0.00    +0.000 A 
ATOM      5  C   UNL     1       1.527   9.180  18.795  0.00  0.00    +0.000 A 
ATOM      6  C   UNL     1       0.676  10.218  19.191  0.00  0.00    +0.000 A 
ENDROOT
BRANCH   4   7
ATOM      7  C   UNL     1       2.706   7.032  19.204  0.00  0.00    +0.000 A 
ATOM      8  N   UNL     1       2.959   5.939  19.897  0.00  0.00    +0.000 NA
ATOM      9  C   UNL     1       3.855   5.143  19.209  0.00  0.00    +0.000 A 
ATOM     10  C   UNL     1       4.261   5.620  17.980  0.00  0.00    +0.000 A 
ATOM     11  S   UNL     1       3.478   7.105  17.666  0.00  0.00    +0.000 S 
BRANCH  10  12
ATOM     12  C   UNL     1       5.196   4.996  17.067  0.00  0.00    +0.000 C 
ATOM     13  O   UNL     1       6.134   4.326  17.489  0.00  0.00    +0.000 OA
ATOM     14  N   UNL     1       4.967   5.258  15.724  0.00  0.00    +0.000 N 
ATOM     15  H   UNL     1       4.237   5.937  15.522  0.00  0.00    +0.000 HD
BRANCH  14  16
ATOM     16  C   UNL     1       5.722   4.797  14.627  0.00  0.00    +0.000 A 
ATOM     17  C   UNL     1       7.019   5.242  14.352  0.00  0.00    +0.000 A 
ATOM     18  C   UNL     1       7.695   4.795  13.215  0.00  0.00    +0.000 A 
ATOM     19  C   UNL     1       7.078   3.896  12.357  0.00  0.00    +0.000 A 
ATOM     20  F   UNL     1       7.717   3.492  11.253  0.00  0.00    +0.000 F 
ATOM     21  C   UNL     1       5.806   3.411  12.631  0.00  0.00    +0.000 A 
ATOM     22  C   UNL     1       5.133   3.853  13.774  0.00  0.00    +0.000 A 
ENDBRANCH  14  16
ENDBRANCH  10  12
ENDBRANCH   4   7
BRANCH   1  24
ATOM     23  O   UNL     1      -1.450  11.890  20.098  0.00  0.00    +0.000 OA
ATOM     24  C   UNL     1      -0.828  11.252  20.937  0.00  0.00    +0.000 C 
ATOM     25  N   UNL     1      -0.823  11.460  22.304  0.00  0.00    +0.000 N 
ATOM     26  H   UNL     1      -0.113  10.979  22.842  0.00  0.00    +0.000 HD
BRANCH  25  27
ATOM     27  C   UNL     1      -1.565  12.440  22.996  0.00  0.00    +0.000 A 
ATOM     28  C   UNL     1      -1.073  13.716  23.285  0.00  0.00    +0.000 A 
ATOM     29  C   UNL     1      -1.841  14.620  24.022  0.00  0.00    +0.000 A 
ATOM     30  C   UNL     1      -3.102  14.248  24.464  0.00  0.00    +0.000 A 
ATOM     31  F   UNL     1      -3.828  15.105  25.193  0.00  0.00    +0.000 F 
ATOM     32  C   UNL     1      -3.621  12.995  24.161  0.00  0.00    +0.000 A 
ATOM     33  C   UNL     1      -2.857  12.093  23.416  0.00  0.00    +0.000 A 
ENDBRANCH  25  27
ENDBRANCH   1  24
TORSDOF 5
ENDMDL
MODEL 2
REMARK VINA RESULT:      -8.1      1.097     12.836
REMARK  Name = 
REMARK  5 active torsions:
REMARK  status: ('A' for Active; 'I' for Inactive)
REMARK    1  A    between atoms: C_2  and  C_11
REMARK    2  A    between atoms: N_3  and  C_4
REMARK    3  A    between atoms: C_14  and  C_15
REMARK    4  A    between atoms: C_18  and  C_19
REMARK    5  A    between atoms: N_21  and  C_22
REMARK                            x       y       z     vdW  Elec       q    Type
REMARK                         _______ _______ _______ _____ _____    ______ ____
ROOT
ATOM      1  C   UNL     1       4.080   5.811  17.598  0.00  0.00    +0.000 A 
ATOM      2  C   UNL     1       3.708   7.086  17.162  0.00  0.00    +0.000 A 
ATOM      3  C   UNL     1       2.890   7.888  17.958  0.00  0.00    +0.000 A 
ATOM      4  C   UNL     1       2.443   7.438  19.210  0.00  0.00    +0.000 A 
ATOM      5  C   UNL     1       2.832   6.159  19.640  0.00  0.00    +0.000 A 
ATOM      6  C   UNL     1       3.652   5.349  18.846  0.00  0.00    +0.000 A 
ENDROOT
BRANCH   4   7
ATOM      7  C   UNL     1       1.568   8.254  20.066  0.00  0.00    +0.000 A 
ATOM      8  N   UNL     1       1.245   7.942  21.306  0.00  0.00    +0.000 NA
ATOM      9  C   UNL     1       0.382   8.890  21.820  0.00  0.00    +0.000 A 
ATOM     10  C   UNL     1       0.070   9.938  20.978  0.00  0.00    +0.000 A 
ATOM     11  S   UNL     1       0.903   9.739  19.501  0.00  0.00    +0.000 S 
BRANCH  10  12
ATOM     12  C   UNL     1      -0.814  11.050  21.258  0.00  0.00    +0.000 C 
ATOM     13  O   UNL     1      -1.316  11.699  20.345  0.00  0.00    +0.000 OA
ATOM     14  N   UNL     1      -0.995  11.329  22.605  0.00  0.00    +0.000 N 
ATOM     15  H   UNL     1      -0.416  10.800  23.251  0.00  0.00    +0.000 HD
BRANCH  14  16
ATOM     16  C   UNL     1      -1.784  12.357  23.161  0.00  0.00    +0.000 A 
ATOM     17  C   UNL     1      -3.117  12.176  23.542  0.00  0.00    +0.000 A 
ATOM     18  C   UNL     1      -3.867  13.248  24.031  0.00  0.00    +0.000 A 
ATOM     19  C   UNL     1      -3.280  14.499  24.148  0.00  0.00    +0.000 A 
ATOM     20  F   UNL     1      -4.009  15.531  24.590  0.00  0.00    +0.000 F 
ATOM     21  C   UNL     1      -1.946  14.694  23.813  0.00  0.00    +0.000 A 
ATOM     22  C   UNL     1      -1.195  13.618  23.331  0.00  0.00    +0.000 A 
ENDBRANCH  14  16
ENDBRANCH  10  12
ENDBRANCH   4   7
BRANCH   1  24
ATOM     23  O   UNL     1       5.623   4.115  17.206  0.00  0.00    +0.000 OA
ATOM     24  C   UNL     1       4.939   4.997  16.701  0.00  0.00    +0.000 C 
ATOM     25  N   UNL     1       4.931   5.385  15.374  0.00  0.00    +0.000 N 
ATOM     26  H   UNL     1       4.459   6.251  15.149  0.00  0.00    +0.000 HD
BRANCH  25  27
ATOM     27  C   UNL     1       5.696   4.809  14.338  0.00  0.00    +0.000 A 
ATOM     28  C   UNL     1       7.020   5.169  14.069  0.00  0.00    +0.000 A 
ATOM     29  C   UNL     1       7.703   4.600  12.993  0.00  0.00    +0.000 A 
ATOM     30  C   UNL     1       7.063   3.668  12.189  0.00  0.00    +0.000 A 
ATOM     31  F   UNL     1       7.709   3.141  11.142  0.00  0.00    +0.000 F 
ATOM     32  C   UNL     1       5.757   3.275  12.458  0.00  0.00    +0.000 A 
ATOM     33  C   UNL     1       5.076   3.838  13.541  0.00  0.00    +0.000 A 
ENDBRANCH  25  27
ENDBRANCH   1  24
TORSDOF 5
ENDMDL
MODEL 3
REMARK VINA RESULT:      -7.7      1.147     12.873
REMARK  Name = 
REMARK  5 active torsions:
REMARK  status: ('A' for Active; 'I' for Inactive)
REMARK    1  A    between atoms: C_2  and  C_11
REMARK    2  A    between atoms: N_3  and  C_4
REMARK    3  A    between atoms: C_14  and  C_15
REMARK    4  A    between atoms: C_18  and  C_19
REMARK    5  A    between atoms: N_21  and  C_22
REMARK                            x       y       z     vdW  Elec       q    Type
REMARK                         _______ _______ _______ _____ _____    ______ ____
ROOT
ATOM      1  C   UNL     1       4.079   5.641  17.075  0.00  0.00    +0.000 A 
ATOM      2  C   UNL     1       3.280   5.049  18.057  0.00  0.00    +0.000 A 
ATOM      3  C   UNL     1       2.526   5.843  18.921  0.00  0.00    +0.000 A 
ATOM      4  C   UNL     1       2.544   7.242  18.808  0.00  0.00    +0.000 A 
ATOM      5  C   UNL     1       3.344   7.824  17.811  0.00  0.00    +0.000 A 
ATOM      6  C   UNL     1       4.103   7.032  16.941  0.00  0.00    +0.000 A 
ENDROOT
BRANCH   4   7
ATOM      7  C   UNL     1       1.772   8.108  19.713  0.00  0.00    +0.000 A 
ATOM      8  N   UNL     1       1.554   7.841  20.986  0.00  0.00    +0.000 NA
ATOM      9  C   UNL     1       0.768   8.829  21.546  0.00  0.00    +0.000 A 
ATOM     10  C   UNL     1       0.411   9.862  20.704  0.00  0.00    +0.000 A 
ATOM     11  S   UNL     1       1.102   9.597  19.165  0.00  0.00    +0.000 S 
BRANCH  10  12
ATOM     12  C   UNL     1      -0.412  11.009  21.028  0.00  0.00    +0.000 C 
ATOM     13  O   UNL     1      -0.778  11.786  20.152  0.00  0.00    +0.000 OA
ATOM     14  N   UNL     1      -0.697  11.163  22.377  0.00  0.00    +0.000 N 
ATOM     15  H   UNL     1      -0.220  10.525  23.008  0.00  0.00    +0.000 HD
BRANCH  14  16
ATOM     16  C   UNL     1      -1.457  12.189  22.973  0.00  0.00    +0.000 A 
ATOM     17  C   UNL     1      -0.966  13.482  23.180  0.00  0.00    +0.000 A 
ATOM     18  C   UNL     1      -1.744  14.440  23.832  0.00  0.00    +0.000 A 
ATOM     19  C   UNL     1      -3.019  14.109  24.269  0.00  0.00    +0.000 A 
ATOM     20  F   UNL     1      -3.752  15.020  24.918  0.00  0.00    +0.000 F 
ATOM     21  C   UNL     1      -3.542  12.843  24.039  0.00  0.00    +0.000 A 
ATOM     22  C   UNL     1      -2.765  11.887  23.379  0.00  0.00    +0.000 A 
ENDBRANCH  14  16
ENDBRANCH  10  12
ENDBRANCH   4   7
BRANCH   1  24
ATOM     23  O   UNL     1       5.504   3.838  16.719  0.00  0.00    +0.000 OA
ATOM     24  C   UNL     1       4.872   4.745  16.194  0.00  0.00    +0.000 C 
ATOM     25  N   UNL     1       4.871   5.092  14.855  0.00  0.00    +0.000 N 
ATOM     26  H   UNL     1       4.452   5.980  14.608  0.00  0.00    +0.000 HD
BRANCH  25  27
ATOM     27  C   UNL     1       5.583   4.437  13.830  0.00  0.00    +0.000 A 
ATOM     28  C   UNL     1       5.012   3.476  12.990  0.00  0.00    +0.000 A 
ATOM     29  C   UNL     1       5.789   2.826  12.029  0.00  0.00    +0.000 A 
ATOM     30  C   UNL     1       7.134   3.140  11.906  0.00  0.00    +0.000 A 
ATOM     31  F   UNL     1       7.885   2.497  11.003  0.00  0.00    +0.000 F 
ATOM     32  C   UNL     1       7.713   4.113  12.712  0.00  0.00    +0.000 A 
ATOM     33  C   UNL     1       6.934   4.771  13.667  0.00  0.00    +0.000 A 
ENDBRANCH  25  27
ENDBRANCH   1  24
TORSDOF 5
ENDMDL
MODEL 4
REMARK VINA RESULT:      -7.6      1.155     12.880
REMARK  Name = 
REMARK  5 active torsions:
REMARK  status: ('A' for Active; 'I' for Inactive)
REMARK    1  A    between atoms: C_2  and  C_11
REMARK    2  A    between atoms: N_3  and  C_4
REMARK    3  A    between atoms: C_14  and  C_15
REMARK    4  A    between atoms: C_18  and  C_19
REMARK    5  A    between atoms: N_21  and  C_22
REMARK                            x       y       z     vdW  Elec       q    Type
REMARK                         _______ _______ _______ _____ _____    ______ ____
ROOT
ATOM      1  C   UNL     1       3.979   5.405  17.142  0.00  0.00    +0.000 A 
ATOM      2  C   UNL     1       4.107   6.790  16.999  0.00  0.00    +0.000 A 
ATOM      3  C   UNL     1       3.408   7.650  17.846  0.00  0.00    +0.000 A 
ATOM      4  C   UNL     1       2.582   7.142  18.862  0.00  0.00    +0.000 A 
ATOM      5  C   UNL     1       2.470   5.749  19.000  0.00  0.00    +0.000 A 
ATOM      6  C   UNL     1       3.168   4.881  18.153  0.00  0.00    +0.000 A 
ENDROOT
BRANCH   4   7
ATOM      7  C   UNL     1       1.820   8.022  19.761  0.00  0.00    +0.000 A 
ATOM      8  N   UNL     1       1.673   7.811  21.055  0.00  0.00    +0.000 NA
ATOM      9  C   UNL     1       0.875   8.796  21.604  0.00  0.00    +0.000 A 
ATOM     10  C   UNL     1       0.438   9.771  20.732  0.00  0.00    +0.000 A 
ATOM     11  S   UNL     1       1.066   9.456  19.175  0.00  0.00    +0.000 S 
BRANCH  10  12
ATOM     12  C   UNL     1      -0.414  10.901  21.040  0.00  0.00    +0.000 C 
ATOM     13  O   UNL     1      -0.828  11.637  20.150  0.00  0.00    +0.000 OA
ATOM     14  N   UNL     1      -0.669  11.091  22.391  0.00  0.00    +0.000 N 
ATOM     15  H   UNL     1      -0.154  10.490  23.029  0.00  0.00    +0.000 HD
BRANCH  14  16
ATOM     16  C   UNL     1      -1.446  12.112  22.973  0.00  0.00    +0.000 A 
ATOM     17  C   UNL     1      -2.777  11.930  23.363  0.00  0.00    +0.000 A 
ATOM     18  C   UNL     1      -3.517  12.996  23.879  0.00  0.00    +0.000 A 
ATOM     19  C   UNL     1      -2.923  14.242  24.015  0.00  0.00    +0.000 A 
ATOM     20  F   UNL     1      -3.642  15.269  24.482  0.00  0.00    +0.000 F 
ATOM     21  C   UNL     1      -1.591  14.436  23.671  0.00  0.00    +0.000 A 
ATOM     22  C   UNL     1      -0.850  13.367  23.162  0.00  0.00    +0.000 A 
ENDBRANCH  14  16
ENDBRANCH  10  12
ENDBRANCH   4   7
BRANCH   1  24
ATOM     23  O   UNL     1       5.205   3.495  16.634  0.00  0.00    +0.000 OA
ATOM     24  C   UNL     1       4.735   4.539  16.202  0.00  0.00    +0.000 C 
ATOM     25  N   UNL     1       4.895   5.059  14.930  0.00  0.00    +0.000 N 
ATOM     26  H   UNL     1       4.609   6.019  14.784  0.00  0.00    +0.000 HD
BRANCH  25  27
ATOM     27  C   UNL     1       5.613   4.460  13.874  0.00  0.00    +0.000 A 
ATOM     28  C   UNL     1       5.069   3.488  13.029  0.00  0.00    +0.000 A 
ATOM     29  C   UNL     1       5.853   2.895  12.037  0.00  0.00    +0.000 A 
ATOM     30  C   UNL     1       7.178   3.278  11.889  0.00  0.00    +0.000 A 
ATOM     31  F   UNL     1       7.937   2.690  10.956  0.00  0.00    +0.000 F 
ATOM     32  C   UNL     1       7.728   4.263  12.700  0.00  0.00    +0.000 A 
ATOM     33  C   UNL     1       6.942   4.863  13.687  0.00  0.00    +0.000 A 
ENDBRANCH  25  27
ENDBRANCH   1  24
TORSDOF 5
ENDMDL
MODEL 5
REMARK VINA RESULT:      -7.6      2.684     13.244
REMARK  Name = 
REMARK  5 active torsions:
REMARK  status: ('A' for Active; 'I' for Inactive)
REMARK    1  A    between atoms: C_2  and  C_11
REMARK    2  A    between atoms: N_3  and  C_4
REMARK    3  A    between atoms: C_14  and  C_15
REMARK    4  A    between atoms: C_18  and  C_19
REMARK    5  A    between atoms: N_21  and  C_22
REMARK                            x       y       z     vdW  Elec       q    Type
REMARK                         _______ _______ _______ _____ _____    ______ ____
ROOT
ATOM      1  C   UNL     1       2.022   7.944  19.373  0.00  0.00    +0.000 A 
ATOM      2  C   UNL     1       1.542   7.866  20.684  0.00  0.00    +0.000 A 
ATOM      3  C   UNL     1       0.636   8.817  21.156  0.00  0.00    +0.000 A 
ATOM      4  C   UNL     1       0.182   9.851  20.323  0.00  0.00    +0.000 A 
ATOM      5  C   UNL     1       0.666   9.912  19.006  0.00  0.00    +0.000 A 
ATOM      6  C   UNL     1       1.575   8.962  18.526  0.00  0.00    +0.000 A 
ENDROOT
BRANCH   4   7
ATOM      7  C   UNL     1      -0.761  10.877  20.795  0.00  0.00    +0.000 A 
ATOM      8  N   UNL     1      -1.394  11.721  20.005  0.00  0.00    +0.000 NA
ATOM      9  C   UNL     1      -2.174  12.577  20.758  0.00  0.00    +0.000 A 
ATOM     10  C   UNL     1      -2.154  12.364  22.121  0.00  0.00    +0.000 A 
ATOM     11  S   UNL     1      -1.141  11.034  22.468  0.00  0.00    +0.000 S 
BRANCH  10  12
ATOM     12  C   UNL     1      -2.862  13.119  23.134  0.00  0.00    +0.000 C 
ATOM     13  O   UNL     1      -3.382  12.553  24.091  0.00  0.00    +0.000 OA
ATOM     14  N   UNL     1      -2.935  14.485  22.903  0.00  0.00    +0.000 N 
ATOM     15  H   UNL     1      -2.579  14.803  22.005  0.00  0.00    +0.000 HD
BRANCH  14  16
ATOM     16  C   UNL     1      -3.571  15.451  23.708  0.00  0.00    +0.000 A 
ATOM     17  C   UNL     1      -4.956  15.640  23.723  0.00  0.00    +0.000 A 
ATOM     18  C   UNL     1      -5.525  16.655  24.496  0.00  0.00    +0.000 A 
ATOM     19  C   UNL     1      -4.709  17.474  25.261  0.00  0.00    +0.000 A 
ATOM     20  F   UNL     1      -5.253  18.464  25.979  0.00  0.00    +0.000 F 
ATOM     21  C   UNL     1      -3.334  17.280  25.292  0.00  0.00    +0.000 A 
ATOM     22  C   UNL     1      -2.767  16.259  24.525  0.00  0.00    +0.000 A 
ENDBRANCH  14  16
ENDBRANCH  10  12
ENDBRANCH   4   7
BRANCH   1  24
ATOM     23  O   UNL     1       3.108   5.900  19.609  0.00  0.00    +0.000 OA
ATOM     24  C   UNL     1       2.996   6.913  18.931  0.00  0.00    +0.000 C 
ATOM     25  N   UNL     1       3.744   7.256  17.819  0.00  0.00    +0.000 N 
ATOM     26  H   UNL     1       3.666   8.208  17.485  0.00  0.00    +0.000 HD
BRANCH  25  27
ATOM     27  C   UNL     1       4.766   6.478  17.236  0.00  0.00    +0.000 A 
ATOM     28  C   UNL     1       6.115   6.842  17.255  0.00  0.00    +0.000 A 
ATOM     29  C   UNL     1       7.070   6.052  16.610  0.00  0.00    +0.000 A 
ATOM     30  C   UNL     1       6.674   4.897  15.952  0.00  0.00    +0.000 A 
ATOM     31  F   UNL     1       7.585   4.155  15.312  0.00  0.00    +0.000 F 
ATOM     32  C   UNL     1       5.341   4.503  15.947  0.00  0.00    +0.000 A 
ATOM     33  C   UNL     1       4.387   5.288  16.600  0.00  0.00    +0.000 A 
ENDBRANCH  25  27
ENDBRANCH   1  24
TORSDOF 5
ENDMDL
MODEL 6
REMARK VINA RESULT:      -7.6      2.471     13.169
REMARK  Name = 
REMARK  5 active torsions:
REMARK  status: ('A' for Active; 'I' for Inactive)
REMARK    1  A    between atoms: C_2  and  C_11
REMARK    2  A    between atoms: N_3  and  C_4
REMARK    3  A    between atoms: C_14  and  C_15
REMARK    4  A    between atoms: C_18  and  C_19
REMARK    5  A    between atoms: N_21  and  C_22
REMARK                            x       y       z     vdW  Elec       q    Type
REMARK                         _______ _______ _______ _____ _____    ______ ____
ROOT
ATOM      1  C   UNL     1       2.077   7.617  19.396  0.00  0.00    +0.000 A 
ATOM      2  C   UNL     1       1.677   7.330  20.704  0.00  0.00    +0.000 A 
ATOM      3  C   UNL     1       0.887   8.237  21.411  0.00  0.00    +0.000 A 
ATOM      4  C   UNL     1       0.470   9.439  20.818  0.00  0.00    +0.000 A 
ATOM      5  C   UNL     1       0.873   9.711  19.500  0.00  0.00    +0.000 A 
ATOM      6  C   UNL     1       1.666   8.805  18.786  0.00  0.00    +0.000 A 
ENDROOT
BRANCH   4   7
ATOM      7  C   UNL     1      -0.350  10.423  21.542  0.00  0.00    +0.000 A 
ATOM      8  N   UNL     1      -0.688  10.315  22.812  0.00  0.00    +0.000 NA
ATOM      9  C   UNL     1      -1.487  11.379  23.178  0.00  0.00    +0.000 A 
ATOM     10  C   UNL     1      -1.735  12.312  22.193  0.00  0.00    +0.000 A 
ATOM     11  S   UNL     1      -0.920  11.850  20.764  0.00  0.00    +0.000 S 
BRANCH  10  12
ATOM     12  C   UNL     1      -2.546  13.507  22.304  0.00  0.00    +0.000 C 
ATOM     13  O   UNL     1      -2.736  14.230  21.331  0.00  0.00    +0.000 OA
ATOM     14  N   UNL     1      -3.030  13.770  23.577  0.00  0.00    +0.000 N 
ATOM     15  H   UNL     1      -2.686  13.164  24.318  0.00  0.00    +0.000 HD
BRANCH  14  16
ATOM     16  C   UNL     1      -3.826  14.862  23.975  0.00  0.00    +0.000 A 
ATOM     17  C   UNL     1      -5.188  14.965  23.675  0.00  0.00    +0.000 A 
ATOM     18  C   UNL     1      -5.912  16.101  24.043  0.00  0.00    +0.000 A 
ATOM     19  C   UNL     1      -5.276  17.130  24.720  0.00  0.00    +0.000 A 
ATOM     20  F   UNL     1      -5.965  18.231  25.047  0.00  0.00    +0.000 F 
ATOM     21  C   UNL     1      -3.934  17.034  25.064  0.00  0.00    +0.000 A 
ATOM     22  C   UNL     1      -3.212  15.893  24.702  0.00  0.00    +0.000 A 
ENDBRANCH  14  16
ENDBRANCH  10  12
ENDBRANCH   4   7
BRANCH   1  24
ATOM     23  O   UNL     1       2.678   5.434  18.863  0.00  0.00    +0.000 OA
ATOM     24  C   UNL     1       2.930   6.621  18.699  0.00  0.00    +0.000 C 
ATOM     25  N   UNL     1       3.990   7.155  17.988  0.00  0.00    +0.000 N 
ATOM     26  H   UNL     1       4.173   8.143  18.105  0.00  0.00    +0.000 HD
BRANCH  25  27
ATOM     27  C   UNL     1       4.969   6.422  17.286  0.00  0.00    +0.000 A 
ATOM     28  C   UNL     1       6.086   5.848  17.900  0.00  0.00    +0.000 A 
ATOM     29  C   UNL     1       7.048   5.182  17.137  0.00  0.00    +0.000 A 
ATOM     30  C   UNL     1       6.888   5.087  15.763  0.00  0.00    +0.000 A 
ATOM     31  F   UNL     1       7.824   4.471  15.029  0.00  0.00    +0.000 F 
ATOM     32  C   UNL     1       5.770   5.625  15.138  0.00  0.00    +0.000 A 
ATOM     33  C   UNL     1       4.803   6.284  15.901  0.00  0.00    +0.000 A 
ENDBRANCH  25  27
ENDBRANCH   1  24
TORSDOF 5
ENDMDL
MODEL 7
REMARK VINA RESULT:      -7.4      1.451      1.451
REMARK  Name = 
REMARK  5 active torsions:
REMARK  status: ('A' for Active; 'I' for Inactive)
REMARK    1  A    between atoms: C_2  and  C_11
REMARK    2  A    between atoms: N_3  and  C_4
REMARK    3  A    between atoms: C_14  and  C_15
REMARK    4  A    between atoms: C_18  and  C_19
REMARK    5  A    between atoms: N_21  and  C_22
REMARK                            x       y       z     vdW  Elec       q    Type
REMARK                         _______ _______ _______ _____ _____    ______ ____
ROOT
ATOM      1  C   UNL     1       0.406  10.047  21.137  0.00  0.00    +0.000 A 
ATOM      2  C   UNL     1       0.770   8.993  21.980  0.00  0.00    +0.000 A 
ATOM      3  C   UNL     1       1.456   7.891  21.469  0.00  0.00    +0.000 A 
ATOM      4  C   UNL     1       1.804   7.829  20.110  0.00  0.00    +0.000 A 
ATOM      5  C   UNL     1       1.440   8.899  19.276  0.00  0.00    +0.000 A 
ATOM      6  C   UNL     1       0.751  10.008  19.783  0.00  0.00    +0.000 A 
ENDROOT
BRANCH   4   7
ATOM      7  C   UNL     1       2.513   6.674  19.538  0.00  0.00    +0.000 A 
ATOM      8  N   UNL     1       2.721   5.541  20.179  0.00  0.00    +0.000 NA
ATOM      9  C   UNL     1       3.444   4.676  19.382  0.00  0.00    +0.000 A 
ATOM     10  C   UNL     1       3.762   5.142  18.123  0.00  0.00    +0.000 A 
ATOM     11  S   UNL     1       3.114   6.709  17.924  0.00  0.00    +0.000 S 
BRANCH  10  12
ATOM     12  C   UNL     1       4.519   4.450  17.100  0.00  0.00    +0.000 C 
ATOM     13  O   UNL     1       4.835   3.273  17.242  0.00  0.00    +0.000 OA
ATOM     14  N   UNL     1       4.876   5.228  16.009  0.00  0.00    +0.000 N 
ATOM     15  H   UNL     1       4.666   6.220  16.082  0.00  0.00    +0.000 HD
BRANCH  14  16
ATOM     16  C   UNL     1       5.621   4.823  14.883  0.00  0.00    +0.000 A 
ATOM     17  C   UNL     1       6.939   5.229  14.652  0.00  0.00    +0.000 A 
ATOM     18  C   UNL     1       7.605   4.844  13.487  0.00  0.00    +0.000 A 
ATOM     19  C   UNL     1       6.957   4.045  12.557  0.00  0.00    +0.000 A 
ATOM     20  F   UNL     1       7.587   3.701  11.428  0.00  0.00    +0.000 F 
ATOM     21  C   UNL     1       5.662   3.597  12.784  0.00  0.00    +0.000 A 
ATOM     22  C   UNL     1       4.999   3.976  13.954  0.00  0.00    +0.000 A 
ENDBRANCH  14  16
ENDBRANCH  10  12
ENDBRANCH   4   7
BRANCH   1  24
ATOM     23  O   UNL     1      -0.311  11.313  22.952  0.00  0.00    +0.000 OA
ATOM     24  C   UNL     1      -0.336  11.187  21.734  0.00  0.00    +0.000 C 
ATOM     25  N   UNL     1      -1.054  11.952  20.833  0.00  0.00    +0.000 N 
ATOM     26  H   UNL     1      -1.124  11.605  19.885  0.00  0.00    +0.000 HD
BRANCH  25  27
ATOM     27  C   UNL     1      -1.878  13.051  21.153  0.00  0.00    +0.000 A 
ATOM     28  C   UNL     1      -1.449  14.380  21.079  0.00  0.00    +0.000 A 
ATOM     29  C   UNL     1      -2.299  15.420  21.463  0.00  0.00    +0.000 A 
ATOM     30  C   UNL     1      -3.577  15.129  21.915  0.00  0.00    +0.000 A 
ATOM     31  F   UNL     1      -4.383  16.124  22.307  0.00  0.00    +0.000 F 
ATOM     32  C   UNL     1      -4.032  13.818  21.967  0.00  0.00    +0.000 A 
ATOM     33  C   UNL     1      -3.186  12.777  21.574  0.00  0.00    +0.000 A 
ENDBRANCH  25  27
ENDBRANCH   1  24
TORSDOF 5
ENDMDL
MODEL 8
REMARK VINA RESULT:      -7.4      2.872     13.156
REMARK  Name = 
REMARK  5 active torsions:
REMARK  status: ('A' for Active; 'I' for Inactive)
REMARK    1  A    between atoms: C_2  and  C_11
REMARK    2  A    between atoms: N_3  and  C_4
REMARK    3  A    between atoms: C_14  and  C_15
REMARK    4  A    between atoms: C_18  and  C_19
REMARK    5  A    between atoms: N_21  and  C_22
REMARK                            x       y       z     vdW  Elec       q    Type
REMARK                         _______ _______ _______ _____ _____    ______ ____
ROOT
ATOM      1  C   UNL     1       1.840   8.181  18.994  0.00  0.00    +0.000 A 
ATOM      2  C   UNL     1       1.458   8.454  20.310  0.00  0.00    +0.000 A 
ATOM      3  C   UNL     1       0.509   9.443  20.574  0.00  0.00    +0.000 A 
ATOM      4  C   UNL     1      -0.086  10.164  19.527  0.00  0.00    +0.000 A 
ATOM      5  C   UNL     1       0.302   9.873  18.209  0.00  0.00    +0.000 A 
ATOM      6  C   UNL     1       1.253   8.883  17.937  0.00  0.00    +0.000 A 
ENDROOT
BRANCH   4   7
ATOM      7  C   UNL     1      -1.077  11.222  19.773  0.00  0.00    +0.000 A 
ATOM      8  N   UNL     1      -2.181  11.382  19.069  0.00  0.00    +0.000 NA
ATOM      9  C   UNL     1      -2.876  12.484  19.527  0.00  0.00    +0.000 A 
ATOM     10  C   UNL     1      -2.314  13.146  20.599  0.00  0.00    +0.000 A 
ATOM     11  S   UNL     1      -0.876  12.348  21.061  0.00  0.00    +0.000 S 
BRANCH  10  12
ATOM     12  C   UNL     1      -2.824  14.328  21.261  0.00  0.00    +0.000 C 
ATOM     13  O   UNL     1      -2.751  15.429  20.724  0.00  0.00    +0.000 OA
ATOM     14  N   UNL     1      -3.341  14.112  22.530  0.00  0.00    +0.000 N 
ATOM     15  H   UNL     1      -3.216  13.177  22.908  0.00  0.00    +0.000 HD
BRANCH  14  16
ATOM     16  C   UNL     1      -3.886  15.077  23.402  0.00  0.00    +0.000 A 
ATOM     17  C   UNL     1      -5.250  15.383  23.445  0.00  0.00    +0.000 A 
ATOM     18  C   UNL     1      -5.723  16.392  24.286  0.00  0.00    +0.000 A 
ATOM     19  C   UNL     1      -4.835  17.088  25.091  0.00  0.00    +0.000 A 
ATOM     20  F   UNL     1      -5.287  18.074  25.876  0.00  0.00    +0.000 F 
ATOM     21  C   UNL     1      -3.481  16.775  25.094  0.00  0.00    +0.000 A 
ATOM     22  C   UNL     1      -3.010  15.760  24.258  0.00  0.00    +0.000 A 
ENDBRANCH  14  16
ENDBRANCH  10  12
ENDBRANCH   4   7
BRANCH   1  24
ATOM     23  O   UNL     1       2.957   6.235  19.607  0.00  0.00    +0.000 OA
ATOM     24  C   UNL     1       2.866   7.129  18.775  0.00  0.00    +0.000 C 
ATOM     25  N   UNL     1       3.676   7.324  17.671  0.00  0.00    +0.000 N 
ATOM     26  H   UNL     1       3.596   8.211  17.190  0.00  0.00    +0.000 HD
BRANCH  25  27
ATOM     27  C   UNL     1       4.751   6.501  17.277  0.00  0.00    +0.000 A 
ATOM     28  C   UNL     1       6.093   6.870  17.416  0.00  0.00    +0.000 A 
ATOM     29  C   UNL     1       7.109   6.031  16.955  0.00  0.00    +0.000 A 
ATOM     30  C   UNL     1       6.782   4.821  16.360  0.00  0.00    +0.000 A 
ATOM     31  F   UNL     1       7.755   4.028  15.894  0.00  0.00    +0.000 F 
ATOM     32  C   UNL     1       5.456   4.423  16.240  0.00  0.00    +0.000 A 
ATOM     33  C   UNL     1       4.439   5.258  16.709  0.00  0.00    +0.000 A 
ENDBRANCH  25  27
ENDBRANCH   1  24
TORSDOF 5
ENDMDL
MODEL 9
REMARK VINA RESULT:      -7.3      1.517      1.835
REMARK  Name = 
REMARK  5 active torsions:
REMARK  status: ('A' for Active; 'I' for Inactive)
REMARK    1  A    between atoms: C_2  and  C_11
REMARK    2  A    between atoms: N_3  and  C_4
REMARK    3  A    between atoms: C_14  and  C_15
REMARK    4  A    between atoms: C_18  and  C_19
REMARK    5  A    between atoms: N_21  and  C_22
REMARK                            x       y       z     vdW  Elec       q    Type
REMARK                         _______ _______ _______ _____ _____    ______ ____
ROOT
ATOM      1  C   UNL     1      -0.176  10.669  21.685  0.00  0.00    +0.000 A 
ATOM      2  C   UNL     1       0.228   9.674  22.580  0.00  0.00    +0.000 A 
ATOM      3  C   UNL     1       0.892   8.539  22.113  0.00  0.00    +0.000 A 
ATOM      4  C   UNL     1       1.177   8.386  20.747  0.00  0.00    +0.000 A 
ATOM      5  C   UNL     1       0.772   9.398  19.860  0.00  0.00    +0.000 A 
ATOM      6  C   UNL     1       0.106  10.539  20.323  0.00  0.00    +0.000 A 
ENDROOT
BRANCH   4   7
ATOM      7  C   UNL     1       1.860   7.194  20.221  0.00  0.00    +0.000 A 
ATOM      8  N   UNL     1       1.887   6.026  20.832  0.00  0.00    +0.000 NA
ATOM      9  C   UNL     1       2.639   5.128  20.099  0.00  0.00    +0.000 A 
ATOM     10  C   UNL     1       3.162   5.608  18.916  0.00  0.00    +0.000 A 
ATOM     11  S   UNL     1       2.676   7.232  18.705  0.00  0.00    +0.000 S 
BRANCH  10  12
ATOM     12  C   UNL     1       3.991   4.889  17.972  0.00  0.00    +0.000 C 
ATOM     13  O   UNL     1       4.265   3.706  18.151  0.00  0.00    +0.000 OA
ATOM     14  N   UNL     1       4.465   5.648  16.911  0.00  0.00    +0.000 N 
ATOM     15  H   UNL     1       4.272   6.645  16.957  0.00  0.00    +0.000 HD
BRANCH  14  16
ATOM     16  C   UNL     1       5.298   5.214  15.861  0.00  0.00    +0.000 A 
ATOM     17  C   UNL     1       6.653   5.549  15.772  0.00  0.00    +0.000 A 
ATOM     18  C   UNL     1       7.414   5.141  14.675  0.00  0.00    +0.000 A 
ATOM     19  C   UNL     1       6.823   4.388  13.671  0.00  0.00    +0.000 A 
ATOM     20  F   UNL     1       7.547   4.021  12.607  0.00  0.00    +0.000 F 
ATOM     21  C   UNL     1       5.489   4.009  13.758  0.00  0.00    +0.000 A 
ATOM     22  C   UNL     1       4.731   4.412  14.860  0.00  0.00    +0.000 A 
ENDBRANCH  14  16
ENDBRANCH  10  12
ENDBRANCH   4   7
BRANCH   1  24
ATOM     23  O   UNL     1      -0.233  12.694  22.829  0.00  0.00    +0.000 OA
ATOM     24  C   UNL     1      -0.892  11.848  22.238  0.00  0.00    +0.000 C 
ATOM     25  N   UNL     1      -2.267  11.818  22.090  0.00  0.00    +0.000 N 
ATOM     26  H   UNL     1      -2.676  10.959  21.747  0.00  0.00    +0.000 HD
BRANCH  25  27
ATOM     27  C   UNL     1      -3.172  12.786  22.571  0.00  0.00    +0.000 A 
ATOM     28  C   UNL     1      -3.832  12.678  23.799  0.00  0.00    +0.000 A 
ATOM     29  C   UNL     1      -4.759  13.645  24.192  0.00  0.00    +0.000 A 
ATOM     30  C   UNL     1      -5.022  14.722  23.358  0.00  0.00    +0.000 A 
ATOM     31  F   UNL     1      -5.930  15.636  23.722  0.00  0.00    +0.000 F 
ATOM     32  C   UNL     1      -4.355  14.863  22.147  0.00  0.00    +0.000 A 
ATOM     33  C   UNL     1      -3.420  13.900  21.758  0.00  0.00    +0.000 A 
ENDBRANCH  25  27
ENDBRANCH   1  24
TORSDOF 5
ENDMDL
