MODEL 1
REMARK VINA RESULT:      -8.4      0.000      0.000
REMARK  Name = 
REMARK  9 active torsions:
REMARK  status: ('A' for Active; 'I' for Inactive)
REMARK    1  A    between atoms: C_1  and  C_2
REMARK    2  A    between atoms: C_8  and  N_9
REMARK    3  A    between atoms: C_13  and  C_15
REMARK    4  A    between atoms: C_15  and  C_16
REMARK    5  A    between atoms: C_16  and  C_17
REMARK    6  A    between atoms: C_17  and  C_18
REMARK    7  A    between atoms: C_25  and  C_26
REMARK    8  A    between atoms: C_26  and  O_27
REMARK    9  A    between atoms: C_30  and  C_31
REMARK                            x       y       z     vdW  Elec       q    Type
REMARK                         _______ _______ _______ _____ _____    ______ ____
ROOT
ATOM      1  N   UNL     1       1.003  11.106  19.456  0.00  0.00    +0.000 N 
ATOM      2  C   UNL     1       1.177  10.419  20.751  0.00  0.00    +0.000 C 
ATOM      3  C   UNL     1       0.953   8.907  20.536  0.00  0.00    +0.000 C 
ATOM      4  N   UNL     1       1.773   8.347  19.439  0.00  0.00    +0.000 N 
ATOM      5  C   UNL     1       2.163   7.014  19.542  0.00  0.00    +0.000 C 
ATOM      6  O   UNL     1       1.865   6.332  20.525  0.00  0.00    +0.000 OA
ATOM      7  C   UNL     1       1.793   9.148  18.187  0.00  0.00    +0.000 C 
ATOM      8  C   UNL     1       0.492   8.960  17.393  0.00  0.00    +0.000 C 
ATOM      9  C   UNL     1       2.022  10.660  18.487  0.00  0.00    +0.000 C 
ENDROOT
BRANCH   1  17
ATOM     10  C   UNL     1      -1.323  12.301  18.211  0.00  0.00    +0.000 C 
ATOM     11  C   UNL     1      -0.290  13.096  18.957  0.00  0.00    +0.000 A 
ATOM     12  C   UNL     1      -0.493  14.472  19.134  0.00  0.00    +0.000 A 
ATOM     13  C   UNL     1       0.410  15.196  19.886  0.00  0.00    +0.000 A 
ATOM     14  F   UNL     1       0.220  16.505  20.097  0.00  0.00    +0.000 F 
ATOM     15  C   UNL     1       1.494  14.539  20.430  0.00  0.00    +0.000 A 
ATOM     16  N   UNL     1       1.727  13.212  20.274  0.00  0.00    +0.000 NA
ATOM     17  C   UNL     1       0.843  12.492  19.544  0.00  0.00    +0.000 A 
ENDBRANCH   1  17
BRANCH   5  18
ATOM     18  C   UNL     1       3.010   6.427  18.411  0.00  0.00    +0.000 C 
BRANCH  18  19
ATOM     19  C   UNL     1       2.509   5.035  17.982  0.00  0.00    +0.000 C 
BRANCH  19  20
ATOM     20  C   UNL     1       3.564   3.929  18.142  0.00  0.00    +0.000 C 
BRANCH  20  21
ATOM     21  C   UNL     1       4.978   4.470  17.972  0.00  0.00    +0.000 A 
ATOM     22  C   UNL     1       5.614   4.943  19.136  0.00  0.00    +0.000 A 
ATOM     23  C   UNL     1       6.875   5.521  19.071  0.00  0.00    +0.000 A 
ATOM     24  C   UNL     1       7.496   5.677  17.834  0.00  0.00    +0.000 A 
ATOM     25  C   UNL     1       6.904   5.246  16.662  0.00  0.00    +0.000 A 
ATOM     26  N   UNL     1       7.580   5.488  15.533  0.00  0.00    +0.000 NA
ATOM     27  C   UNL     1       7.069   5.019  14.378  0.00  0.00    +0.000 A 
ATOM     28  C   UNL     1       5.917   4.259  14.285  0.00  0.00    +0.000 A 
ATOM     29  C   UNL     1       5.186   4.073  15.470  0.00  0.00    +0.000 A 
ATOM     30  C   UNL     1       5.653   4.579  16.712  0.00  0.00    +0.000 A 
BRANCH  28  31
ATOM     31  C   UNL     1       5.550   3.686  12.952  0.00  0.00    +0.000 C 
BRANCH  31  32
ATOM     32  O   UNL     1       6.451   2.666  12.549  0.00  0.00    +0.000 OA
ATOM     33  H   UNL     1       6.835   2.297  13.363  0.00  0.00    +0.000 HD
ENDBRANCH  31  32
ENDBRANCH  28  31
ENDBRANCH  20  21
ENDBRANCH  19  20
ENDBRANCH  18  19
ENDBRANCH   5  18
TORSDOF 7
ENDMDL
MODEL 2
REMARK VINA RESULT:      -8.1      3.032      4.507
REMARK  Name = 
REMARK  9 active torsions:
REMARK  status: ('A' for Active; 'I' for Inactive)
REMARK    1  A    between atoms: C_1  and  C_2
REMARK    2  A    between atoms: C_8  and  N_9
REMARK    3  A    between atoms: C_13  and  C_15
REMARK    4  A    between atoms: C_15  and  C_16
REMARK    5  A    between atoms: C_16  and  C_17
REMARK    6  A    between atoms: C_17  and  C_18
REMARK    7  A    between atoms: C_25  and  C_26
REMARK    8  A    between atoms: C_26  and  O_27
REMARK    9  A    between atoms: C_30  and  C_31
REMARK                            x       y       z     vdW  Elec       q    Type
REMARK                         _______ _______ _______ _____ _____    ______ ____
ROOT
ATOM      1  N   UNL     1      -1.442  11.835  21.317  0.00  0.00    +0.000 N 
ATOM      2  C   UNL     1      -0.604  10.976  22.177  0.00  0.00    +0.000 C 
ATOM      3  C   UNL     1      -0.243   9.699  21.390  0.00  0.00    +0.000 C 
ATOM      4  N   UNL     1       0.344   9.980  20.061  0.00  0.00    +0.000 N 
ATOM      5  C   UNL     1       1.257   9.060  19.552  0.00  0.00    +0.000 C 
ATOM      6  O   UNL     1       1.591   8.063  20.196  0.00  0.00    +0.000 OA
ATOM      7  C   UNL     1      -0.361  11.016  19.261  0.00  0.00    +0.000 C 
ATOM      8  C   UNL     1      -1.648  10.450  18.641  0.00  0.00    +0.000 C 
ATOM      9  C   UNL     1      -0.691  12.270  20.124  0.00  0.00    +0.000 C 
ENDROOT
BRANCH   1  17
ATOM     10  C   UNL     1      -4.030  12.657  20.310  0.00  0.00    +0.000 C 
ATOM     11  C   UNL     1      -3.389  13.264  21.525  0.00  0.00    +0.000 A 
ATOM     12  C   UNL     1      -4.104  14.221  22.261  0.00  0.00    +0.000 A 
ATOM     13  C   UNL     1      -3.557  14.725  23.424  0.00  0.00    +0.000 A 
ATOM     14  F   UNL     1      -4.235  15.613  24.161  0.00  0.00    +0.000 F 
ATOM     15  C   UNL     1      -2.313  14.278  23.816  0.00  0.00    +0.000 A 
ATOM     16  N   UNL     1      -1.588  13.362  23.126  0.00  0.00    +0.000 NA
ATOM     17  C   UNL     1      -2.120  12.856  21.989  0.00  0.00    +0.000 A 
ENDBRANCH   1  17
BRANCH   5  18
ATOM     18  C   UNL     1       1.868   9.343  18.178  0.00  0.00    +0.000 C 
BRANCH  18  19
ATOM     19  C   UNL     1       2.384   8.057  17.504  0.00  0.00    +0.000 C 
BRANCH  19  20
ATOM     20  C   UNL     1       3.835   7.714  17.873  0.00  0.00    +0.000 C 
BRANCH  20  21
ATOM     21  C   UNL     1       4.214   6.309  17.423  0.00  0.00    +0.000 A 
ATOM     22  C   UNL     1       4.989   6.211  16.252  0.00  0.00    +0.000 A 
ATOM     23  C   UNL     1       5.324   4.972  15.722  0.00  0.00    +0.000 A 
ATOM     24  C   UNL     1       4.845   3.814  16.330  0.00  0.00    +0.000 A 
ATOM     25  C   UNL     1       4.065   3.857  17.470  0.00  0.00    +0.000 A 
ATOM     26  N   UNL     1       3.633   2.681  17.938  0.00  0.00    +0.000 NA
ATOM     27  C   UNL     1       2.929   2.679  19.088  0.00  0.00    +0.000 A 
ATOM     28  C   UNL     1       2.667   3.806  19.845  0.00  0.00    +0.000 A 
ATOM     29  C   UNL     1       3.070   5.038  19.304  0.00  0.00    +0.000 A 
ATOM     30  C   UNL     1       3.779   5.108  18.077  0.00  0.00    +0.000 A 
BRANCH  28  31
ATOM     31  C   UNL     1       1.999   3.629  21.173  0.00  0.00    +0.000 C 
BRANCH  31  32
ATOM     32  O   UNL     1       0.813   2.856  21.068  0.00  0.00    +0.000 OA
ATOM     33  H   UNL     1       0.099   3.388  21.460  0.00  0.00    +0.000 HD
ENDBRANCH  31  32
ENDBRANCH  28  31
ENDBRANCH  20  21
ENDBRANCH  19  20
ENDBRANCH  18  19
ENDBRANCH   5  18
TORSDOF 7
ENDMDL
MODEL 3
REMARK VINA RESULT:      -8.0      2.595      3.914
REMARK  Name = 
REMARK  9 active torsions:
REMARK  status: ('A' for Active; 'I' for Inactive)
REMARK    1  A    between atoms: C_1  and  C_2
REMARK    2  A    between atoms: C_8  and  N_9
REMARK    3  A    between atoms: C_13  and  C_15
REMARK    4  A    between atoms: C_15  and  C_16
REMARK    5  A    between atoms: C_16  and  C_17
REMARK    6  A    between atoms: C_17  and  C_18
REMARK    7  A    between atoms: C_25  and  C_26
REMARK    8  A    between atoms: C_26  and  O_27
REMARK    9  A    between atoms: C_30  and  C_31
REMARK                            x       y       z     vdW  Elec       q    Type
REMARK                         _______ _______ _______ _____ _____    ______ ____
ROOT
ATOM      1  N   UNL     1       0.885  13.245  19.529  0.00  0.00    +0.000 N 
ATOM      2  C   UNL     1       1.118  13.252  20.987  0.00  0.00    +0.000 C 
ATOM      3  C   UNL     1       0.122  12.278  21.647  0.00  0.00    +0.000 C 
ATOM      4  N   UNL     1       0.138  10.928  21.040  0.00  0.00    +0.000 N 
ATOM      5  C   UNL     1      -0.171   9.847  21.863  0.00  0.00    +0.000 C 
ATOM      6  O   UNL     1      -0.419  10.003  23.060  0.00  0.00    +0.000 OA
ATOM      7  C   UNL     1       0.132  10.899  19.554  0.00  0.00    +0.000 C 
ATOM      8  C   UNL     1      -1.272  11.197  19.005  0.00  0.00    +0.000 C 
ATOM      9  C   UNL     1       1.161  11.910  18.964  0.00  0.00    +0.000 C 
ENDROOT
BRANCH   1  17
ATOM     10  C   UNL     1      -0.528  15.771  19.448  0.00  0.00    +0.000 C 
ATOM     11  C   UNL     1       0.807  15.553  18.793  0.00  0.00    +0.000 A 
ATOM     12  C   UNL     1       1.445  16.640  18.178  0.00  0.00    +0.000 A 
ATOM     13  C   UNL     1       2.706  16.469  17.644  0.00  0.00    +0.000 A 
ATOM     14  F   UNL     1       3.349  17.501  17.082  0.00  0.00    +0.000 F 
ATOM     15  C   UNL     1       3.292  15.223  17.723  0.00  0.00    +0.000 A 
ATOM     16  N   UNL     1       2.703  14.147  18.302  0.00  0.00    +0.000 NA
ATOM     17  C   UNL     1       1.469  14.307  18.835  0.00  0.00    +0.000 A 
ENDBRANCH   1  17
BRANCH   5  18
ATOM     18  C   UNL     1      -0.158   8.449  21.242  0.00  0.00    +0.000 C 
BRANCH  18  19
ATOM     19  C   UNL     1       1.207   7.757  21.417  0.00  0.00    +0.000 C 
BRANCH  19  20
ATOM     20  C   UNL     1       1.923   7.473  20.088  0.00  0.00    +0.000 C 
BRANCH  20  21
ATOM     21  C   UNL     1       2.113   5.980  19.858  0.00  0.00    +0.000 A 
ATOM     22  C   UNL     1       1.418   5.116  20.725  0.00  0.00    +0.000 A 
ATOM     23  C   UNL     1       1.583   3.740  20.641  0.00  0.00    +0.000 A 
ATOM     24  C   UNL     1       2.484   3.212  19.718  0.00  0.00    +0.000 A 
ATOM     25  C   UNL     1       3.203   4.019  18.857  0.00  0.00    +0.000 A 
ATOM     26  N   UNL     1       4.066   3.398  18.045  0.00  0.00    +0.000 NA
ATOM     27  C   UNL     1       4.733   4.145  17.143  0.00  0.00    +0.000 A 
ATOM     28  C   UNL     1       4.548   5.504  16.965  0.00  0.00    +0.000 A 
ATOM     29  C   UNL     1       3.690   6.149  17.871  0.00  0.00    +0.000 A 
ATOM     30  C   UNL     1       2.991   5.422  18.869  0.00  0.00    +0.000 A 
BRANCH  28  31
ATOM     31  C   UNL     1       5.253   6.173  15.827  0.00  0.00    +0.000 C 
BRANCH  31  32
ATOM     32  O   UNL     1       6.337   6.975  16.274  0.00  0.00    +0.000 OA
ATOM     33  H   UNL     1       7.142   6.441  16.162  0.00  0.00    +0.000 HD
ENDBRANCH  31  32
ENDBRANCH  28  31
ENDBRANCH  20  21
ENDBRANCH  19  20
ENDBRANCH  18  19
ENDBRANCH   5  18
TORSDOF 7
ENDMDL
MODEL 4
REMARK VINA RESULT:      -7.9      3.137      5.011
REMARK  Name = 
REMARK  9 active torsions:
REMARK  status: ('A' for Active; 'I' for Inactive)
REMARK    1  A    between atoms: C_1  and  C_2
REMARK    2  A    between atoms: C_8  and  N_9
REMARK    3  A    between atoms: C_13  and  C_15
REMARK    4  A    between atoms: C_15  and  C_16
REMARK    5  A    between atoms: C_16  and  C_17
REMARK    6  A    between atoms: C_17  and  C_18
REMARK    7  A    between atoms: C_25  and  C_26
REMARK    8  A    between atoms: C_26  and  O_27
REMARK    9  A    between atoms: C_30  and  C_31
REMARK                            x       y       z     vdW  Elec       q    Type
REMARK                         _______ _______ _______ _____ _____    ______ ____
ROOT
ATOM      1  N   UNL     1      -1.209  13.011  20.815  0.00  0.00    +0.000 N 
ATOM      2  C   UNL     1      -0.285  13.808  19.985  0.00  0.00    +0.000 C 
ATOM      3  C   UNL     1       0.989  12.975  19.734  0.00  0.00    +0.000 C 
ATOM      4  N   UNL     1       0.707  11.625  19.196  0.00  0.00    +0.000 N 
ATOM      5  C   UNL     1       1.662  11.051  18.361  0.00  0.00    +0.000 C 
ATOM      6  O   UNL     1       2.692  11.655  18.053  0.00  0.00    +0.000 OA
ATOM      7  C   UNL     1      -0.386  10.885  19.880  0.00  0.00    +0.000 C 
ATOM      8  C   UNL     1       0.093  10.317  21.225  0.00  0.00    +0.000 C 
ATOM      9  C   UNL     1      -1.633  11.792  20.099  0.00  0.00    +0.000 C 
ENDROOT
BRANCH   1  17
ATOM     10  C   UNL     1      -2.190  12.157  23.402  0.00  0.00    +0.000 C 
ATOM     11  C   UNL     1      -2.734  13.351  22.668  0.00  0.00    +0.000 A 
ATOM     12  C   UNL     1      -3.708  14.143  23.293  0.00  0.00    +0.000 A 
ATOM     13  C   UNL     1      -4.155  15.286  22.661  0.00  0.00    +0.000 A 
ATOM     14  F   UNL     1      -5.060  16.076  23.253  0.00  0.00    +0.000 F 
ATOM     15  C   UNL     1      -3.634  15.603  21.424  0.00  0.00    +0.000 A 
ATOM     16  N   UNL     1      -2.698  14.857  20.786  0.00  0.00    +0.000 NA
ATOM     17  C   UNL     1      -2.248  13.738  21.401  0.00  0.00    +0.000 A 
ENDBRANCH   1  17
BRANCH   5  18
ATOM     18  C   UNL     1       1.378   9.655  17.802  0.00  0.00    +0.000 C 
BRANCH  18  19
ATOM     19  C   UNL     1       2.628   8.757  17.840  0.00  0.00    +0.000 C 
BRANCH  19  20
ATOM     20  C   UNL     1       2.431   7.467  18.651  0.00  0.00    +0.000 C 
BRANCH  20  21
ATOM     21  C   UNL     1       3.269   6.321  18.101  0.00  0.00    +0.000 A 
ATOM     22  C   UNL     1       4.184   6.644  17.082  0.00  0.00    +0.000 A 
ATOM     23  C   UNL     1       4.941   5.656  16.467  0.00  0.00    +0.000 A 
ATOM     24  C   UNL     1       4.757   4.324  16.831  0.00  0.00    +0.000 A 
ATOM     25  C   UNL     1       3.857   3.954  17.813  0.00  0.00    +0.000 A 
ATOM     26  N   UNL     1       3.740   2.642  18.045  0.00  0.00    +0.000 NA
ATOM     27  C   UNL     1       2.925   2.248  19.044  0.00  0.00    +0.000 A 
ATOM     28  C   UNL     1       2.240   3.111  19.879  0.00  0.00    +0.000 A 
ATOM     29  C   UNL     1       2.323   4.480  19.577  0.00  0.00    +0.000 A 
ATOM     30  C   UNL     1       3.132   4.953  18.512  0.00  0.00    +0.000 A 
BRANCH  28  31
ATOM     31  C   UNL     1       1.488   2.532  21.036  0.00  0.00    +0.000 C 
BRANCH  31  32
ATOM     32  O   UNL     1       1.978   3.011  22.279  0.00  0.00    +0.000 OA
ATOM     33  H   UNL     1       1.200   3.204  22.829  0.00  0.00    +0.000 HD
ENDBRANCH  31  32
ENDBRANCH  28  31
ENDBRANCH  20  21
ENDBRANCH  19  20
ENDBRANCH  18  19
ENDBRANCH   5  18
TORSDOF 7
ENDMDL
MODEL 5
REMARK VINA RESULT:      -7.9      1.457      2.131
REMARK  Name = 
REMARK  9 active torsions:
REMARK  status: ('A' for Active; 'I' for Inactive)
REMARK    1  A    between atoms: C_1  and  C_2
REMARK    2  A    between atoms: C_8  and  N_9
REMARK    3  A    between atoms: C_13  and  C_15
REMARK    4  A    between atoms: C_15  and  C_16
REMARK    5  A    between atoms: C_16  and  C_17
REMARK    6  A    between atoms: C_17  and  C_18
REMARK    7  A    between atoms: C_25  and  C_26
REMARK    8  A    between atoms: C_26  and  O_27
REMARK    9  A    between atoms: C_30  and  C_31
REMARK                            x       y       z     vdW  Elec       q    Type
REMARK                         _______ _______ _______ _____ _____    ______ ____
ROOT
ATOM      1  N   UNL     1       0.370  10.761  19.908  0.00  0.00    +0.000 N 
ATOM      2  C   UNL     1       0.969  10.809  18.560  0.00  0.00    +0.000 C 
ATOM      3  C   UNL     1       2.179   9.853  18.527  0.00  0.00    +0.000 C 
ATOM      4  N   UNL     1       1.856   8.487  18.996  0.00  0.00    +0.000 N 
ATOM      5  C   UNL     1       2.580   7.429  18.450  0.00  0.00    +0.000 C 
ATOM      6  O   UNL     1       3.438   7.618  17.586  0.00  0.00    +0.000 OA
ATOM      7  C   UNL     1       1.051   8.417  20.244  0.00  0.00    +0.000 C 
ATOM      8  C   UNL     1       1.923   8.699  21.477  0.00  0.00    +0.000 C 
ATOM      9  C   UNL     1      -0.149   9.410  20.200  0.00  0.00    +0.000 C 
ENDROOT
BRANCH   1  17
ATOM     10  C   UNL     1       1.445  13.193  21.055  0.00  0.00    +0.000 C 
ATOM     11  C   UNL     1      -0.013  13.004  20.742  0.00  0.00    +0.000 A 
ATOM     12  C   UNL     1      -0.891  14.080  20.936  0.00  0.00    +0.000 A 
ATOM     13  C   UNL     1      -2.217  13.943  20.576  0.00  0.00    +0.000 A 
ATOM     14  F   UNL     1      -3.067  14.967  20.721  0.00  0.00    +0.000 F 
ATOM     15  C   UNL     1      -2.636  12.740  20.047  0.00  0.00    +0.000 A 
ATOM     16  N   UNL     1      -1.818  11.676  19.852  0.00  0.00    +0.000 NA
ATOM     17  C   UNL     1      -0.514  11.804  20.195  0.00  0.00    +0.000 A 
ENDBRANCH   1  17
BRANCH   5  18
ATOM     18  C   UNL     1       2.252   6.014  18.931  0.00  0.00    +0.000 C 
BRANCH  18  19
ATOM     19  C   UNL     1       2.539   4.960  17.846  0.00  0.00    +0.000 C 
BRANCH  19  20
ATOM     20  C   UNL     1       3.616   3.942  18.252  0.00  0.00    +0.000 C 
BRANCH  20  21
ATOM     21  C   UNL     1       5.020   4.489  18.033  0.00  0.00    +0.000 A 
ATOM     22  C   UNL     1       5.683   4.992  19.169  0.00  0.00    +0.000 A 
ATOM     23  C   UNL     1       6.938   5.577  19.059  0.00  0.00    +0.000 A 
ATOM     24  C   UNL     1       7.524   5.711  17.802  0.00  0.00    +0.000 A 
ATOM     25  C   UNL     1       6.905   5.250  16.655  0.00  0.00    +0.000 A 
ATOM     26  N   UNL     1       7.549   5.472  15.505  0.00  0.00    +0.000 NA
ATOM     27  C   UNL     1       7.011   4.975  14.373  0.00  0.00    +0.000 A 
ATOM     28  C   UNL     1       5.863   4.205  14.328  0.00  0.00    +0.000 A 
ATOM     29  C   UNL     1       5.166   4.040  15.536  0.00  0.00    +0.000 A 
ATOM     30  C   UNL     1       5.661   4.575  16.753  0.00  0.00    +0.000 A 
BRANCH  28  31
ATOM     31  C   UNL     1       5.465   3.600  13.018  0.00  0.00    +0.000 C 
BRANCH  31  32
ATOM     32  O   UNL     1       6.517   2.836  12.447  0.00  0.00    +0.000 OA
ATOM     33  H   UNL     1       6.849   3.344  11.688  0.00  0.00    +0.000 HD
ENDBRANCH  31  32
ENDBRANCH  28  31
ENDBRANCH  20  21
ENDBRANCH  19  20
ENDBRANCH  18  19
ENDBRANCH   5  18
TORSDOF 7
ENDMDL
MODEL 6
REMARK VINA RESULT:      -7.7      2.139      2.638
REMARK  Name = 
REMARK  9 active torsions:
REMARK  status: ('A' for Active; 'I' for Inactive)
REMARK    1  A    between atoms: C_1  and  C_2
REMARK    2  A    between atoms: C_8  and  N_9
REMARK    3  A    between atoms: C_13  and  C_15
REMARK    4  A    between atoms: C_15  and  C_16
REMARK    5  A    between atoms: C_16  and  C_17
REMARK    6  A    between atoms: C_17  and  C_18
REMARK    7  A    between atoms: C_25  and  C_26
REMARK    8  A    between atoms: C_26  and  O_27
REMARK    9  A    between atoms: C_30  and  C_31
REMARK                            x       y       z     vdW  Elec       q    Type
REMARK                         _______ _______ _______ _____ _____    ______ ____
ROOT
ATOM      1  N   UNL     1      -0.284  11.147  20.448  0.00  0.00    +0.000 N 
ATOM      2  C   UNL     1       0.338  11.643  19.205  0.00  0.00    +0.000 C 
ATOM      3  C   UNL     1       1.589  10.790  18.909  0.00  0.00    +0.000 C 
ATOM      4  N   UNL     1       1.315   9.335  18.909  0.00  0.00    +0.000 N 
ATOM      5  C   UNL     1       2.094   8.533  18.079  0.00  0.00    +0.000 C 
ATOM      6  O   UNL     1       2.960   9.017  17.347  0.00  0.00    +0.000 OA
ATOM      7  C   UNL     1       0.491   8.843  20.043  0.00  0.00    +0.000 C 
ATOM      8  C   UNL     1       1.326   8.748  21.329  0.00  0.00    +0.000 C 
ATOM      9  C   UNL     1      -0.749   9.757  20.279  0.00  0.00    +0.000 C 
ENDROOT
BRANCH   1  17
ATOM     10  C   UNL     1      -1.006  10.736  23.223  0.00  0.00    +0.000 C 
ATOM     11  C   UNL     1      -1.575  11.842  22.379  0.00  0.00    +0.000 A 
ATOM     12  C   UNL     1      -2.437  12.773  22.976  0.00  0.00    +0.000 A 
ATOM     13  C   UNL     1      -2.901  13.837  22.229  0.00  0.00    +0.000 A 
ATOM     14  F   UNL     1      -3.699  14.758  22.787  0.00  0.00    +0.000 F 
ATOM     15  C   UNL     1      -2.509  13.941  20.911  0.00  0.00    +0.000 A 
ATOM     16  N   UNL     1      -1.684  13.056  20.298  0.00  0.00    +0.000 NA
ATOM     17  C   UNL     1      -1.217  12.012  21.024  0.00  0.00    +0.000 A 
ENDBRANCH   1  17
BRANCH   5  18
ATOM     18  C   UNL     1       1.818   7.028  18.073  0.00  0.00    +0.000 C 
BRANCH  18  19
ATOM     19  C   UNL     1       2.768   6.267  19.017  0.00  0.00    +0.000 C 
BRANCH  19  20
ATOM     20  C   UNL     1       3.320   4.968  18.411  0.00  0.00    +0.000 C 
BRANCH  20  21
ATOM     21  C   UNL     1       4.833   5.021  18.245  0.00  0.00    +0.000 A 
ATOM     22  C   UNL     1       5.581   5.342  19.395  0.00  0.00    +0.000 A 
ATOM     23  C   UNL     1       6.960   5.486  19.328  0.00  0.00    +0.000 A 
ATOM     24  C   UNL     1       7.605   5.359  18.100  0.00  0.00    +0.000 A 
ATOM     25  C   UNL     1       6.914   5.063  16.940  0.00  0.00    +0.000 A 
ATOM     26  N   UNL     1       7.637   5.006  15.817  0.00  0.00    +0.000 NA
ATOM     27  C   UNL     1       7.009   4.650  14.678  0.00  0.00    +0.000 A 
ATOM     28  C   UNL     1       5.676   4.290  14.602  0.00  0.00    +0.000 A 
ATOM     29  C   UNL     1       4.918   4.421  15.777  0.00  0.00    +0.000 A 
ATOM     30  C   UNL     1       5.515   4.830  16.998  0.00  0.00    +0.000 A 
BRANCH  28  31
ATOM     31  C   UNL     1       5.153   3.778  13.296  0.00  0.00    +0.000 C 
BRANCH  31  32
ATOM     32  O   UNL     1       6.116   2.989  12.614  0.00  0.00    +0.000 OA
ATOM     33  H   UNL     1       6.442   2.334  13.254  0.00  0.00    +0.000 HD
ENDBRANCH  31  32
ENDBRANCH  28  31
ENDBRANCH  20  21
ENDBRANCH  19  20
ENDBRANCH  18  19
ENDBRANCH   5  18
TORSDOF 7
ENDMDL
MODEL 7
REMARK VINA RESULT:      -7.7      3.259      4.858
REMARK  Name = 
REMARK  9 active torsions:
REMARK  status: ('A' for Active; 'I' for Inactive)
REMARK    1  A    between atoms: C_1  and  C_2
REMARK    2  A    between atoms: C_8  and  N_9
REMARK    3  A    between atoms: C_13  and  C_15
REMARK    4  A    between atoms: C_15  and  C_16
REMARK    5  A    between atoms: C_16  and  C_17
REMARK    6  A    between atoms: C_17  and  C_18
REMARK    7  A    between atoms: C_25  and  C_26
REMARK    8  A    between atoms: C_26  and  O_27
REMARK    9  A    between atoms: C_30  and  C_31
REMARK                            x       y       z     vdW  Elec       q    Type
REMARK                         _______ _______ _______ _____ _____    ______ ____
ROOT
ATOM      1  N   UNL     1      -1.618  12.395  20.659  0.00  0.00    +0.000 N 
ATOM      2  C   UNL     1      -0.745  13.285  19.869  0.00  0.00    +0.000 C 
ATOM      3  C   UNL     1       0.621  12.594  19.684  0.00  0.00    +0.000 C 
ATOM      4  N   UNL     1       0.511  11.221  19.142  0.00  0.00    +0.000 N 
ATOM      5  C   UNL     1       1.561  10.751  18.357  0.00  0.00    +0.000 C 
ATOM      6  O   UNL     1       2.534  11.461  18.095  0.00  0.00    +0.000 OA
ATOM      7  C   UNL     1      -0.528  10.369  19.778  0.00  0.00    +0.000 C 
ATOM      8  C   UNL     1      -0.056   9.856  21.147  0.00  0.00    +0.000 C 
ATOM      9  C   UNL     1      -1.875  11.137  19.931  0.00  0.00    +0.000 C 
ENDROOT
BRANCH   1  17
ATOM     10  C   UNL     1      -2.357  11.779  23.390  0.00  0.00    +0.000 C 
ATOM     11  C   UNL     1      -3.128  12.734  22.524  0.00  0.00    +0.000 A 
ATOM     12  C   UNL     1      -4.213  13.427  23.081  0.00  0.00    +0.000 A 
ATOM     13  C   UNL     1      -4.877  14.366  22.318  0.00  0.00    +0.000 A 
ATOM     14  F   UNL     1      -5.895  15.065  22.838  0.00  0.00    +0.000 F 
ATOM     15  C   UNL     1      -4.457  14.581  21.022  0.00  0.00    +0.000 A 
ATOM     16  N   UNL     1      -3.418  13.925  20.447  0.00  0.00    +0.000 NA
ATOM     17  C   UNL     1      -2.755  13.007  21.191  0.00  0.00    +0.000 A 
ENDBRANCH   1  17
BRANCH   5  18
ATOM     18  C   UNL     1       1.454   9.332  17.794  0.00  0.00    +0.000 C 
BRANCH  18  19
ATOM     19  C   UNL     1       2.647   8.456  18.219  0.00  0.00    +0.000 C 
BRANCH  19  20
ATOM     20  C   UNL     1       3.028   7.394  17.175  0.00  0.00    +0.000 C 
BRANCH  20  21
ATOM     21  C   UNL     1       4.143   6.485  17.677  0.00  0.00    +0.000 A 
ATOM     22  C   UNL     1       5.437   6.752  17.192  0.00  0.00    +0.000 A 
ATOM     23  C   UNL     1       6.507   5.935  17.534  0.00  0.00    +0.000 A 
ATOM     24  C   UNL     1       6.285   4.811  18.327  0.00  0.00    +0.000 A 
ATOM     25  C   UNL     1       5.030   4.496  18.812  0.00  0.00    +0.000 A 
ATOM     26  N   UNL     1       4.937   3.371  19.528  0.00  0.00    +0.000 NA
ATOM     27  C   UNL     1       3.743   3.068  20.077  0.00  0.00    +0.000 A 
ATOM     28  C   UNL     1       2.620   3.870  19.992  0.00  0.00    +0.000 A 
ATOM     29  C   UNL     1       2.718   5.012  19.181  0.00  0.00    +0.000 A 
ATOM     30  C   UNL     1       3.937   5.361  18.544  0.00  0.00    +0.000 A 
BRANCH  28  31
ATOM     31  C   UNL     1       1.405   3.476  20.774  0.00  0.00    +0.000 C 
BRANCH  31  32
ATOM     32  O   UNL     1       0.379   2.966  19.935  0.00  0.00    +0.000 OA
ATOM     33  H   UNL     1       0.772   2.855  19.053  0.00  0.00    +0.000 HD
ENDBRANCH  31  32
ENDBRANCH  28  31
ENDBRANCH  20  21
ENDBRANCH  19  20
ENDBRANCH  18  19
ENDBRANCH   5  18
TORSDOF 7
ENDMDL
MODEL 8
REMARK VINA RESULT:      -7.7      6.000      9.548
REMARK  Name = 
REMARK  9 active torsions:
REMARK  status: ('A' for Active; 'I' for Inactive)
REMARK    1  A    between atoms: C_1  and  C_2
REMARK    2  A    between atoms: C_8  and  N_9
REMARK    3  A    between atoms: C_13  and  C_15
REMARK    4  A    between atoms: C_15  and  C_16
REMARK    5  A    between atoms: C_16  and  C_17
REMARK    6  A    between atoms: C_17  and  C_18
REMARK    7  A    between atoms: C_25  and  C_26
REMARK    8  A    between atoms: C_26  and  O_27
REMARK    9  A    between atoms: C_30  and  C_31
REMARK                            x       y       z     vdW  Elec       q    Type
REMARK                         _______ _______ _______ _____ _____    ______ ____
ROOT
ATOM      1  N   UNL     1       4.297   4.905  18.428  0.00  0.00    +0.000 N 
ATOM      2  C   UNL     1       5.187   5.003  19.601  0.00  0.00    +0.000 C 
ATOM      3  C   UNL     1       6.611   5.337  19.109  0.00  0.00    +0.000 C 
ATOM      4  N   UNL     1       6.657   6.517  18.216  0.00  0.00    +0.000 N 
ATOM      5  C   UNL     1       7.817   7.287  18.225  0.00  0.00    +0.000 C 
ATOM      6  O   UNL     1       8.761   7.017  18.971  0.00  0.00    +0.000 OA
ATOM      7  C   UNL     1       5.616   6.552  17.155  0.00  0.00    +0.000 C 
ATOM      8  C   UNL     1       5.969   5.593  16.008  0.00  0.00    +0.000 C 
ATOM      9  C   UNL     1       4.211   6.203  17.729  0.00  0.00    +0.000 C 
ENDROOT
BRANCH   1  17
ATOM     10  C   UNL     1       3.806   2.310  17.240  0.00  0.00    +0.000 C 
ATOM     11  C   UNL     1       2.810   3.016  18.116  0.00  0.00    +0.000 A 
ATOM     12  C   UNL     1       1.615   2.361  18.446  0.00  0.00    +0.000 A 
ATOM     13  C   UNL     1       0.730   2.968  19.315  0.00  0.00    +0.000 A 
ATOM     14  F   UNL     1      -0.402   2.347  19.671  0.00  0.00    +0.000 F 
ATOM     15  C   UNL     1       1.049   4.211  19.820  0.00  0.00    +0.000 A 
ATOM     16  N   UNL     1       2.191   4.878  19.518  0.00  0.00    +0.000 NA
ATOM     17  C   UNL     1       3.068   4.288  18.672  0.00  0.00    +0.000 A 
ENDBRANCH   1  17
BRANCH   5  18
ATOM     18  C   UNL     1       7.873   8.508  17.304  0.00  0.00    +0.000 C 
BRANCH  18  19
ATOM     19  C   UNL     1       7.976   9.822  18.100  0.00  0.00    +0.000 C 
BRANCH  19  20
ATOM     20  C   UNL     1       9.340  10.020  18.779  0.00  0.00    +0.000 C 
BRANCH  20  21
ATOM     21  C   UNL     1       9.766  11.483  18.772  0.00  0.00    +0.000 A 
ATOM     22  C   UNL     1      10.313  11.973  17.571  0.00  0.00    +0.000 A 
ATOM     23  C   UNL     1      10.797  13.272  17.488  0.00  0.00    +0.000 A 
ATOM     24  C   UNL     1      10.783  14.083  18.621  0.00  0.00    +0.000 A 
ATOM     25  C   UNL     1      10.274  13.641  19.828  0.00  0.00    +0.000 A 
ATOM     26  N   UNL     1      10.354  14.497  20.853  0.00  0.00    +0.000 NA
ATOM     27  C   UNL     1       9.803  14.128  22.027  0.00  0.00    +0.000 A 
ATOM     28  C   UNL     1       9.116  12.946  22.230  0.00  0.00    +0.000 A 
ATOM     29  C   UNL     1       9.102  12.033  21.163  0.00  0.00    +0.000 A 
ATOM     30  C   UNL     1       9.700  12.346  19.915  0.00  0.00    +0.000 A 
BRANCH  28  31
ATOM     31  C   UNL     1       8.435  12.738  23.547  0.00  0.00    +0.000 C 
BRANCH  31  32
ATOM     32  O   UNL     1       8.504  11.384  23.969  0.00  0.00    +0.000 OA
ATOM     33  H   UNL     1       9.230  11.331  24.612  0.00  0.00    +0.000 HD
ENDBRANCH  31  32
ENDBRANCH  28  31
ENDBRANCH  20  21
ENDBRANCH  19  20
ENDBRANCH  18  19
ENDBRANCH   5  18
TORSDOF 7
ENDMDL
MODEL 9
REMARK VINA RESULT:      -7.7      3.098      4.296
REMARK  Name = 
REMARK  9 active torsions:
REMARK  status: ('A' for Active; 'I' for Inactive)
REMARK    1  A    between atoms: C_1  and  C_2
REMARK    2  A    between atoms: C_8  and  N_9
REMARK    3  A    between atoms: C_13  and  C_15
REMARK    4  A    between atoms: C_15  and  C_16
REMARK    5  A    between atoms: C_16  and  C_17
REMARK    6  A    between atoms: C_17  and  C_18
REMARK    7  A    between atoms: C_25  and  C_26
REMARK    8  A    between atoms: C_26  and  O_27
REMARK    9  A    between atoms: C_30  and  C_31
REMARK                            x       y       z     vdW  Elec       q    Type
REMARK                         _______ _______ _______ _____ _____    ______ ____
ROOT
ATOM      1  N   UNL     1      -1.038  12.303  20.880  0.00  0.00    +0.000 N 
ATOM      2  C   UNL     1      -0.264  13.170  19.971  0.00  0.00    +0.000 C 
ATOM      3  C   UNL     1       1.045  12.444  19.599  0.00  0.00    +0.000 C 
ATOM      4  N   UNL     1       0.825  11.073  19.085  0.00  0.00    +0.000 N 
ATOM      5  C   UNL     1       1.742  10.576  18.162  0.00  0.00    +0.000 C 
ATOM      6  O   UNL     1       2.685  11.261  17.761  0.00  0.00    +0.000 OA
ATOM      7  C   UNL     1      -0.134  10.248  19.865  0.00  0.00    +0.000 C 
ATOM      8  C   UNL     1       0.514   9.726  21.157  0.00  0.00    +0.000 C 
ATOM      9  C   UNL     1      -1.426  11.051  20.202  0.00  0.00    +0.000 C 
ENDROOT
BRANCH   1  17
ATOM     10  C   UNL     1      -1.795  11.291  23.486  0.00  0.00    +0.000 C 
ATOM     11  C   UNL     1      -2.451  12.479  22.842  0.00  0.00    +0.000 A 
ATOM     12  C   UNL     1      -3.424  13.188  23.563  0.00  0.00    +0.000 A 
ATOM     13  C   UNL     1      -3.974  14.328  23.011  0.00  0.00    +0.000 A 
ATOM     14  F   UNL     1      -4.880  15.040  23.694  0.00  0.00    +0.000 F 
ATOM     15  C   UNL     1      -3.556  14.724  21.759  0.00  0.00    +0.000 A 
ATOM     16  N   UNL     1      -2.625  14.060  21.029  0.00  0.00    +0.000 NA
ATOM     17  C   UNL     1      -2.074  12.945  21.564  0.00  0.00    +0.000 A 
ENDBRANCH   1  17
BRANCH   5  18
ATOM     18  C   UNL     1       1.522   9.159  17.627  0.00  0.00    +0.000 C 
BRANCH  18  19
ATOM     19  C   UNL     1       2.713   8.235  17.944  0.00  0.00    +0.000 C 
BRANCH  19  20
ATOM     20  C   UNL     1       2.304   6.931  18.647  0.00  0.00    +0.000 C 
BRANCH  20  21
ATOM     21  C   UNL     1       2.978   5.718  18.021  0.00  0.00    +0.000 A 
ATOM     22  C   UNL     1       2.153   4.608  17.755  0.00  0.00    +0.000 A 
ATOM     23  C   UNL     1       2.688   3.429  17.252  0.00  0.00    +0.000 A 
ATOM     24  C   UNL     1       4.063   3.329  17.053  0.00  0.00    +0.000 A 
ATOM     25  C   UNL     1       4.917   4.384  17.317  0.00  0.00    +0.000 A 
ATOM     26  N   UNL     1       6.220   4.154  17.125  0.00  0.00    +0.000 NA
ATOM     27  C   UNL     1       7.076   5.180  17.304  0.00  0.00    +0.000 A 
ATOM     28  C   UNL     1       6.692   6.470  17.622  0.00  0.00    +0.000 A 
ATOM     29  C   UNL     1       5.328   6.676  17.885  0.00  0.00    +0.000 A 
ATOM     30  C   UNL     1       4.384   5.625  17.754  0.00  0.00    +0.000 A 
BRANCH  28  31
ATOM     31  C   UNL     1       7.742   7.537  17.645  0.00  0.00    +0.000 C 
BRANCH  31  32
ATOM     32  O   UNL     1       8.517   7.489  18.834  0.00  0.00    +0.000 OA
ATOM     33  H   UNL     1       7.930   7.162  19.536  0.00  0.00    +0.000 HD
ENDBRANCH  31  32
ENDBRANCH  28  31
ENDBRANCH  20  21
ENDBRANCH  19  20
ENDBRANCH  18  19
ENDBRANCH   5  18
TORSDOF 7
ENDMDL
