MODEL 1
REMARK VINA RESULT:      -6.8      0.000      0.000
REMARK  Name = 
REMARK  2 active torsions:
REMARK  status: ('A' for Active; 'I' for Inactive)
REMARK    1  A    between atoms: N_9  and  C_10
REMARK    2  A    between atoms: C_11  and  C_12
REMARK                            x       y       z     vdW  Elec       q    Type
REMARK                         _______ _______ _______ _____ _____    ______ ____
ROOT
ATOM      1  O   UNL     1       0.488  10.176  18.182  0.00  0.00    +0.000 OA
ATOM      2  C   UNL     1       0.617   9.737  19.325  0.00  0.00    +0.000 A 
ATOM      3  C   UNL     1      -0.115  10.367  20.465  0.00  0.00    +0.000 A 
ATOM      4 CL   UNL     1      -1.133  11.717  20.094  0.00  0.00    +0.000 Cl
ATOM      5  C   UNL     1       0.027   9.894  21.703  0.00  0.00    +0.000 A 
ATOM      6 CL   UNL     1      -0.737  10.504  23.112  0.00  0.00    +0.000 Cl
ATOM      7  C   UNL     1       0.920   8.748  21.874  0.00  0.00    +0.000 A 
ATOM      8  N   UNL     1       1.578   8.157  20.934  0.00  0.00    +0.000 NA
ATOM      9  N   UNL     1       1.437   8.642  19.653  0.00  0.00    +0.000 N 
ENDROOT
BRANCH   9  10
ATOM     10  C   UNL     1       2.181   7.992  18.676  0.00  0.00    +0.000 C 
ATOM     11  C   UNL     1       2.730   6.774  18.819  0.00  0.00    +0.000 C 
BRANCH  11  12
ATOM     12  C   UNL     1       3.556   6.083  17.818  0.00  0.00    +0.000 A 
ATOM     13  C   UNL     1       4.420   6.857  17.028  0.00  0.00    +0.000 A 
ATOM     14  C   UNL     1       5.243   6.259  16.070  0.00  0.00    +0.000 A 
ATOM     15  C   UNL     1       5.214   4.879  15.902  0.00  0.00    +0.000 A 
ATOM     16 BR   UNL     1       6.317   4.069  14.600  0.00  0.00    +0.000 Br
ATOM     17  C   UNL     1       4.378   4.092  16.691  0.00  0.00    +0.000 A 
ATOM     18  C   UNL     1       3.555   4.693  17.650  0.00  0.00    +0.000 A 
ENDBRANCH  11  12
ENDBRANCH   9  10
TORSDOF 2
ENDMDL
MODEL 2
REMARK VINA RESULT:      -6.8      0.235      1.161
REMARK  Name = 
REMARK  2 active torsions:
REMARK  status: ('A' for Active; 'I' for Inactive)
REMARK    1  A    between atoms: N_9  and  C_10
REMARK    2  A    between atoms: C_11  and  C_12
REMARK                            x       y       z     vdW  Elec       q    Type
REMARK                         _______ _______ _______ _____ _____    ______ ____
ROOT
ATOM      1  O   UNL     1       0.297  10.198  18.295  0.00  0.00    +0.000 OA
ATOM      2  C   UNL     1       0.446   9.785  19.446  0.00  0.00    +0.000 A 
ATOM      3  C   UNL     1      -0.352  10.367  20.567  0.00  0.00    +0.000 A 
ATOM      4 CL   UNL     1      -1.473  11.622  20.165  0.00  0.00    +0.000 Cl
ATOM      5  C   UNL     1      -0.188   9.922  21.813  0.00  0.00    +0.000 A 
ATOM      6 CL   UNL     1      -1.019  10.484  23.204  0.00  0.00    +0.000 Cl
ATOM      7  C   UNL     1       0.795   8.857  22.011  0.00  0.00    +0.000 A 
ATOM      8  N   UNL     1       1.514   8.312  21.089  0.00  0.00    +0.000 NA
ATOM      9  N   UNL     1       1.350   8.767  19.799  0.00  0.00    +0.000 N 
ENDROOT
BRANCH   9  10
ATOM     10  C   UNL     1       2.160   8.170  18.840  0.00  0.00    +0.000 C 
ATOM     11  C   UNL     1       2.574   6.892  18.880  0.00  0.00    +0.000 C 
BRANCH  11  12
ATOM     12  C   UNL     1       3.463   6.248  17.902  0.00  0.00    +0.000 A 
ATOM     13  C   UNL     1       3.385   4.855  17.758  0.00  0.00    +0.000 A 
ATOM     14  C   UNL     1       4.192   4.184  16.834  0.00  0.00    +0.000 A 
ATOM     15  C   UNL     1       5.076   4.906  16.041  0.00  0.00    +0.000 A 
ATOM     16 BR   UNL     1       6.176   4.001  14.799  0.00  0.00    +0.000 Br
ATOM     17  C   UNL     1       5.152   6.293  16.155  0.00  0.00    +0.000 A 
ATOM     18  C   UNL     1       4.343   6.962  17.080  0.00  0.00    +0.000 A 
ENDBRANCH  11  12
ENDBRANCH   9  10
TORSDOF 2
ENDMDL
MODEL 3
REMARK VINA RESULT:      -6.7      7.048      8.686
REMARK  Name = 
REMARK  2 active torsions:
REMARK  status: ('A' for Active; 'I' for Inactive)
REMARK    1  A    between atoms: N_9  and  C_10
REMARK    2  A    between atoms: C_11  and  C_12
REMARK                            x       y       z     vdW  Elec       q    Type
REMARK                         _______ _______ _______ _____ _____    ______ ____
ROOT
ATOM      1  O   UNL     1       6.702   5.834  19.809  0.00  0.00    +0.000 OA
ATOM      2  C   UNL     1       6.766   5.721  18.585  0.00  0.00    +0.000 A 
ATOM      3  C   UNL     1       6.091   4.580  17.895  0.00  0.00    +0.000 A 
ATOM      4 CL   UNL     1       5.234   3.455  18.892  0.00  0.00    +0.000 Cl
ATOM      5  C   UNL     1       6.163   4.454  16.570  0.00  0.00    +0.000 A 
ATOM      6 CL   UNL     1       5.451   3.207  15.633  0.00  0.00    +0.000 Cl
ATOM      7  C   UNL     1       6.922   5.477  15.850  0.00  0.00    +0.000 A 
ATOM      8  N   UNL     1       7.524   6.485  16.383  0.00  0.00    +0.000 NA
ATOM      9  N   UNL     1       7.455   6.620  17.752  0.00  0.00    +0.000 N 
ENDROOT
BRANCH   9  10
ATOM     10  C   UNL     1       8.137   7.706  18.287  0.00  0.00    +0.000 C 
ATOM     11  C   UNL     1       7.957   8.982  17.908  0.00  0.00    +0.000 C 
BRANCH  11  12
ATOM     12  C   UNL     1       8.694  10.143  18.428  0.00  0.00    +0.000 A 
ATOM     13  C   UNL     1       9.282  10.036  19.697  0.00  0.00    +0.000 A 
ATOM     14  C   UNL     1      10.010  11.098  20.242  0.00  0.00    +0.000 A 
ATOM     15  C   UNL     1      10.163  12.272  19.513  0.00  0.00    +0.000 A 
ATOM     16 BR   UNL     1      11.138  13.713  20.250  0.00  0.00    +0.000 Br
ATOM     17  C   UNL     1       9.605  12.389  18.242  0.00  0.00    +0.000 A 
ATOM     18  C   UNL     1       8.876  11.325  17.699  0.00  0.00    +0.000 A 
ENDBRANCH  11  12
ENDBRANCH   9  10
TORSDOF 2
ENDMDL
MODEL 4
REMARK VINA RESULT:      -6.6      5.110      7.701
REMARK  Name = 
REMARK  2 active torsions:
REMARK  status: ('A' for Active; 'I' for Inactive)
REMARK    1  A    between atoms: N_9  and  C_10
REMARK    2  A    between atoms: C_11  and  C_12
REMARK                            x       y       z     vdW  Elec       q    Type
REMARK                         _______ _______ _______ _____ _____    ______ ____
ROOT
ATOM      1  O   UNL     1       3.359   7.220  17.785  0.00  0.00    +0.000 OA
ATOM      2  C   UNL     1       3.104   6.293  18.555  0.00  0.00    +0.000 A 
ATOM      3  C   UNL     1       3.568   4.906  18.248  0.00  0.00    +0.000 A 
ATOM      4 CL   UNL     1       4.464   4.683  16.784  0.00  0.00    +0.000 Cl
ATOM      5  C   UNL     1       3.290   3.902  19.079  0.00  0.00    +0.000 A 
ATOM      6 CL   UNL     1       3.745   2.262  18.871  0.00  0.00    +0.000 Cl
ATOM      7  C   UNL     1       2.524   4.232  20.281  0.00  0.00    +0.000 A 
ATOM      8  N   UNL     1       2.096   5.405  20.606  0.00  0.00    +0.000 NA
ATOM      9  N   UNL     1       2.379   6.447  19.750  0.00  0.00    +0.000 N 
ENDROOT
BRANCH   9  10
ATOM     10  C   UNL     1       1.880   7.689  20.125  0.00  0.00    +0.000 C 
ATOM     11  C   UNL     1       1.049   7.896  21.160  0.00  0.00    +0.000 C 
BRANCH  11  12
ATOM     12  C   UNL     1       0.475   9.192  21.552  0.00  0.00    +0.000 A 
ATOM     13  C   UNL     1      -0.355   9.230  22.683  0.00  0.00    +0.000 A 
ATOM     14  C   UNL     1      -0.919  10.433  23.118  0.00  0.00    +0.000 A 
ATOM     15  C   UNL     1      -0.648  11.609  22.427  0.00  0.00    +0.000 A 
ATOM     16 BR   UNL     1      -1.418  13.235  23.005  0.00  0.00    +0.000 Br
ATOM     17  C   UNL     1       0.190  11.594  21.314  0.00  0.00    +0.000 A 
ATOM     18  C   UNL     1       0.754  10.389  20.881  0.00  0.00    +0.000 A 
ENDBRANCH  11  12
ENDBRANCH   9  10
TORSDOF 2
ENDMDL
MODEL 5
REMARK VINA RESULT:      -6.5      7.085      7.906
REMARK  Name = 
REMARK  2 active torsions:
REMARK  status: ('A' for Active; 'I' for Inactive)
REMARK    1  A    between atoms: N_9  and  C_10
REMARK    2  A    between atoms: C_11  and  C_12
REMARK                            x       y       z     vdW  Elec       q    Type
REMARK                         _______ _______ _______ _____ _____    ______ ____
ROOT
ATOM      1  O   UNL     1       7.963  12.512  17.183  0.00  0.00    +0.000 OA
ATOM      2  C   UNL     1       8.911  12.248  17.923  0.00  0.00    +0.000 A 
ATOM      3  C   UNL     1       9.890  13.311  18.305  0.00  0.00    +0.000 A 
ATOM      4 CL   UNL     1       9.619  14.896  17.665  0.00  0.00    +0.000 Cl
ATOM      5  C   UNL     1      10.918  13.026  19.104  0.00  0.00    +0.000 A 
ATOM      6 CL   UNL     1      12.125  14.125  19.630  0.00  0.00    +0.000 Cl
ATOM      7  C   UNL     1      11.028  11.644  19.573  0.00  0.00    +0.000 A 
ATOM      8  N   UNL     1      10.218  10.682  19.283  0.00  0.00    +0.000 NA
ATOM      9  N   UNL     1       9.154  10.970  18.457  0.00  0.00    +0.000 N 
ENDROOT
BRANCH   9  10
ATOM     10  C   UNL     1       8.320   9.901  18.151  0.00  0.00    +0.000 C 
ATOM     11  C   UNL     1       8.583   8.618  18.453  0.00  0.00    +0.000 C 
BRANCH  11  12
ATOM     12  C   UNL     1       7.739   7.466  18.104  0.00  0.00    +0.000 A 
ATOM     13  C   UNL     1       6.763   7.640  17.112  0.00  0.00    +0.000 A 
ATOM     14  C   UNL     1       5.939   6.580  16.722  0.00  0.00    +0.000 A 
ATOM     15  C   UNL     1       6.095   5.333  17.318  0.00  0.00    +0.000 A 
ATOM     16 BR   UNL     1       4.976   3.901  16.802  0.00  0.00    +0.000 Br
ATOM     17  C   UNL     1       7.073   5.135  18.291  0.00  0.00    +0.000 A 
ATOM     18  C   UNL     1       7.896   6.198  18.678  0.00  0.00    +0.000 A 
ENDBRANCH  11  12
ENDBRANCH   9  10
TORSDOF 2
ENDMDL
MODEL 6
REMARK VINA RESULT:      -6.5      6.784      8.230
REMARK  Name = 
REMARK  2 active torsions:
REMARK  status: ('A' for Active; 'I' for Inactive)
REMARK    1  A    between atoms: N_9  and  C_10
REMARK    2  A    between atoms: C_11  and  C_12
REMARK                            x       y       z     vdW  Elec       q    Type
REMARK                         _______ _______ _______ _____ _____    ______ ____
ROOT
ATOM      1  O   UNL     1       7.718   6.121  15.729  0.00  0.00    +0.000 OA
ATOM      2  C   UNL     1       6.991   5.735  16.644  0.00  0.00    +0.000 A 
ATOM      3  C   UNL     1       6.042   4.601  16.429  0.00  0.00    +0.000 A 
ATOM      4 CL   UNL     1       6.026   3.877  14.857  0.00  0.00    +0.000 Cl
ATOM      5  C   UNL     1       5.252   4.185  17.419  0.00  0.00    +0.000 A 
ATOM      6 CL   UNL     1       4.112   2.906  17.333  0.00  0.00    +0.000 Cl
ATOM      7  C   UNL     1       5.368   4.887  18.697  0.00  0.00    +0.000 A 
ATOM      8  N   UNL     1       6.166   5.869  18.949  0.00  0.00    +0.000 NA
ATOM      9  N   UNL     1       6.984   6.305  17.930  0.00  0.00    +0.000 N 
ENDROOT
BRANCH   9  10
ATOM     10  C   UNL     1       7.810   7.380  18.237  0.00  0.00    +0.000 C 
ATOM     11  C   UNL     1       7.537   8.661  17.941  0.00  0.00    +0.000 C 
BRANCH  11  12
ATOM     12  C   UNL     1       8.412   9.810  18.216  0.00  0.00    +0.000 A 
ATOM     13  C   UNL     1       8.187  10.996  17.501  0.00  0.00    +0.000 A 
ATOM     14  C   UNL     1       8.974  12.129  17.727  0.00  0.00    +0.000 A 
ATOM     15  C   UNL     1       9.986  12.085  18.680  0.00  0.00    +0.000 A 
ATOM     16 BR   UNL     1      11.058  13.612  18.980  0.00  0.00    +0.000 Br
ATOM     17  C   UNL     1      10.210  10.923  19.415  0.00  0.00    +0.000 A 
ATOM     18  C   UNL     1       9.421   9.790  19.187  0.00  0.00    +0.000 A 
ENDBRANCH  11  12
ENDBRANCH   9  10
TORSDOF 2
ENDMDL
MODEL 7
REMARK VINA RESULT:      -6.5      5.099      7.608
REMARK  Name = 
REMARK  2 active torsions:
REMARK  status: ('A' for Active; 'I' for Inactive)
REMARK    1  A    between atoms: N_9  and  C_10
REMARK    2  A    between atoms: C_11  and  C_12
REMARK                            x       y       z     vdW  Elec       q    Type
REMARK                         _______ _______ _______ _____ _____    ______ ____
ROOT
ATOM      1  O   UNL     1       3.267   7.063  17.831  0.00  0.00    +0.000 OA
ATOM      2  C   UNL     1       3.042   6.142  18.617  0.00  0.00    +0.000 A 
ATOM      3  C   UNL     1       3.486   4.751  18.300  0.00  0.00    +0.000 A 
ATOM      4 CL   UNL     1       4.317   4.514  16.800  0.00  0.00    +0.000 Cl
ATOM      5  C   UNL     1       3.239   3.754  19.148  0.00  0.00    +0.000 A 
ATOM      6 CL   UNL     1       3.677   2.110  18.931  0.00  0.00    +0.000 Cl
ATOM      7  C   UNL     1       2.527   4.095  20.380  0.00  0.00    +0.000 A 
ATOM      8  N   UNL     1       2.119   5.272  20.715  0.00  0.00    +0.000 NA
ATOM      9  N   UNL     1       2.369   6.307  19.841  0.00  0.00    +0.000 N 
ENDROOT
BRANCH   9  10
ATOM     10  C   UNL     1       1.893   7.554  20.230  0.00  0.00    +0.000 C 
ATOM     11  C   UNL     1       1.026   7.760  21.235  0.00  0.00    +0.000 C 
BRANCH  11  12
ATOM     12  C   UNL     1       0.475   9.062  21.638  0.00  0.00    +0.000 A 
ATOM     13  C   UNL     1       0.772  10.178  20.842  0.00  0.00    +0.000 A 
ATOM     14  C   UNL     1       0.266  11.442  21.160  0.00  0.00    +0.000 A 
ATOM     15  C   UNL     1      -0.551  11.594  22.276  0.00  0.00    +0.000 A 
ATOM     16 BR   UNL     1      -1.228  13.302  22.716  0.00  0.00    +0.000 Br
ATOM     17  C   UNL     1      -0.875  10.493  23.066  0.00  0.00    +0.000 A 
ATOM     18  C   UNL     1      -0.367   9.229  22.744  0.00  0.00    +0.000 A 
ENDBRANCH  11  12
ENDBRANCH   9  10
TORSDOF 2
ENDMDL
MODEL 8
REMARK VINA RESULT:      -6.4      6.828      8.298
REMARK  Name = 
REMARK  2 active torsions:
REMARK  status: ('A' for Active; 'I' for Inactive)
REMARK    1  A    between atoms: N_9  and  C_10
REMARK    2  A    between atoms: C_11  and  C_12
REMARK                            x       y       z     vdW  Elec       q    Type
REMARK                         _______ _______ _______ _____ _____    ______ ____
ROOT
ATOM      1  O   UNL     1       7.726   6.199  15.758  0.00  0.00    +0.000 OA
ATOM      2  C   UNL     1       7.035   5.791  16.692  0.00  0.00    +0.000 A 
ATOM      3  C   UNL     1       6.104   4.639  16.497  0.00  0.00    +0.000 A 
ATOM      4 CL   UNL     1       6.055   3.926  14.921  0.00  0.00    +0.000 Cl
ATOM      5  C   UNL     1       5.353   4.199  17.507  0.00  0.00    +0.000 A 
ATOM      6 CL   UNL     1       4.239   2.897  17.446  0.00  0.00    +0.000 Cl
ATOM      7  C   UNL     1       5.494   4.894  18.787  0.00  0.00    +0.000 A 
ATOM      8  N   UNL     1       6.278   5.891  19.022  0.00  0.00    +0.000 NA
ATOM      9  N   UNL     1       7.055   6.352  17.982  0.00  0.00    +0.000 N 
ENDROOT
BRANCH   9  10
ATOM     10  C   UNL     1       7.868   7.441  18.272  0.00  0.00    +0.000 C 
ATOM     11  C   UNL     1       7.574   8.716  17.965  0.00  0.00    +0.000 C 
BRANCH  11  12
ATOM     12  C   UNL     1       8.434   9.880  18.222  0.00  0.00    +0.000 A 
ATOM     13  C   UNL     1       9.392   9.779  19.242  0.00  0.00    +0.000 A 
ATOM     14  C   UNL     1      10.253  10.843  19.526  0.00  0.00    +0.000 A 
ATOM     15  C   UNL     1      10.165  12.015  18.782  0.00  0.00    +0.000 A 
ATOM     16 BR   UNL     1      11.318  13.460  19.170  0.00  0.00    +0.000 Br
ATOM     17  C   UNL     1       9.234  12.126  17.751  0.00  0.00    +0.000 A 
ATOM     18  C   UNL     1       8.375  11.059  17.469  0.00  0.00    +0.000 A 
ENDBRANCH  11  12
ENDBRANCH   9  10
TORSDOF 2
ENDMDL
MODEL 9
REMARK VINA RESULT:      -6.3      5.290      7.720
REMARK  Name = 
REMARK  2 active torsions:
REMARK  status: ('A' for Active; 'I' for Inactive)
REMARK    1  A    between atoms: N_9  and  C_10
REMARK    2  A    between atoms: C_11  and  C_12
REMARK                            x       y       z     vdW  Elec       q    Type
REMARK                         _______ _______ _______ _____ _____    ______ ____
ROOT
ATOM      1  O   UNL     1       2.214   4.130  19.456  0.00  0.00    +0.000 OA
ATOM      2  C   UNL     1       2.963   4.735  18.688  0.00  0.00    +0.000 A 
ATOM      3  C   UNL     1       3.806   3.986  17.708  0.00  0.00    +0.000 A 
ATOM      4 CL   UNL     1       3.672   2.260  17.713  0.00  0.00    +0.000 Cl
ATOM      5  C   UNL     1       4.619   4.640  16.879  0.00  0.00    +0.000 A 
ATOM      6 CL   UNL     1       5.649   3.931  15.705  0.00  0.00    +0.000 Cl
ATOM      7  C   UNL     1       4.634   6.099  16.982  0.00  0.00    +0.000 A 
ATOM      8  N   UNL     1       3.932   6.805  17.802  0.00  0.00    +0.000 NA
ATOM      9  N   UNL     1       3.091   6.135  18.663  0.00  0.00    +0.000 N 
ENDROOT
BRANCH   9  10
ATOM     10  C   UNL     1       2.370   6.931  19.545  0.00  0.00    +0.000 C 
ATOM     11  C   UNL     1       1.821   8.116  19.228  0.00  0.00    +0.000 C 
BRANCH  11  12
ATOM     12  C   UNL     1       1.091   8.997  20.152  0.00  0.00    +0.000 A 
ATOM     13  C   UNL     1       0.550  10.186  19.640  0.00  0.00    +0.000 A 
ATOM     14  C   UNL     1      -0.169  11.059  20.462  0.00  0.00    +0.000 A 
ATOM     15  C   UNL     1      -0.360  10.740  21.802  0.00  0.00    +0.000 A 
ATOM     16 BR   UNL     1      -1.322  11.923  22.919  0.00  0.00    +0.000 Br
ATOM     17  C   UNL     1       0.150   9.553  22.324  0.00  0.00    +0.000 A 
ATOM     18  C   UNL     1       0.870   8.682  21.498  0.00  0.00    +0.000 A 
ENDBRANCH  11  12
ENDBRANCH   9  10
TORSDOF 2
ENDMDL
