MODEL 1
REMARK VINA RESULT:      -6.3      0.000      0.000
REMARK  Name = 
REMARK  12 active torsions:
REMARK  status: ('A' for Active; 'I' for Inactive)
REMARK    1  A    between atoms: C_1  and  C_2
REMARK    2  A    between atoms: C_2  and  O_3
REMARK    3  A    between atoms: O_3  and  C_4
REMARK    4  A    between atoms: C_7  and  C_8
REMARK    5  A    between atoms: C_10  and  C_11
REMARK    6  A    between atoms: C_11  and  N_12
REMARK    7  A    between atoms: N_12  and  C_13
REMARK    8  A    between atoms: C_13  and  C_14
REMARK    9  A    between atoms: C_13  and  C_16
REMARK   10  A    between atoms: C_14  and  C_15
REMARK   11  A    between atoms: C_16  and  O_17
REMARK   12  A    between atoms: O_17  and  C_18
REMARK                            x       y       z     vdW  Elec       q    Type
REMARK                         _______ _______ _______ _____ _____    ______ ____
ROOT
ATOM      1  C   UNL     1       2.671   6.479  19.382  0.00  0.00    +0.000 A 
ATOM      2  N   UNL     1       3.541   5.964  18.531  0.00  0.00    +0.000 NA
ATOM      3  C   UNL     1       3.739   4.677  18.992  0.00  0.00    +0.000 A 
ATOM      4  C   UNL     1       2.978   4.478  20.121  0.00  0.00    +0.000 A 
ATOM      5  O   UNL     1       2.298   5.620  20.384  0.00  0.00    +0.000 OA
ENDROOT
BRANCH   1   9
ATOM      6  C   UNL     1       0.872  10.355  19.439  0.00  0.00    +0.000 A 
ATOM      7  C   UNL     1       0.814   9.534  20.568  0.00  0.00    +0.000 A 
ATOM      8  C   UNL     1       1.390   8.259  20.543  0.00  0.00    +0.000 A 
ATOM      9  C   UNL     1       2.017   7.783  19.386  0.00  0.00    +0.000 A 
ATOM     10  C   UNL     1       2.024   8.601  18.245  0.00  0.00    +0.000 A 
ATOM     11  C   UNL     1       1.450   9.876  18.264  0.00  0.00    +0.000 A 
BRANCH   6  12
ATOM     12  O   UNL     1       0.325  11.599  19.587  0.00  0.00    +0.000 OA
BRANCH  12  14
ATOM     13  C   UNL     1      -1.968  11.384  19.003  0.00  0.00    +0.000 C 
ATOM     14  C   UNL     1      -0.631  11.973  18.596  0.00  0.00    +0.000 C 
ENDBRANCH  12  14
ENDBRANCH   6  12
ENDBRANCH   1   9
BRANCH   3  15
ATOM     15  C   UNL     1       4.621   3.698  18.300  0.00  0.00    +0.000 C 
BRANCH  15  16
ATOM     16  N   UNL     1       6.044   3.935  18.541  0.00  0.00    +0.000 NA
ATOM     17  H   UNL     1       6.559   3.094  18.257  0.00  0.00    +0.000 HD
BRANCH  16  18
ATOM     18  C   UNL     1       6.649   5.067  17.809  0.00  0.00    +0.000 C 
BRANCH  18  19
ATOM     19  C   UNL     1       7.671   5.878  18.631  0.00  0.00    +0.000 C 
ATOM     20  C   UNL     1       7.886   7.312  18.164  0.00  0.00    +0.000 C 
ENDBRANCH  18  19
BRANCH  18  21
ATOM     21  C   UNL     1       7.293   4.528  16.508  0.00  0.00    +0.000 C 
BRANCH  21  22
ATOM     22  O   UNL     1       6.948   5.378  15.405  0.00  0.00    +0.000 OA
ATOM     23  C   UNL     1       5.540   5.555  15.312  0.00  0.00    +0.000 C 
ENDBRANCH  21  22
ENDBRANCH  18  21
ENDBRANCH  16  18
ENDBRANCH  15  16
ENDBRANCH   3  15
TORSDOF 9
ENDMDL
MODEL 2
REMARK VINA RESULT:      -6.3      0.932      2.086
REMARK  Name = 
REMARK  12 active torsions:
REMARK  status: ('A' for Active; 'I' for Inactive)
REMARK    1  A    between atoms: C_1  and  C_2
REMARK    2  A    between atoms: C_2  and  O_3
REMARK    3  A    between atoms: O_3  and  C_4
REMARK    4  A    between atoms: C_7  and  C_8
REMARK    5  A    between atoms: C_10  and  C_11
REMARK    6  A    between atoms: C_11  and  N_12
REMARK    7  A    between atoms: N_12  and  C_13
REMARK    8  A    between atoms: C_13  and  C_14
REMARK    9  A    between atoms: C_13  and  C_16
REMARK   10  A    between atoms: C_14  and  C_15
REMARK   11  A    between atoms: C_16  and  O_17
REMARK   12  A    between atoms: O_17  and  C_18
REMARK                            x       y       z     vdW  Elec       q    Type
REMARK                         _______ _______ _______ _____ _____    ______ ____
ROOT
ATOM      1  C   UNL     1       2.893   6.427  19.320  0.00  0.00    +0.000 A 
ATOM      2  N   UNL     1       4.030   6.090  18.737  0.00  0.00    +0.000 NA
ATOM      3  C   UNL     1       4.198   4.761  19.073  0.00  0.00    +0.000 A 
ATOM      4  C   UNL     1       3.147   4.357  19.863  0.00  0.00    +0.000 A 
ATOM      5  O   UNL     1       2.311   5.410  20.033  0.00  0.00    +0.000 OA
ENDROOT
BRANCH   1   9
ATOM      6  C   UNL     1       0.593  10.025  19.159  0.00  0.00    +0.000 A 
ATOM      7  C   UNL     1       1.220   9.537  18.009  0.00  0.00    +0.000 A 
ATOM      8  C   UNL     1       1.985   8.367  18.066  0.00  0.00    +0.000 A 
ATOM      9  C   UNL     1       2.147   7.680  19.275  0.00  0.00    +0.000 A 
ATOM     10  C   UNL     1       1.550   8.210  20.430  0.00  0.00    +0.000 A 
ATOM     11  C   UNL     1       0.785   9.379  20.379  0.00  0.00    +0.000 A 
BRANCH   6  12
ATOM     12  O   UNL     1      -0.173  11.144  18.981  0.00  0.00    +0.000 OA
BRANCH  12  14
ATOM     13  C   UNL     1      -2.094  12.442  19.499  0.00  0.00    +0.000 C 
ATOM     14  C   UNL     1      -1.100  11.427  20.029  0.00  0.00    +0.000 C 
ENDBRANCH  12  14
ENDBRANCH   6  12
ENDBRANCH   1   9
BRANCH   3  15
ATOM     15  C   UNL     1       5.342   3.943  18.584  0.00  0.00    +0.000 C 
BRANCH  15  16
ATOM     16  N   UNL     1       5.503   3.992  17.130  0.00  0.00    +0.000 NA
ATOM     17  H   UNL     1       4.866   4.708  16.764  0.00  0.00    +0.000 HD
BRANCH  16  18
ATOM     18  C   UNL     1       6.853   4.336  16.636  0.00  0.00    +0.000 C 
BRANCH  18  19
ATOM     19  C   UNL     1       6.901   4.716  15.143  0.00  0.00    +0.000 C 
ATOM     20  C   UNL     1       5.659   4.350  14.341  0.00  0.00    +0.000 C 
ENDBRANCH  18  19
BRANCH  18  21
ATOM     21  C   UNL     1       7.427   5.475  17.514  0.00  0.00    +0.000 C 
BRANCH  21  22
ATOM     22  O   UNL     1       7.617   6.654  16.719  0.00  0.00    +0.000 OA
ATOM     23  C   UNL     1       7.361   7.831  17.473  0.00  0.00    +0.000 C 
ENDBRANCH  21  22
ENDBRANCH  18  21
ENDBRANCH  16  18
ENDBRANCH  15  16
ENDBRANCH   3  15
TORSDOF 9
ENDMDL
MODEL 3
REMARK VINA RESULT:      -6.3      1.014      1.539
REMARK  Name = 
REMARK  12 active torsions:
REMARK  status: ('A' for Active; 'I' for Inactive)
REMARK    1  A    between atoms: C_1  and  C_2
REMARK    2  A    between atoms: C_2  and  O_3
REMARK    3  A    between atoms: O_3  and  C_4
REMARK    4  A    between atoms: C_7  and  C_8
REMARK    5  A    between atoms: C_10  and  C_11
REMARK    6  A    between atoms: C_11  and  N_12
REMARK    7  A    between atoms: N_12  and  C_13
REMARK    8  A    between atoms: C_13  and  C_14
REMARK    9  A    between atoms: C_13  and  C_16
REMARK   10  A    between atoms: C_14  and  C_15
REMARK   11  A    between atoms: C_16  and  O_17
REMARK   12  A    between atoms: O_17  and  C_18
REMARK                            x       y       z     vdW  Elec       q    Type
REMARK                         _______ _______ _______ _____ _____    ______ ____
ROOT
ATOM      1  C   UNL     1       2.713   6.373  18.858  0.00  0.00    +0.000 A 
ATOM      2  N   UNL     1       3.641   5.696  19.512  0.00  0.00    +0.000 NA
ATOM      3  C   UNL     1       3.835   4.565  18.743  0.00  0.00    +0.000 A 
ATOM      4  C   UNL     1       2.996   4.609  17.654  0.00  0.00    +0.000 A 
ATOM      5  O   UNL     1       2.271   5.752  17.719  0.00  0.00    +0.000 OA
ENDROOT
BRANCH   1   9
ATOM      6  C   UNL     1       0.902  10.169  19.616  0.00  0.00    +0.000 A 
ATOM      7  C   UNL     1       1.461   9.891  18.365  0.00  0.00    +0.000 A 
ATOM      8  C   UNL     1       2.067   8.654  18.123  0.00  0.00    +0.000 A 
ATOM      9  C   UNL     1       2.137   7.685  19.132  0.00  0.00    +0.000 A 
ATOM     10  C   UNL     1       1.614   7.998  20.396  0.00  0.00    +0.000 A 
ATOM     11  C   UNL     1       1.007   9.233  20.644  0.00  0.00    +0.000 A 
BRANCH   6  12
ATOM     12  O   UNL     1       0.288  11.385  19.729  0.00  0.00    +0.000 OA
BRANCH  12  14
ATOM     13  C   UNL     1      -0.787  12.865  18.213  0.00  0.00    +0.000 C 
ATOM     14  C   UNL     1      -0.901  11.548  18.956  0.00  0.00    +0.000 C 
ENDBRANCH  12  14
ENDBRANCH   6  12
ENDBRANCH   1   9
BRANCH   3  15
ATOM     15  C   UNL     1       4.845   3.524  19.079  0.00  0.00    +0.000 C 
BRANCH  15  16
ATOM     16  N   UNL     1       6.219   3.946  18.805  0.00  0.00    +0.000 NA
ATOM     17  H   UNL     1       6.719   3.150  18.392  0.00  0.00    +0.000 HD
BRANCH  16  18
ATOM     18  C   UNL     1       6.378   5.076  17.866  0.00  0.00    +0.000 C 
BRANCH  18  19
ATOM     19  C   UNL     1       7.209   6.249  18.424  0.00  0.00    +0.000 C 
ATOM     20  C   UNL     1       7.525   7.353  17.423  0.00  0.00    +0.000 C 
ENDBRANCH  18  19
BRANCH  18  21
ATOM     21  C   UNL     1       6.993   4.544  16.548  0.00  0.00    +0.000 C 
BRANCH  21  22
ATOM     22  O   UNL     1       6.003   3.817  15.808  0.00  0.00    +0.000 OA
ATOM     23  C   UNL     1       6.207   3.949  14.407  0.00  0.00    +0.000 C 
ENDBRANCH  21  22
ENDBRANCH  18  21
ENDBRANCH  16  18
ENDBRANCH  15  16
ENDBRANCH   3  15
TORSDOF 9
ENDMDL
MODEL 4
REMARK VINA RESULT:      -6.2      1.105      1.946
REMARK  Name = 
REMARK  12 active torsions:
REMARK  status: ('A' for Active; 'I' for Inactive)
REMARK    1  A    between atoms: C_1  and  C_2
REMARK    2  A    between atoms: C_2  and  O_3
REMARK    3  A    between atoms: O_3  and  C_4
REMARK    4  A    between atoms: C_7  and  C_8
REMARK    5  A    between atoms: C_10  and  C_11
REMARK    6  A    between atoms: C_11  and  N_12
REMARK    7  A    between atoms: N_12  and  C_13
REMARK    8  A    between atoms: C_13  and  C_14
REMARK    9  A    between atoms: C_13  and  C_16
REMARK   10  A    between atoms: C_14  and  C_15
REMARK   11  A    between atoms: C_16  and  O_17
REMARK   12  A    between atoms: O_17  and  C_18
REMARK                            x       y       z     vdW  Elec       q    Type
REMARK                         _______ _______ _______ _____ _____    ______ ____
ROOT
ATOM      1  C   UNL     1       2.828   6.496  18.710  0.00  0.00    +0.000 A 
ATOM      2  N   UNL     1       4.060   6.145  19.034  0.00  0.00    +0.000 NA
ATOM      3  C   UNL     1       4.221   4.906  18.445  0.00  0.00    +0.000 A 
ATOM      4  C   UNL     1       3.059   4.559  17.796  0.00  0.00    +0.000 A 
ATOM      5  O   UNL     1       2.161   5.560  17.962  0.00  0.00    +0.000 OA
ENDROOT
BRANCH   1   9
ATOM      6  C   UNL     1       0.816  10.177  19.529  0.00  0.00    +0.000 A 
ATOM      7  C   UNL     1       0.974   9.220  20.536  0.00  0.00    +0.000 A 
ATOM      8  C   UNL     1       1.618   8.009  20.263  0.00  0.00    +0.000 A 
ATOM      9  C   UNL     1       2.101   7.732  18.977  0.00  0.00    +0.000 A 
ATOM     10  C   UNL     1       1.892   8.684  17.967  0.00  0.00    +0.000 A 
ATOM     11  C   UNL     1       1.248   9.896  18.234  0.00  0.00    +0.000 A 
BRANCH   6  12
ATOM     12  O   UNL     1       0.220  11.345  19.916  0.00  0.00    +0.000 OA
BRANCH  12  14
ATOM     13  C   UNL     1      -1.757  11.984  18.764  0.00  0.00    +0.000 C 
ATOM     14  C   UNL     1      -1.204  11.309  20.004  0.00  0.00    +0.000 C 
ENDBRANCH  12  14
ENDBRANCH   6  12
ENDBRANCH   1   9
BRANCH   3  15
ATOM     15  C   UNL     1       5.496   4.141  18.509  0.00  0.00    +0.000 C 
BRANCH  15  16
ATOM     16  N   UNL     1       5.993   3.740  17.193  0.00  0.00    +0.000 NA
ATOM     17  H   UNL     1       5.227   3.849  16.518  0.00  0.00    +0.000 HD
BRANCH  16  18
ATOM     18  C   UNL     1       7.134   4.515  16.663  0.00  0.00    +0.000 C 
BRANCH  18  19
ATOM     19  C   UNL     1       6.959   4.983  15.205  0.00  0.00    +0.000 C 
ATOM     20  C   UNL     1       5.616   4.642  14.572  0.00  0.00    +0.000 C 
ENDBRANCH  18  19
BRANCH  18  21
ATOM     21  C   UNL     1       7.393   5.720  17.601  0.00  0.00    +0.000 C 
BRANCH  21  22
ATOM     22  O   UNL     1       7.097   6.944  16.916  0.00  0.00    +0.000 OA
ATOM     23  C   UNL     1       7.718   8.054  17.551  0.00  0.00    +0.000 C 
ENDBRANCH  21  22
ENDBRANCH  18  21
ENDBRANCH  16  18
ENDBRANCH  15  16
ENDBRANCH   3  15
TORSDOF 9
ENDMDL
MODEL 5
REMARK VINA RESULT:      -6.2      2.214      8.236
REMARK  Name = 
REMARK  12 active torsions:
REMARK  status: ('A' for Active; 'I' for Inactive)
REMARK    1  A    between atoms: C_1  and  C_2
REMARK    2  A    between atoms: C_2  and  O_3
REMARK    3  A    between atoms: O_3  and  C_4
REMARK    4  A    between atoms: C_7  and  C_8
REMARK    5  A    between atoms: C_10  and  C_11
REMARK    6  A    between atoms: C_11  and  N_12
REMARK    7  A    between atoms: N_12  and  C_13
REMARK    8  A    between atoms: C_13  and  C_14
REMARK    9  A    between atoms: C_13  and  C_16
REMARK   10  A    between atoms: C_14  and  C_15
REMARK   11  A    between atoms: C_16  and  O_17
REMARK   12  A    between atoms: O_17  and  C_18
REMARK                            x       y       z     vdW  Elec       q    Type
REMARK                         _______ _______ _______ _____ _____    ______ ____
ROOT
ATOM      1  C   UNL     1       2.602   7.212  18.588  0.00  0.00    +0.000 A 
ATOM      2  N   UNL     1       2.070   8.377  18.263  0.00  0.00    +0.000 NA
ATOM      3  C   UNL     1       1.496   8.822  19.438  0.00  0.00    +0.000 A 
ATOM      4  C   UNL     1       1.702   7.887  20.425  0.00  0.00    +0.000 A 
ATOM      5  O   UNL     1       2.400   6.853  19.895  0.00  0.00    +0.000 OA
ENDROOT
BRANCH   1   9
ATOM      6  C   UNL     1       5.042   4.495  16.367  0.00  0.00    +0.000 A 
ATOM      7  C   UNL     1       5.314   5.866  16.346  0.00  0.00    +0.000 A 
ATOM      8  C   UNL     1       4.505   6.756  17.060  0.00  0.00    +0.000 A 
ATOM      9  C   UNL     1       3.406   6.290  17.793  0.00  0.00    +0.000 A 
ATOM     10  C   UNL     1       3.120   4.916  17.765  0.00  0.00    +0.000 A 
ATOM     11  C   UNL     1       3.924   4.022  17.052  0.00  0.00    +0.000 A 
BRANCH   6  12
ATOM     12  O   UNL     1       5.925   3.710  15.679  0.00  0.00    +0.000 OA
BRANCH  12  14
ATOM     13  C   UNL     1       6.137   3.743  13.313  0.00  0.00    +0.000 C 
ATOM     14  C   UNL     1       6.620   4.356  14.613  0.00  0.00    +0.000 C 
ENDBRANCH  12  14
ENDBRANCH   6  12
ENDBRANCH   1   9
BRANCH   3  15
ATOM     15  C   UNL     1       0.814  10.140  19.554  0.00  0.00    +0.000 C 
BRANCH  15  16
ATOM     16  N   UNL     1      -0.643  10.043  19.460  0.00  0.00    +0.000 NA
ATOM     17  H   UNL     1      -1.045  10.486  20.293  0.00  0.00    +0.000 HD
BRANCH  16  18
ATOM     18  C   UNL     1      -1.265  10.701  18.291  0.00  0.00    +0.000 C 
BRANCH  18  19
ATOM     19  C   UNL     1      -2.515   9.978  17.750  0.00  0.00    +0.000 C 
ATOM     20  C   UNL     1      -2.623   9.919  16.232  0.00  0.00    +0.000 C 
ENDBRANCH  18  19
BRANCH  18  21
ATOM     21  C   UNL     1      -1.594  12.167  18.664  0.00  0.00    +0.000 C 
BRANCH  21  22
ATOM     22  O   UNL     1      -0.769  13.061  17.904  0.00  0.00    +0.000 OA
ATOM     23  C   UNL     1       0.107  13.797  18.748  0.00  0.00    +0.000 C 
ENDBRANCH  21  22
ENDBRANCH  18  21
ENDBRANCH  16  18
ENDBRANCH  15  16
ENDBRANCH   3  15
TORSDOF 9
ENDMDL
MODEL 6
REMARK VINA RESULT:      -6.2      1.509      2.495
REMARK  Name = 
REMARK  12 active torsions:
REMARK  status: ('A' for Active; 'I' for Inactive)
REMARK    1  A    between atoms: C_1  and  C_2
REMARK    2  A    between atoms: C_2  and  O_3
REMARK    3  A    between atoms: O_3  and  C_4
REMARK    4  A    between atoms: C_7  and  C_8
REMARK    5  A    between atoms: C_10  and  C_11
REMARK    6  A    between atoms: C_11  and  N_12
REMARK    7  A    between atoms: N_12  and  C_13
REMARK    8  A    between atoms: C_13  and  C_14
REMARK    9  A    between atoms: C_13  and  C_16
REMARK   10  A    between atoms: C_14  and  C_15
REMARK   11  A    between atoms: C_16  and  O_17
REMARK   12  A    between atoms: O_17  and  C_18
REMARK                            x       y       z     vdW  Elec       q    Type
REMARK                         _______ _______ _______ _____ _____    ______ ____
ROOT
ATOM      1  C   UNL     1       2.666   6.637  19.104  0.00  0.00    +0.000 A 
ATOM      2  N   UNL     1       3.802   6.126  19.546  0.00  0.00    +0.000 NA
ATOM      3  C   UNL     1       4.094   5.125  18.641  0.00  0.00    +0.000 A 
ATOM      4  C   UNL     1       3.102   5.070  17.690  0.00  0.00    +0.000 A 
ATOM      5  O   UNL     1       2.182   6.024  17.977  0.00  0.00    +0.000 OA
ENDROOT
BRANCH   1   9
ATOM      6  C   UNL     1       0.276   9.896  20.492  0.00  0.00    +0.000 A 
ATOM      7  C   UNL     1       0.808   9.912  19.200  0.00  0.00    +0.000 A 
ATOM      8  C   UNL     1       1.603   8.852  18.752  0.00  0.00    +0.000 A 
ATOM      9  C   UNL     1       1.889   7.770  19.594  0.00  0.00    +0.000 A 
ATOM     10  C   UNL     1       1.387   7.793  20.904  0.00  0.00    +0.000 A 
ATOM     11  C   UNL     1       0.592   8.851  21.358  0.00  0.00    +0.000 A 
BRANCH   6  12
ATOM     12  O   UNL     1      -0.529  10.955  20.809  0.00  0.00    +0.000 OA
BRANCH  12  14
ATOM     13  C   UNL     1      -1.603  11.483  22.862  0.00  0.00    +0.000 C 
ATOM     14  C   UNL     1      -0.299  11.540  22.091  0.00  0.00    +0.000 C 
ENDBRANCH  12  14
ENDBRANCH   6  12
ENDBRANCH   1   9
BRANCH   3  15
ATOM     15  C   UNL     1       5.331   4.301  18.720  0.00  0.00    +0.000 C 
BRANCH  15  16
ATOM     16  N   UNL     1       5.669   3.648  17.455  0.00  0.00    +0.000 NA
ATOM     17  H   UNL     1       4.806   3.546  16.910  0.00  0.00    +0.000 HD
BRANCH  16  18
ATOM     18  C   UNL     1       6.632   4.362  16.591  0.00  0.00    +0.000 C 
BRANCH  18  19
ATOM     19  C   UNL     1       6.002   5.005  15.339  0.00  0.00    +0.000 C 
ATOM     20  C   UNL     1       6.370   4.343  14.017  0.00  0.00    +0.000 C 
ENDBRANCH  18  19
BRANCH  18  21
ATOM     21  C   UNL     1       7.370   5.424  17.443  0.00  0.00    +0.000 C 
BRANCH  21  22
ATOM     22  O   UNL     1       7.611   6.599  16.656  0.00  0.00    +0.000 OA
ATOM     23  C   UNL     1       7.578   7.772  17.459  0.00  0.00    +0.000 C 
ENDBRANCH  21  22
ENDBRANCH  18  21
ENDBRANCH  16  18
ENDBRANCH  15  16
ENDBRANCH   3  15
TORSDOF 9
ENDMDL
MODEL 7
REMARK VINA RESULT:      -6.1      1.145      1.677
REMARK  Name = 
REMARK  12 active torsions:
REMARK  status: ('A' for Active; 'I' for Inactive)
REMARK    1  A    between atoms: C_1  and  C_2
REMARK    2  A    between atoms: C_2  and  O_3
REMARK    3  A    between atoms: O_3  and  C_4
REMARK    4  A    between atoms: C_7  and  C_8
REMARK    5  A    between atoms: C_10  and  C_11
REMARK    6  A    between atoms: C_11  and  N_12
REMARK    7  A    between atoms: N_12  and  C_13
REMARK    8  A    between atoms: C_13  and  C_14
REMARK    9  A    between atoms: C_13  and  C_16
REMARK   10  A    between atoms: C_14  and  C_15
REMARK   11  A    between atoms: C_16  and  O_17
REMARK   12  A    between atoms: O_17  and  C_18
REMARK                            x       y       z     vdW  Elec       q    Type
REMARK                         _______ _______ _______ _____ _____    ______ ____
ROOT
ATOM      1  C   UNL     1       2.732   6.170  19.225  0.00  0.00    +0.000 A 
ATOM      2  N   UNL     1       3.974   5.760  19.413  0.00  0.00    +0.000 NA
ATOM      3  C   UNL     1       3.938   4.419  19.082  0.00  0.00    +0.000 A 
ATOM      4  C   UNL     1       2.656   4.077  18.718  0.00  0.00    +0.000 A 
ATOM      5  O   UNL     1       1.876   5.182  18.810  0.00  0.00    +0.000 OA
ENDROOT
BRANCH   1   9
ATOM      6  C   UNL     1       0.919  10.029  19.511  0.00  0.00    +0.000 A 
ATOM      7  C   UNL     1       1.540   9.628  18.325  0.00  0.00    +0.000 A 
ATOM      8  C   UNL     1       2.147   8.370  18.237  0.00  0.00    +0.000 A 
ATOM      9  C   UNL     1       2.154   7.505  19.338  0.00  0.00    +0.000 A 
ATOM     10  C   UNL     1       1.568   7.942  20.536  0.00  0.00    +0.000 A 
ATOM     11  C   UNL     1       0.960   9.198  20.629  0.00  0.00    +0.000 A 
BRANCH   6  12
ATOM     12  O   UNL     1       0.311  11.253  19.471  0.00  0.00    +0.000 OA
BRANCH  12  14
ATOM     13  C   UNL     1       1.831  12.919  20.220  0.00  0.00    +0.000 C 
ATOM     14  C   UNL     1       1.128  12.330  19.012  0.00  0.00    +0.000 C 
ENDBRANCH  12  14
ENDBRANCH   6  12
ENDBRANCH   1   9
BRANCH   3  15
ATOM     15  C   UNL     1       5.146   3.550  19.100  0.00  0.00    +0.000 C 
BRANCH  15  16
ATOM     16  N   UNL     1       6.360   4.245  18.669  0.00  0.00    +0.000 NA
ATOM     17  H   UNL     1       7.089   3.541  18.510  0.00  0.00    +0.000 HD
BRANCH  16  18
ATOM     18  C   UNL     1       6.253   5.031  17.422  0.00  0.00    +0.000 C 
BRANCH  18  19
ATOM     19  C   UNL     1       7.083   6.331  17.421  0.00  0.00    +0.000 C 
ATOM     20  C   UNL     1       7.923   6.564  18.670  0.00  0.00    +0.000 C 
ENDBRANCH  18  19
BRANCH  18  21
ATOM     21  C   UNL     1       6.646   4.125  16.230  0.00  0.00    +0.000 C 
BRANCH  21  22
ATOM     22  O   UNL     1       7.493   4.848  15.326  0.00  0.00    +0.000 OA
ATOM     23  C   UNL     1       6.985   4.806  13.999  0.00  0.00    +0.000 C 
ENDBRANCH  21  22
ENDBRANCH  18  21
ENDBRANCH  16  18
ENDBRANCH  15  16
ENDBRANCH   3  15
TORSDOF 9
ENDMDL
MODEL 8
REMARK VINA RESULT:      -6.1      2.311      8.504
REMARK  Name = 
REMARK  12 active torsions:
REMARK  status: ('A' for Active; 'I' for Inactive)
REMARK    1  A    between atoms: C_1  and  C_2
REMARK    2  A    between atoms: C_2  and  O_3
REMARK    3  A    between atoms: O_3  and  C_4
REMARK    4  A    between atoms: C_7  and  C_8
REMARK    5  A    between atoms: C_10  and  C_11
REMARK    6  A    between atoms: C_11  and  N_12
REMARK    7  A    between atoms: N_12  and  C_13
REMARK    8  A    between atoms: C_13  and  C_14
REMARK    9  A    between atoms: C_13  and  C_16
REMARK   10  A    between atoms: C_14  and  C_15
REMARK   11  A    between atoms: C_16  and  O_17
REMARK   12  A    between atoms: O_17  and  C_18
REMARK                            x       y       z     vdW  Elec       q    Type
REMARK                         _______ _______ _______ _____ _____    ______ ____
ROOT
ATOM      1  C   UNL     1       2.757   7.263  18.350  0.00  0.00    +0.000 A 
ATOM      2  N   UNL     1       2.211   8.409  17.983  0.00  0.00    +0.000 NA
ATOM      3  C   UNL     1       1.573   8.856  19.124  0.00  0.00    +0.000 A 
ATOM      4  C   UNL     1       1.757   7.941  20.134  0.00  0.00    +0.000 A 
ATOM      5  O   UNL     1       2.504   6.918  19.653  0.00  0.00    +0.000 OA
ENDROOT
BRANCH   1   9
ATOM      6  C   UNL     1       5.191   4.591  16.070  0.00  0.00    +0.000 A 
ATOM      7  C   UNL     1       4.213   4.090  16.933  0.00  0.00    +0.000 A 
ATOM      8  C   UNL     1       3.427   4.965  17.690  0.00  0.00    +0.000 A 
ATOM      9  C   UNL     1       3.619   6.350  17.607  0.00  0.00    +0.000 A 
ATOM     10  C   UNL     1       4.638   6.833  16.771  0.00  0.00    +0.000 A 
ATOM     11  C   UNL     1       5.427   5.963  16.012  0.00  0.00    +0.000 A 
BRANCH   6  12
ATOM     12  O   UNL     1       5.865   3.653  15.338  0.00  0.00    +0.000 OA
BRANCH  12  14
ATOM     13  C   UNL     1       5.923   3.563  12.964  0.00  0.00    +0.000 C 
ATOM     14  C   UNL     1       6.572   4.151  14.202  0.00  0.00    +0.000 C 
ENDBRANCH  12  14
ENDBRANCH   6  12
ENDBRANCH   1   9
BRANCH   3  15
ATOM     15  C   UNL     1       0.854  10.158  19.188  0.00  0.00    +0.000 C 
BRANCH  15  16
ATOM     16  N   UNL     1      -0.601  10.009  19.228  0.00  0.00    +0.000 NA
ATOM     17  H   UNL     1      -0.933  10.378  20.126  0.00  0.00    +0.000 HD
BRANCH  16  18
ATOM     18  C   UNL     1      -1.357  10.719  18.175  0.00  0.00    +0.000 C 
BRANCH  18  19
ATOM     19  C   UNL     1      -2.521   9.906  17.575  0.00  0.00    +0.000 C 
ATOM     20  C   UNL     1      -2.623   9.944  16.056  0.00  0.00    +0.000 C 
ENDBRANCH  18  19
BRANCH  18  21
ATOM     21  C   UNL     1      -1.864  12.065  18.751  0.00  0.00    +0.000 C 
BRANCH  21  22
ATOM     22  O   UNL     1      -3.233  11.935  19.160  0.00  0.00    +0.000 OA
ATOM     23  C   UNL     1      -3.509  12.742  20.297  0.00  0.00    +0.000 C 
ENDBRANCH  21  22
ENDBRANCH  18  21
ENDBRANCH  16  18
ENDBRANCH  15  16
ENDBRANCH   3  15
TORSDOF 9
ENDMDL
MODEL 9
REMARK VINA RESULT:      -6.1      2.990      4.686
REMARK  Name = 
REMARK  12 active torsions:
REMARK  status: ('A' for Active; 'I' for Inactive)
REMARK    1  A    between atoms: C_1  and  C_2
REMARK    2  A    between atoms: C_2  and  O_3
REMARK    3  A    between atoms: O_3  and  C_4
REMARK    4  A    between atoms: C_7  and  C_8
REMARK    5  A    between atoms: C_10  and  C_11
REMARK    6  A    between atoms: C_11  and  N_12
REMARK    7  A    between atoms: N_12  and  C_13
REMARK    8  A    between atoms: C_13  and  C_14
REMARK    9  A    between atoms: C_13  and  C_16
REMARK   10  A    between atoms: C_14  and  C_15
REMARK   11  A    between atoms: C_16  and  O_17
REMARK   12  A    between atoms: O_17  and  C_18
REMARK                            x       y       z     vdW  Elec       q    Type
REMARK                         _______ _______ _______ _____ _____    ______ ____
ROOT
ATOM      1  C   UNL     1       1.221   8.804  20.028  0.00  0.00    +0.000 A 
ATOM      2  N   UNL     1       1.829   7.645  20.212  0.00  0.00    +0.000 NA
ATOM      3  C   UNL     1       2.465   7.405  19.010  0.00  0.00    +0.000 A 
ATOM      4  C   UNL     1       2.197   8.438  18.142  0.00  0.00    +0.000 A 
ATOM      5  O   UNL     1       1.400   9.333  18.776  0.00  0.00    +0.000 OA
ENDROOT
BRANCH   1   9
ATOM      6  C   UNL     1      -1.165  11.128  22.705  0.00  0.00    +0.000 A 
ATOM      7  C   UNL     1      -0.895  11.594  21.415  0.00  0.00    +0.000 A 
ATOM      8  C   UNL     1      -0.101  10.840  20.545  0.00  0.00    +0.000 A 
ATOM      9  C   UNL     1       0.446   9.618  20.957  0.00  0.00    +0.000 A 
ATOM     10  C   UNL     1       0.204   9.188  22.271  0.00  0.00    +0.000 A 
ATOM     11  C   UNL     1      -0.588   9.939  23.146  0.00  0.00    +0.000 A 
BRANCH   6  12
ATOM     12  O   UNL     1      -1.994  11.917  23.453  0.00  0.00    +0.000 OA
BRANCH  12  14
ATOM     13  C   UNL     1      -1.943  14.252  23.891  0.00  0.00    +0.000 C 
ATOM     14  C   UNL     1      -2.319  13.184  22.882  0.00  0.00    +0.000 C 
ENDBRANCH  12  14
ENDBRANCH   6  12
ENDBRANCH   1   9
BRANCH   3  15
ATOM     15  C   UNL     1       3.325   6.213  18.775  0.00  0.00    +0.000 C 
BRANCH  15  16
ATOM     16  N   UNL     1       3.438   5.346  19.948  0.00  0.00    +0.000 NA
ATOM     17  H   UNL     1       3.018   5.836  20.747  0.00  0.00    +0.000 HD
BRANCH  16  18
ATOM     18  C   UNL     1       2.763   4.035  19.856  0.00  0.00    +0.000 C 
BRANCH  18  19
ATOM     19  C   UNL     1       1.514   3.901  20.751  0.00  0.00    +0.000 C 
ATOM     20  C   UNL     1       1.470   2.650  21.619  0.00  0.00    +0.000 C 
ENDBRANCH  18  19
BRANCH  18  21
ATOM     21  C   UNL     1       2.408   3.763  18.373  0.00  0.00    +0.000 C 
BRANCH  21  22
ATOM     22  O   UNL     1       2.230   2.356  18.164  0.00  0.00    +0.000 OA
ATOM     23  C   UNL     1       3.441   1.645  18.386  0.00  0.00    +0.000 C 
ENDBRANCH  21  22
ENDBRANCH  18  21
ENDBRANCH  16  18
ENDBRANCH  15  16
ENDBRANCH   3  15
TORSDOF 9
ENDMDL
