MODEL 1
REMARK VINA RESULT:      -8.5      0.000      0.000
REMARK  Name = 
REMARK  5 active torsions:
REMARK  status: ('A' for Active; 'I' for Inactive)
REMARK    1  A    between atoms: N_1  and  C_2
REMARK    2  A    between atoms: C_5  and  C_6
REMARK    3  A    between atoms: N_8  and  C_9
REMARK    4  A    between atoms: C_11  and  O_12
REMARK    5  A    between atoms: C_17  and  C_18
REMARK                            x       y       z     vdW  Elec       q    Type
REMARK                         _______ _______ _______ _____ _____    ______ ____
ROOT
ATOM      1  C   UNL     1       2.481   3.711  20.786  0.00  0.00    +0.000 A 
ATOM      2  N   UNL     1       3.309   2.658  20.637  0.00  0.00    +0.000 NA
ATOM      3  C   UNL     1       4.321   2.801  19.761  0.00  0.00    +0.000 A 
ATOM      4  C   UNL     1       4.510   3.924  18.963  0.00  0.00    +0.000 A 
ATOM      5  C   UNL     1       3.669   5.049  19.184  0.00  0.00    +0.000 A 
ATOM      6  C   UNL     1       3.769   6.292  18.520  0.00  0.00    +0.000 A 
ATOM      7  C   UNL     1       2.965   7.371  18.883  0.00  0.00    +0.000 A 
ATOM      8  C   UNL     1       2.042   7.208  19.902  0.00  0.00    +0.000 A 
ATOM      9  N   UNL     1       1.845   6.000  20.479  0.00  0.00    +0.000 NA
ATOM     10  C   UNL     1       2.639   4.952  20.143  0.00  0.00    +0.000 A 
ENDROOT
BRANCH   8  11
ATOM     11  C   UNL     1       1.295   8.330  20.503  0.00  0.00    +0.000 A 
ATOM     12  C   UNL     1       0.769   9.368  19.709  0.00  0.00    +0.000 A 
ATOM     13  C   UNL     1      -0.011  10.389  20.265  0.00  0.00    +0.000 A 
ATOM     14  C   UNL     1      -0.284  10.391  21.630  0.00  0.00    +0.000 A 
ATOM     15  C   UNL     1       0.232   9.378  22.423  0.00  0.00    +0.000 A 
ATOM     16  F   UNL     1      -0.040   9.363  23.736  0.00  0.00    +0.000 F 
ATOM     17  C   UNL     1       1.012   8.362  21.880  0.00  0.00    +0.000 A 
ENDBRANCH   8  11
BRANCH   4  18
ATOM     18  C   UNL     1       5.606   3.902  17.953  0.00  0.00    +0.000 C 
ATOM     19  O   UNL     1       6.743   4.251  18.239  0.00  0.00    +0.000 OA
ATOM     20  N   UNL     1       5.256   3.492  16.670  0.00  0.00    +0.000 N 
ATOM     21  H   UNL     1       4.267   3.403  16.458  0.00  0.00    +0.000 HD
BRANCH  20  22
ATOM     22  C   UNL     1       6.189   3.629  15.518  0.00  0.00    +0.000 C 
ATOM     23  C   UNL     1       5.596   4.227  14.224  0.00  0.00    +0.000 C 
ATOM     24  C   UNL     1       6.166   5.600  14.626  0.00  0.00    +0.000 C 
ATOM     25  C   UNL     1       7.097   4.875  15.618  0.00  0.00    +0.000 C 
BRANCH  24  26
ATOM     26  O   UNL     1       5.235   6.538  15.202  0.00  0.00    +0.000 OA
ATOM     27  H   UNL     1       5.718   6.964  15.931  0.00  0.00    +0.000 HD
ENDBRANCH  24  26
ENDBRANCH  20  22
ENDBRANCH   4  18
BRANCH   1  28
ATOM     28  N   UNL     1       1.353   3.468  21.584  0.00  0.00    +0.000 N 
ATOM     29  H   UNL     1       1.383   2.518  21.934  0.00  0.00    +0.000 HD
ATOM     30  H   UNL     1       1.240   4.193  22.285  0.00  0.00    +0.000 HD
ENDBRANCH   1  28
TORSDOF 5
ENDMDL
MODEL 2
REMARK VINA RESULT:      -8.3      3.771      7.753
REMARK  Name = 
REMARK  5 active torsions:
REMARK  status: ('A' for Active; 'I' for Inactive)
REMARK    1  A    between atoms: N_1  and  C_2
REMARK    2  A    between atoms: C_5  and  C_6
REMARK    3  A    between atoms: N_8  and  C_9
REMARK    4  A    between atoms: C_11  and  O_12
REMARK    5  A    between atoms: C_17  and  C_18
REMARK                            x       y       z     vdW  Elec       q    Type
REMARK                         _______ _______ _______ _____ _____    ______ ____
ROOT
ATOM      1  C   UNL     1       2.595   3.301  17.878  0.00  0.00    +0.000 A 
ATOM      2  N   UNL     1       1.596   3.510  18.758  0.00  0.00    +0.000 NA
ATOM      3  C   UNL     1       1.479   4.755  19.257  0.00  0.00    +0.000 A 
ATOM      4  C   UNL     1       2.360   5.794  18.980  0.00  0.00    +0.000 A 
ATOM      5  C   UNL     1       3.364   5.572  17.997  0.00  0.00    +0.000 A 
ATOM      6  C   UNL     1       4.291   6.536  17.539  0.00  0.00    +0.000 A 
ATOM      7  C   UNL     1       5.169   6.253  16.495  0.00  0.00    +0.000 A 
ATOM      8  C   UNL     1       5.138   4.997  15.914  0.00  0.00    +0.000 A 
ATOM      9  N   UNL     1       4.341   4.019  16.404  0.00  0.00    +0.000 NA
ATOM     10  C   UNL     1       3.471   4.296  17.408  0.00  0.00    +0.000 A 
ENDROOT
BRANCH   8  11
ATOM     11  C   UNL     1       5.869   4.661  14.676  0.00  0.00    +0.000 A 
ATOM     12  C   UNL     1       5.347   3.743  13.743  0.00  0.00    +0.000 A 
ATOM     13  C   UNL     1       5.997   3.486  12.530  0.00  0.00    +0.000 A 
ATOM     14  C   UNL     1       7.184   4.145  12.223  0.00  0.00    +0.000 A 
ATOM     15  C   UNL     1       7.711   5.046  13.135  0.00  0.00    +0.000 A 
ATOM     16  F   UNL     1       8.846   5.697  12.840  0.00  0.00    +0.000 F 
ATOM     17  C   UNL     1       7.075   5.305  14.345  0.00  0.00    +0.000 A 
ENDBRANCH   8  11
BRANCH   4  18
ATOM     18  C   UNL     1       2.177   7.091  19.692  0.00  0.00    +0.000 C 
ATOM     19  O   UNL     1       2.241   7.163  20.911  0.00  0.00    +0.000 OA
ATOM     20  N   UNL     1       1.905   8.199  18.895  0.00  0.00    +0.000 N 
ATOM     21  H   UNL     1       1.678   8.034  17.920  0.00  0.00    +0.000 HD
BRANCH  20  22
ATOM     22  C   UNL     1       1.487   9.504  19.479  0.00  0.00    +0.000 C 
ATOM     23  C   UNL     1       1.338  10.680  18.491  0.00  0.00    +0.000 C 
ATOM     24  C   UNL     1      -0.178  10.414  18.441  0.00  0.00    +0.000 C 
ATOM     25  C   UNL     1      -0.034   9.593  19.737  0.00  0.00    +0.000 C 
BRANCH  24  26
ATOM     26  O   UNL     1      -0.666   9.697  17.289  0.00  0.00    +0.000 OA
ATOM     27  H   UNL     1      -1.258   9.013  17.645  0.00  0.00    +0.000 HD
ENDBRANCH  24  26
ENDBRANCH  20  22
ENDBRANCH   4  18
BRANCH   1  28
ATOM     28  N   UNL     1       2.783   1.962  17.504  0.00  0.00    +0.000 N 
ATOM     29  H   UNL     1       3.622   1.880  16.943  0.00  0.00    +0.000 HD
ATOM     30  H   UNL     1       2.730   1.348  18.311  0.00  0.00    +0.000 HD
ENDBRANCH   1  28
TORSDOF 5
ENDMDL
MODEL 3
REMARK VINA RESULT:      -8.3      3.826      8.084
REMARK  Name = 
REMARK  5 active torsions:
REMARK  status: ('A' for Active; 'I' for Inactive)
REMARK    1  A    between atoms: N_1  and  C_2
REMARK    2  A    between atoms: C_5  and  C_6
REMARK    3  A    between atoms: N_8  and  C_9
REMARK    4  A    between atoms: C_11  and  O_12
REMARK    5  A    between atoms: C_17  and  C_18
REMARK                            x       y       z     vdW  Elec       q    Type
REMARK                         _______ _______ _______ _____ _____    ______ ____
ROOT
ATOM      1  C   UNL     1       3.606   3.791  18.871  0.00  0.00    +0.000 A 
ATOM      2  N   UNL     1       2.685   3.979  19.836  0.00  0.00    +0.000 NA
ATOM      3  C   UNL     1       2.193   5.225  19.970  0.00  0.00    +0.000 A 
ATOM      4  C   UNL     1       2.631   6.321  19.235  0.00  0.00    +0.000 A 
ATOM      5  C   UNL     1       3.552   6.088  18.176  0.00  0.00    +0.000 A 
ATOM      6  C   UNL     1       4.042   7.069  17.284  0.00  0.00    +0.000 A 
ATOM      7  C   UNL     1       4.860   6.723  16.211  0.00  0.00    +0.000 A 
ATOM      8  C   UNL     1       5.210   5.396  16.033  0.00  0.00    +0.000 A 
ATOM      9  N   UNL     1       4.849   4.452  16.934  0.00  0.00    +0.000 NA
ATOM     10  C   UNL     1       4.036   4.781  17.969  0.00  0.00    +0.000 A 
ENDROOT
BRANCH   8  11
ATOM     11  C   UNL     1       5.891   4.895  14.824  0.00  0.00    +0.000 A 
ATOM     12  C   UNL     1       5.301   3.912  14.005  0.00  0.00    +0.000 A 
ATOM     13  C   UNL     1       5.905   3.495  12.813  0.00  0.00    +0.000 A 
ATOM     14  C   UNL     1       7.114   4.056  12.413  0.00  0.00    +0.000 A 
ATOM     15  C   UNL     1       7.709   5.020  13.212  0.00  0.00    +0.000 A 
ATOM     16  F   UNL     1       8.866   5.577  12.826  0.00  0.00    +0.000 F 
ATOM     17  C   UNL     1       7.118   5.437  14.401  0.00  0.00    +0.000 A 
ENDBRANCH   8  11
BRANCH   4  18
ATOM     18  C   UNL     1       2.080   7.666  19.566  0.00  0.00    +0.000 C 
ATOM     19  O   UNL     1       1.837   8.487  18.693  0.00  0.00    +0.000 OA
ATOM     20  N   UNL     1       1.887   7.938  20.917  0.00  0.00    +0.000 N 
ATOM     21  H   UNL     1       2.287   7.291  21.590  0.00  0.00    +0.000 HD
BRANCH  20  22
ATOM     22  C   UNL     1       1.555   9.305  21.404  0.00  0.00    +0.000 C 
ATOM     23  C   UNL     1       0.128   9.811  21.104  0.00  0.00    +0.000 C 
ATOM     24  C   UNL     1      -0.294   9.391  22.524  0.00  0.00    +0.000 C 
ATOM     25  C   UNL     1       1.198   9.344  22.907  0.00  0.00    +0.000 C 
BRANCH  24  26
ATOM     26  O   UNL     1      -1.015   8.148  22.638  0.00  0.00    +0.000 OA
ATOM     27  H   UNL     1      -1.019   7.940  23.588  0.00  0.00    +0.000 HD
ENDBRANCH  24  26
ENDBRANCH  20  22
ENDBRANCH   4  18
BRANCH   1  28
ATOM     28  N   UNL     1       4.208   2.523  18.868  0.00  0.00    +0.000 N 
ATOM     29  H   UNL     1       4.552   2.308  19.796  0.00  0.00    +0.000 HD
ATOM     30  H   UNL     1       3.593   1.830  18.453  0.00  0.00    +0.000 HD
ENDBRANCH   1  28
TORSDOF 5
ENDMDL
MODEL 4
REMARK VINA RESULT:      -8.2      0.918      1.308
REMARK  Name = 
REMARK  5 active torsions:
REMARK  status: ('A' for Active; 'I' for Inactive)
REMARK    1  A    between atoms: N_1  and  C_2
REMARK    2  A    between atoms: C_5  and  C_6
REMARK    3  A    between atoms: N_8  and  C_9
REMARK    4  A    between atoms: C_11  and  O_12
REMARK    5  A    between atoms: C_17  and  C_18
REMARK                            x       y       z     vdW  Elec       q    Type
REMARK                         _______ _______ _______ _____ _____    ______ ____
ROOT
ATOM      1  C   UNL     1       2.326   3.651  20.722  0.00  0.00    +0.000 A 
ATOM      2  N   UNL     1       3.154   2.598  20.567  0.00  0.00    +0.000 NA
ATOM      3  C   UNL     1       4.193   2.762  19.727  0.00  0.00    +0.000 A 
ATOM      4  C   UNL     1       4.411   3.907  18.968  0.00  0.00    +0.000 A 
ATOM      5  C   UNL     1       3.567   5.029  19.197  0.00  0.00    +0.000 A 
ATOM      6  C   UNL     1       3.693   6.291  18.573  0.00  0.00    +0.000 A 
ATOM      7  C   UNL     1       2.883   7.363  18.944  0.00  0.00    +0.000 A 
ATOM      8  C   UNL     1       1.929   7.174  19.928  0.00  0.00    +0.000 A 
ATOM      9  N   UNL     1       1.709   5.951  20.464  0.00  0.00    +0.000 NA
ATOM     10  C   UNL     1       2.509   4.909  20.120  0.00  0.00    +0.000 A 
ENDROOT
BRANCH   8  11
ATOM     11  C   UNL     1       1.168   8.282  20.539  0.00  0.00    +0.000 A 
ATOM     12  C   UNL     1       0.736   8.222  21.879  0.00  0.00    +0.000 A 
ATOM     13  C   UNL     1       0.088   9.304  22.486  0.00  0.00    +0.000 A 
ATOM     14  C   UNL     1      -0.138  10.473  21.765  0.00  0.00    +0.000 A 
ATOM     15  C   UNL     1       0.277  10.543  20.445  0.00  0.00    +0.000 A 
ATOM     16  F   UNL     1       0.077  11.671  19.747  0.00  0.00    +0.000 F 
ATOM     17  C   UNL     1       0.917   9.471  19.831  0.00  0.00    +0.000 A 
ENDBRANCH   8  11
BRANCH   4  18
ATOM     18  C   UNL     1       5.537   3.910  17.992  0.00  0.00    +0.000 C 
ATOM     19  O   UNL     1       6.649   4.313  18.303  0.00  0.00    +0.000 OA
ATOM     20  N   UNL     1       5.243   3.456  16.709  0.00  0.00    +0.000 N 
ATOM     21  H   UNL     1       4.267   3.320  16.470  0.00  0.00    +0.000 HD
BRANCH  20  22
ATOM     22  C   UNL     1       6.204   3.607  15.582  0.00  0.00    +0.000 C 
ATOM     23  C   UNL     1       5.644   4.222  14.282  0.00  0.00    +0.000 C 
ATOM     24  C   UNL     1       6.205   5.589  14.716  0.00  0.00    +0.000 C 
ATOM     25  C   UNL     1       7.111   4.850  15.721  0.00  0.00    +0.000 C 
BRANCH  24  26
ATOM     26  O   UNL     1       5.261   6.520  15.281  0.00  0.00    +0.000 OA
ATOM     27  H   UNL     1       5.355   7.332  14.754  0.00  0.00    +0.000 HD
ENDBRANCH  24  26
ENDBRANCH  20  22
ENDBRANCH   4  18
BRANCH   1  28
ATOM     28  N   UNL     1       1.173   3.390  21.477  0.00  0.00    +0.000 N 
ATOM     29  H   UNL     1       0.500   2.890  20.908  0.00  0.00    +0.000 HD
ATOM     30  H   UNL     1       1.410   2.956  22.364  0.00  0.00    +0.000 HD
ENDBRANCH   1  28
TORSDOF 5
ENDMDL
MODEL 5
REMARK VINA RESULT:      -8.2      3.863      8.155
REMARK  Name = 
REMARK  5 active torsions:
REMARK  status: ('A' for Active; 'I' for Inactive)
REMARK    1  A    between atoms: N_1  and  C_2
REMARK    2  A    between atoms: C_5  and  C_6
REMARK    3  A    between atoms: N_8  and  C_9
REMARK    4  A    between atoms: C_11  and  O_12
REMARK    5  A    between atoms: C_17  and  C_18
REMARK                            x       y       z     vdW  Elec       q    Type
REMARK                         _______ _______ _______ _____ _____    ______ ____
ROOT
ATOM      1  C   UNL     1       3.558   3.739  18.466  0.00  0.00    +0.000 A 
ATOM      2  N   UNL     1       2.646   3.936  19.438  0.00  0.00    +0.000 NA
ATOM      3  C   UNL     1       2.216   5.198  19.619  0.00  0.00    +0.000 A 
ATOM      4  C   UNL     1       2.707   6.298  18.925  0.00  0.00    +0.000 A 
ATOM      5  C   UNL     1       3.617   6.061  17.858  0.00  0.00    +0.000 A 
ATOM      6  C   UNL     1       4.156   7.049  17.003  0.00  0.00    +0.000 A 
ATOM      7  C   UNL     1       4.957   6.705  15.917  0.00  0.00    +0.000 A 
ATOM      8  C   UNL     1       5.241   5.369  15.689  0.00  0.00    +0.000 A 
ATOM      9  N   UNL     1       4.834   4.411  16.554  0.00  0.00    +0.000 NA
ATOM     10  C   UNL     1       4.037   4.740  17.602  0.00  0.00    +0.000 A 
ENDROOT
BRANCH   8  11
ATOM     11  C   UNL     1       5.898   4.881  14.461  0.00  0.00    +0.000 A 
ATOM     12  C   UNL     1       7.184   5.324  14.092  0.00  0.00    +0.000 A 
ATOM     13  C   UNL     1       7.844   4.801  12.974  0.00  0.00    +0.000 A 
ATOM     14  C   UNL     1       7.231   3.818  12.201  0.00  0.00    +0.000 A 
ATOM     15  C   UNL     1       5.965   3.378  12.550  0.00  0.00    +0.000 A 
ATOM     16  F   UNL     1       5.374   2.420  11.820  0.00  0.00    +0.000 F 
ATOM     17  C   UNL     1       5.299   3.895  13.657  0.00  0.00    +0.000 A 
ENDBRANCH   8  11
BRANCH   4  18
ATOM     18  C   UNL     1       2.223   7.655  19.307  0.00  0.00    +0.000 C 
ATOM     19  O   UNL     1       2.119   8.550  18.481  0.00  0.00    +0.000 OA
ATOM     20  N   UNL     1       1.926   7.848  20.654  0.00  0.00    +0.000 N 
ATOM     21  H   UNL     1       2.216   7.128  21.307  0.00  0.00    +0.000 HD
BRANCH  20  22
ATOM     22  C   UNL     1       1.645   9.200  21.211  0.00  0.00    +0.000 C 
ATOM     23  C   UNL     1       0.238   9.774  20.941  0.00  0.00    +0.000 C 
ATOM     24  C   UNL     1      -0.197   9.297  22.339  0.00  0.00    +0.000 C 
ATOM     25  C   UNL     1       1.292   9.175  22.715  0.00  0.00    +0.000 C 
BRANCH  24  26
ATOM     26  O   UNL     1      -0.965   8.078  22.392  0.00  0.00    +0.000 OA
ATOM     27  H   UNL     1      -1.172   7.945  23.333  0.00  0.00    +0.000 HD
ENDBRANCH  24  26
ENDBRANCH  20  22
ENDBRANCH   4  18
BRANCH   1  28
ATOM     28  N   UNL     1       4.097   2.444  18.414  0.00  0.00    +0.000 N 
ATOM     29  H   UNL     1       4.978   2.423  18.913  0.00  0.00    +0.000 HD
ATOM     30  H   UNL     1       3.410   1.753  18.701  0.00  0.00    +0.000 HD
ENDBRANCH   1  28
TORSDOF 5
ENDMDL
MODEL 6
REMARK VINA RESULT:      -8.2      3.812      7.781
REMARK  Name = 
REMARK  5 active torsions:
REMARK  status: ('A' for Active; 'I' for Inactive)
REMARK    1  A    between atoms: N_1  and  C_2
REMARK    2  A    between atoms: C_5  and  C_6
REMARK    3  A    between atoms: N_8  and  C_9
REMARK    4  A    between atoms: C_11  and  O_12
REMARK    5  A    between atoms: C_17  and  C_18
REMARK                            x       y       z     vdW  Elec       q    Type
REMARK                         _______ _______ _______ _____ _____    ______ ____
ROOT
ATOM      1  C   UNL     1       2.608   3.294  17.916  0.00  0.00    +0.000 A 
ATOM      2  N   UNL     1       1.636   3.486  18.831  0.00  0.00    +0.000 NA
ATOM      3  C   UNL     1       1.511   4.730  19.330  0.00  0.00    +0.000 A 
ATOM      4  C   UNL     1       2.359   5.786  19.017  0.00  0.00    +0.000 A 
ATOM      5  C   UNL     1       3.332   5.582  18.000  0.00  0.00    +0.000 A 
ATOM      6  C   UNL     1       4.222   6.562  17.505  0.00  0.00    +0.000 A 
ATOM      7  C   UNL     1       5.067   6.293  16.431  0.00  0.00    +0.000 A 
ATOM      8  C   UNL     1       5.042   5.035  15.856  0.00  0.00    +0.000 A 
ATOM      9  N   UNL     1       4.284   4.043  16.378  0.00  0.00    +0.000 NA
ATOM     10  C   UNL     1       3.444   4.306  17.412  0.00  0.00    +0.000 A 
ENDROOT
BRANCH   8  11
ATOM     11  C   UNL     1       5.735   4.709  14.594  0.00  0.00    +0.000 A 
ATOM     12  C   UNL     1       7.016   5.220  14.309  0.00  0.00    +0.000 A 
ATOM     13  C   UNL     1       7.711   4.847  13.152  0.00  0.00    +0.000 A 
ATOM     14  C   UNL     1       7.137   3.950  12.256  0.00  0.00    +0.000 A 
ATOM     15  C   UNL     1       5.874   3.445  12.521  0.00  0.00    +0.000 A 
ATOM     16  F   UNL     1       5.321   2.568  11.670  0.00  0.00    +0.000 F 
ATOM     17  C   UNL     1       5.175   3.813  13.666  0.00  0.00    +0.000 A 
ENDBRANCH   8  11
BRANCH   4  18
ATOM     18  C   UNL     1       2.175   7.082  19.731  0.00  0.00    +0.000 C 
ATOM     19  O   UNL     1       2.263   7.156  20.948  0.00  0.00    +0.000 OA
ATOM     20  N   UNL     1       1.874   8.186  18.939  0.00  0.00    +0.000 N 
ATOM     21  H   UNL     1       1.629   8.016  17.968  0.00  0.00    +0.000 HD
BRANCH  20  22
ATOM     22  C   UNL     1       1.452   9.486  19.529  0.00  0.00    +0.000 C 
ATOM     23  C   UNL     1       1.342  10.678  18.554  0.00  0.00    +0.000 C 
ATOM     24  C   UNL     1      -0.174  10.427  18.457  0.00  0.00    +0.000 C 
ATOM     25  C   UNL     1      -0.075   9.586  19.745  0.00  0.00    +0.000 C 
BRANCH  24  26
ATOM     26  O   UNL     1      -0.636   9.731  17.282  0.00  0.00    +0.000 OA
ATOM     27  H   UNL     1      -0.249   8.841  17.342  0.00  0.00    +0.000 HD
ENDBRANCH  24  26
ENDBRANCH  20  22
ENDBRANCH   4  18
BRANCH   1  28
ATOM     28  N   UNL     1       2.809   1.958  17.540  0.00  0.00    +0.000 N 
ATOM     29  H   UNL     1       2.103   1.684  16.867  0.00  0.00    +0.000 HD
ATOM     30  H   UNL     1       3.772   1.801  17.258  0.00  0.00    +0.000 HD
ENDBRANCH   1  28
TORSDOF 5
ENDMDL
MODEL 7
REMARK VINA RESULT:      -7.8      3.196      5.310
REMARK  Name = 
REMARK  5 active torsions:
REMARK  status: ('A' for Active; 'I' for Inactive)
REMARK    1  A    between atoms: N_1  and  C_2
REMARK    2  A    between atoms: C_5  and  C_6
REMARK    3  A    between atoms: N_8  and  C_9
REMARK    4  A    between atoms: C_11  and  O_12
REMARK    5  A    between atoms: C_17  and  C_18
REMARK                            x       y       z     vdW  Elec       q    Type
REMARK                         _______ _______ _______ _____ _____    ______ ____
ROOT
ATOM      1  C   UNL     1       1.733   9.987  18.373  0.00  0.00    +0.000 A 
ATOM      2  N   UNL     1       2.212   9.048  17.534  0.00  0.00    +0.000 NA
ATOM      3  C   UNL     1       2.380   7.812  18.040  0.00  0.00    +0.000 A 
ATOM      4  C   UNL     1       2.162   7.477  19.372  0.00  0.00    +0.000 A 
ATOM      5  C   UNL     1       1.592   8.464  20.223  0.00  0.00    +0.000 A 
ATOM      6  C   UNL     1       1.236   8.274  21.577  0.00  0.00    +0.000 A 
ATOM      7  C   UNL     1       0.583   9.271  22.299  0.00  0.00    +0.000 A 
ATOM      8  C   UNL     1       0.298  10.473  21.675  0.00  0.00    +0.000 A 
ATOM      9  N   UNL     1       0.726  10.726  20.416  0.00  0.00    +0.000 NA
ATOM     10  C   UNL     1       1.344   9.751  19.703  0.00  0.00    +0.000 A 
ENDROOT
BRANCH   8  11
ATOM     11  C   UNL     1      -0.567  11.509  22.273  0.00  0.00    +0.000 A 
ATOM     12  C   UNL     1      -0.355  12.878  22.018  0.00  0.00    +0.000 A 
ATOM     13  C   UNL     1      -1.223  13.857  22.515  0.00  0.00    +0.000 A 
ATOM     14  C   UNL     1      -2.326  13.485  23.278  0.00  0.00    +0.000 A 
ATOM     15  C   UNL     1      -2.544  12.142  23.542  0.00  0.00    +0.000 A 
ATOM     16  F   UNL     1      -3.613  11.774  24.262  0.00  0.00    +0.000 F 
ATOM     17  C   UNL     1      -1.683  11.162  23.055  0.00  0.00    +0.000 A 
ENDBRANCH   8  11
BRANCH   4  18
ATOM     18  C   UNL     1       2.497   6.096  19.823  0.00  0.00    +0.000 C 
ATOM     19  O   UNL     1       3.657   5.734  19.956  0.00  0.00    +0.000 OA
ATOM     20  N   UNL     1       1.421   5.244  20.054  0.00  0.00    +0.000 N 
ATOM     21  H   UNL     1       0.504   5.548  19.742  0.00  0.00    +0.000 HD
BRANCH  20  22
ATOM     22  C   UNL     1       1.609   3.787  20.294  0.00  0.00    +0.000 C 
ATOM     23  C   UNL     1       0.694   2.837  19.491  0.00  0.00    +0.000 C 
ATOM     24  C   UNL     1       1.832   2.641  18.473  0.00  0.00    +0.000 C 
ATOM     25  C   UNL     1       2.812   3.197  19.525  0.00  0.00    +0.000 C 
BRANCH  24  26
ATOM     26  O   UNL     1       1.732   3.389  17.245  0.00  0.00    +0.000 OA
ATOM     27  H   UNL     1       1.734   4.323  17.513  0.00  0.00    +0.000 HD
ENDBRANCH  24  26
ENDBRANCH  20  22
ENDBRANCH   4  18
BRANCH   1  28
ATOM     28  N   UNL     1       1.723  11.292  17.855  0.00  0.00    +0.000 N 
ATOM     29  H   UNL     1       0.961  11.389  17.195  0.00  0.00    +0.000 HD
ATOM     30  H   UNL     1       1.750  11.979  18.602  0.00  0.00    +0.000 HD
ENDBRANCH   1  28
TORSDOF 5
ENDMDL
MODEL 8
REMARK VINA RESULT:      -7.8      3.080      5.246
REMARK  Name = 
REMARK  5 active torsions:
REMARK  status: ('A' for Active; 'I' for Inactive)
REMARK    1  A    between atoms: N_1  and  C_2
REMARK    2  A    between atoms: C_5  and  C_6
REMARK    3  A    between atoms: N_8  and  C_9
REMARK    4  A    between atoms: C_11  and  O_12
REMARK    5  A    between atoms: C_17  and  C_18
REMARK                            x       y       z     vdW  Elec       q    Type
REMARK                         _______ _______ _______ _____ _____    ______ ____
ROOT
ATOM      1  C   UNL     1       1.560  10.287  18.448  0.00  0.00    +0.000 A 
ATOM      2  N   UNL     1       2.032   9.365  17.585  0.00  0.00    +0.000 NA
ATOM      3  C   UNL     1       2.178   8.113  18.056  0.00  0.00    +0.000 A 
ATOM      4  C   UNL     1       1.947   7.743  19.377  0.00  0.00    +0.000 A 
ATOM      5  C   UNL     1       1.385   8.713  20.252  0.00  0.00    +0.000 A 
ATOM      6  C   UNL     1       1.018   8.489  21.599  0.00  0.00    +0.000 A 
ATOM      7  C   UNL     1       0.375   9.474  22.344  0.00  0.00    +0.000 A 
ATOM      8  C   UNL     1       0.111  10.698  21.754  0.00  0.00    +0.000 A 
ATOM      9  N   UNL     1       0.550  10.981  20.506  0.00  0.00    +0.000 NA
ATOM     10  C   UNL     1       1.159  10.018  19.768  0.00  0.00    +0.000 A 
ENDROOT
BRANCH   8  11
ATOM     11  C   UNL     1      -0.743  11.728  22.377  0.00  0.00    +0.000 A 
ATOM     12  C   UNL     1      -0.492  13.101  22.186  0.00  0.00    +0.000 A 
ATOM     13  C   UNL     1      -1.348  14.080  22.706  0.00  0.00    +0.000 A 
ATOM     14  C   UNL     1      -2.478  13.703  23.426  0.00  0.00    +0.000 A 
ATOM     15  C   UNL     1      -2.734  12.356  23.626  0.00  0.00    +0.000 A 
ATOM     16  F   UNL     1      -3.829  11.985  24.305  0.00  0.00    +0.000 F 
ATOM     17  C   UNL     1      -1.886  11.377  23.117  0.00  0.00    +0.000 A 
ENDBRANCH   8  11
BRANCH   4  18
ATOM     18  C   UNL     1       2.260   6.345  19.789  0.00  0.00    +0.000 C 
ATOM     19  O   UNL     1       1.818   5.874  20.827  0.00  0.00    +0.000 OA
ATOM     20  N   UNL     1       3.098   5.625  18.943  0.00  0.00    +0.000 N 
ATOM     21  H   UNL     1       3.577   6.135  18.208  0.00  0.00    +0.000 HD
BRANCH  20  22
ATOM     22  C   UNL     1       3.667   4.306  19.336  0.00  0.00    +0.000 C 
ATOM     23  C   UNL     1       2.678   3.121  19.385  0.00  0.00    +0.000 C 
ATOM     24  C   UNL     1       3.144   2.707  17.976  0.00  0.00    +0.000 C 
ATOM     25  C   UNL     1       4.392   3.589  18.176  0.00  0.00    +0.000 C 
BRANCH  24  26
ATOM     26  O   UNL     1       2.280   3.073  16.881  0.00  0.00    +0.000 OA
ATOM     27  H   UNL     1       1.995   3.983  17.072  0.00  0.00    +0.000 HD
ENDBRANCH  24  26
ENDBRANCH  20  22
ENDBRANCH   4  18
BRANCH   1  28
ATOM     28  N   UNL     1       1.572  11.606  17.968  0.00  0.00    +0.000 N 
ATOM     29  H   UNL     1       2.418  11.765  17.433  0.00  0.00    +0.000 HD
ATOM     30  H   UNL     1       0.702  11.828  17.495  0.00  0.00    +0.000 HD
ENDBRANCH   1  28
TORSDOF 5
ENDMDL
MODEL 9
REMARK VINA RESULT:      -7.7      3.108      5.315
REMARK  Name = 
REMARK  5 active torsions:
REMARK  status: ('A' for Active; 'I' for Inactive)
REMARK    1  A    between atoms: N_1  and  C_2
REMARK    2  A    between atoms: C_5  and  C_6
REMARK    3  A    between atoms: N_8  and  C_9
REMARK    4  A    between atoms: C_11  and  O_12
REMARK    5  A    between atoms: C_17  and  C_18
REMARK                            x       y       z     vdW  Elec       q    Type
REMARK                         _______ _______ _______ _____ _____    ______ ____
ROOT
ATOM      1  C   UNL     1       1.954   9.542  18.093  0.00  0.00    +0.000 A 
ATOM      2  N   UNL     1       2.632   8.642  17.353  0.00  0.00    +0.000 NA
ATOM      3  C   UNL     1       2.904   7.460  17.936  0.00  0.00    +0.000 A 
ATOM      4  C   UNL     1       2.598   7.151  19.256  0.00  0.00    +0.000 A 
ATOM      5  C   UNL     1       1.823   8.086  19.997  0.00  0.00    +0.000 A 
ATOM      6  C   UNL     1       1.360   7.903  21.320  0.00  0.00    +0.000 A 
ATOM      7  C   UNL     1       0.516   8.832  21.924  0.00  0.00    +0.000 A 
ATOM      8  C   UNL     1       0.144   9.962  21.215  0.00  0.00    +0.000 A 
ATOM      9  N   UNL     1       0.660  10.220  19.991  0.00  0.00    +0.000 NA
ATOM     10  C   UNL     1       1.467   9.308  19.391  0.00  0.00    +0.000 A 
ENDROOT
BRANCH   8  11
ATOM     11  C   UNL     1      -0.902  10.896  21.675  0.00  0.00    +0.000 A 
ATOM     12  C   UNL     1      -1.295  10.948  23.026  0.00  0.00    +0.000 A 
ATOM     13  C   UNL     1      -2.226  11.890  23.481  0.00  0.00    +0.000 A 
ATOM     14  C   UNL     1      -2.781  12.804  22.590  0.00  0.00    +0.000 A 
ATOM     15  C   UNL     1      -2.408  12.760  21.257  0.00  0.00    +0.000 A 
ATOM     16  F   UNL     1      -2.926  13.648  20.395  0.00  0.00    +0.000 F 
ATOM     17  C   UNL     1      -1.486  11.825  20.795  0.00  0.00    +0.000 A 
ENDBRANCH   8  11
BRANCH   4  18
ATOM     18  C   UNL     1       3.059   5.845  19.807  0.00  0.00    +0.000 C 
ATOM     19  O   UNL     1       4.237   5.520  19.772  0.00  0.00    +0.000 OA
ATOM     20  N   UNL     1       2.074   5.014  20.333  0.00  0.00    +0.000 N 
ATOM     21  H   UNL     1       1.106   5.262  20.156  0.00  0.00    +0.000 HD
BRANCH  20  22
ATOM     22  C   UNL     1       2.356   3.603  20.714  0.00  0.00    +0.000 C 
ATOM     23  C   UNL     1       1.139   2.656  20.785  0.00  0.00    +0.000 C 
ATOM     24  C   UNL     1       1.475   2.159  19.366  0.00  0.00    +0.000 C 
ATOM     25  C   UNL     1       2.887   2.752  19.538  0.00  0.00    +0.000 C 
BRANCH  24  26
ATOM     26  O   UNL     1       0.685   2.704  18.291  0.00  0.00    +0.000 OA
ATOM     27  H   UNL     1      -0.240   2.556  18.551  0.00  0.00    +0.000 HD
ENDBRANCH  24  26
ENDBRANCH  20  22
ENDBRANCH   4  18
BRANCH   1  28
ATOM     28  N   UNL     1       1.830  10.813  17.511  0.00  0.00    +0.000 N 
ATOM     29  H   UNL     1       2.305  11.498  18.087  0.00  0.00    +0.000 HD
ATOM     30  H   UNL     1       2.103  10.793  16.533  0.00  0.00    +0.000 HD
ENDBRANCH   1  28
TORSDOF 5
ENDMDL
