MODEL 1
REMARK VINA RESULT:      -7.9      0.000      0.000
REMARK  Name = 
REMARK  4 active torsions:
REMARK  status: ('A' for Active; 'I' for Inactive)
REMARK    1  A    between atoms: C_1  and  C_2
REMARK    2  A    between atoms: C_6  and  C_7
REMARK    3  A    between atoms: C_11  and  C_12
REMARK    4  A    between atoms: C_18  and  O_19
REMARK                            x       y       z     vdW  Elec       q    Type
REMARK                         _______ _______ _______ _____ _____    ______ ____
ROOT
ATOM      1  C   UNL     1       2.461   7.272  19.054  0.00  0.00    +0.000 C 
ATOM      2  C   UNL     1       2.718   5.767  19.085  0.00  0.00    +0.000 C 
ATOM      3  C   UNL     1       4.183   5.484  19.449  0.00  0.00    +0.000 C 
ATOM      4  N   UNL     1       4.459   4.042  19.405  0.00  0.00    +0.000 NA
ATOM      5  C   UNL     1       3.632   3.342  20.402  0.00  0.00    +0.000 C 
ATOM      6  C   UNL     1       2.136   3.548  20.101  0.00  0.00    +0.000 C 
ATOM      7  C   UNL     1       1.256   2.828  21.126  0.00  0.00    +0.000 C 
ATOM      8  C   UNL     1       1.904   3.003  18.679  0.00  0.00    +0.000 C 
ATOM      9  N   UNL     1       2.765   3.702  17.704  0.00  0.00    +0.000 NA
ATOM     10  C   UNL     1       2.440   5.142  17.708  0.00  0.00    +0.000 C 
ATOM     11  C   UNL     1       4.204   3.499  18.051  0.00  0.00    +0.000 C 
ATOM     12  C   UNL     1       1.823   5.062  20.122  0.00  0.00    +0.000 C 
ENDROOT
BRANCH  11  13
ATOM     13  C   UNL     1       5.162   3.964  16.922  0.00  0.00    +0.000 A 
ATOM     14  C   UNL     1       4.670   3.994  15.595  0.00  0.00    +0.000 A 
ATOM     15  C   UNL     1       5.459   4.415  14.520  0.00  0.00    +0.000 A 
ATOM     16  C   UNL     1       6.774   4.796  14.745  0.00  0.00    +0.000 A 
ATOM     17 BR   UNL     1       7.846   5.380  13.303  0.00  0.00    +0.000 Br
ATOM     18  C   UNL     1       7.311   4.734  16.026  0.00  0.00    +0.000 A 
ATOM     19  C   UNL     1       6.516   4.301  17.098  0.00  0.00    +0.000 A 
BRANCH  19  20
ATOM     20  O   UNL     1       7.105   4.207  18.327  0.00  0.00    +0.000 OA
ATOM     21  H   UNL     1       6.459   4.410  19.022  0.00  0.00    +0.000 HD
ENDBRANCH  19  20
ENDBRANCH  11  13
TORSDOF 2
ENDMDL
MODEL 2
REMARK VINA RESULT:      -7.5      3.482      5.941
REMARK  Name = 
REMARK  4 active torsions:
REMARK  status: ('A' for Active; 'I' for Inactive)
REMARK    1  A    between atoms: C_1  and  C_2
REMARK    2  A    between atoms: C_6  and  C_7
REMARK    3  A    between atoms: C_11  and  C_12
REMARK    4  A    between atoms: C_18  and  O_19
REMARK                            x       y       z     vdW  Elec       q    Type
REMARK                         _______ _______ _______ _____ _____    ______ ____
ROOT
ATOM      1  C   UNL     1       7.564   5.902  19.165  0.00  0.00    +0.000 C 
ATOM      2  C   UNL     1       6.468   5.625  18.138  0.00  0.00    +0.000 C 
ATOM      3  C   UNL     1       5.905   6.946  17.591  0.00  0.00    +0.000 C 
ATOM      4  N   UNL     1       4.797   6.691  16.660  0.00  0.00    +0.000 NA
ATOM      5  C   UNL     1       5.283   5.925  15.500  0.00  0.00    +0.000 C 
ATOM      6  C   UNL     1       5.846   4.564  15.951  0.00  0.00    +0.000 C 
ATOM      7  C   UNL     1       6.357   3.750  14.760  0.00  0.00    +0.000 C 
ATOM      8  C   UNL     1       4.695   3.841  16.675  0.00  0.00    +0.000 C 
ATOM      9  N   UNL     1       4.210   4.642  17.816  0.00  0.00    +0.000 NA
ATOM     10  C   UNL     1       5.310   4.842  18.779  0.00  0.00    +0.000 C 
ATOM     11  C   UNL     1       3.699   5.962  17.336  0.00  0.00    +0.000 C 
ATOM     12  C   UNL     1       7.003   4.805  16.949  0.00  0.00    +0.000 C 
ENDROOT
BRANCH  11  13
ATOM     13  C   UNL     1       2.922   6.736  18.433  0.00  0.00    +0.000 A 
ATOM     14  C   UNL     1       2.597   6.056  19.631  0.00  0.00    +0.000 A 
ATOM     15  C   UNL     1       1.913   6.682  20.679  0.00  0.00    +0.000 A 
ATOM     16  C   UNL     1       1.514   8.004  20.541  0.00  0.00    +0.000 A 
ATOM     17 BR   UNL     1       0.600   8.865  21.953  0.00  0.00    +0.000 Br
ATOM     18  C   UNL     1       1.769   8.693  19.360  0.00  0.00    +0.000 A 
ATOM     19  C   UNL     1       2.448   8.055  18.311  0.00  0.00    +0.000 A 
BRANCH  19  20
ATOM     20  O   UNL     1       2.627   8.757  17.153  0.00  0.00    +0.000 OA
ATOM     21  H   UNL     1       2.888   8.156  16.436  0.00  0.00    +0.000 HD
ENDBRANCH  19  20
ENDBRANCH  11  13
TORSDOF 2
ENDMDL
MODEL 3
REMARK VINA RESULT:      -7.1      3.272      5.816
REMARK  Name = 
REMARK  4 active torsions:
REMARK  status: ('A' for Active; 'I' for Inactive)
REMARK    1  A    between atoms: C_1  and  C_2
REMARK    2  A    between atoms: C_6  and  C_7
REMARK    3  A    between atoms: C_11  and  C_12
REMARK    4  A    between atoms: C_18  and  O_19
REMARK                            x       y       z     vdW  Elec       q    Type
REMARK                         _______ _______ _______ _____ _____    ______ ____
ROOT
ATOM      1  C   UNL     1       7.710   6.052  18.921  0.00  0.00    +0.000 C 
ATOM      2  C   UNL     1       6.597   5.667  17.950  0.00  0.00    +0.000 C 
ATOM      3  C   UNL     1       5.884   6.925  17.431  0.00  0.00    +0.000 C 
ATOM      4  N   UNL     1       4.761   6.561  16.557  0.00  0.00    +0.000 NA
ATOM      5  C   UNL     1       5.260   5.839  15.374  0.00  0.00    +0.000 C 
ATOM      6  C   UNL     1       5.972   4.540  15.796  0.00  0.00    +0.000 C 
ATOM      7  C   UNL     1       6.499   3.773  14.582  0.00  0.00    +0.000 C 
ATOM      8  C   UNL     1       4.932   3.714  16.577  0.00  0.00    +0.000 C 
ATOM      9  N   UNL     1       4.429   4.471  17.740  0.00  0.00    +0.000 NA
ATOM     10  C   UNL     1       5.552   4.780  18.647  0.00  0.00    +0.000 C 
ATOM     11  C   UNL     1       3.772   5.734  17.286  0.00  0.00    +0.000 C 
ATOM     12  C   UNL     1       7.148   4.895  16.736  0.00  0.00    +0.000 C 
ENDROOT
BRANCH  11  13
ATOM     13  C   UNL     1       2.979   6.436  18.420  0.00  0.00    +0.000 A 
ATOM     14  C   UNL     1       2.740   7.827  18.309  0.00  0.00    +0.000 A 
ATOM     15  C   UNL     1       2.020   8.536  19.277  0.00  0.00    +0.000 A 
ATOM     16  C   UNL     1       1.541   7.871  20.396  0.00  0.00    +0.000 A 
ATOM     17 BR   UNL     1       0.555   8.814  21.703  0.00  0.00    +0.000 Br
ATOM     18  C   UNL     1       1.796   6.514  20.567  0.00  0.00    +0.000 A 
ATOM     19  C   UNL     1       2.527   5.812  19.597  0.00  0.00    +0.000 A 
BRANCH  19  20
ATOM     20  O   UNL     1       2.797   4.495  19.837  0.00  0.00    +0.000 OA
ATOM     21  H   UNL     1       3.675   4.267  19.492  0.00  0.00    +0.000 HD
ENDBRANCH  19  20
ENDBRANCH  11  13
TORSDOF 2
ENDMDL
MODEL 4
REMARK VINA RESULT:      -6.8      2.750      3.289
REMARK  Name = 
REMARK  4 active torsions:
REMARK  status: ('A' for Active; 'I' for Inactive)
REMARK    1  A    between atoms: C_1  and  C_2
REMARK    2  A    between atoms: C_6  and  C_7
REMARK    3  A    between atoms: C_11  and  C_12
REMARK    4  A    between atoms: C_18  and  O_19
REMARK                            x       y       z     vdW  Elec       q    Type
REMARK                         _______ _______ _______ _____ _____    ______ ____
ROOT
ATOM      1  C   UNL     1       2.157   6.509  19.385  0.00  0.00    +0.000 C 
ATOM      2  C   UNL     1       3.149   5.491  18.825  0.00  0.00    +0.000 C 
ATOM      3  C   UNL     1       4.305   5.275  19.814  0.00  0.00    +0.000 C 
ATOM      4  N   UNL     1       5.303   4.357  19.250  0.00  0.00    +0.000 NA
ATOM      5  C   UNL     1       4.695   3.037  19.015  0.00  0.00    +0.000 C 
ATOM      6  C   UNL     1       3.535   3.150  18.009  0.00  0.00    +0.000 C 
ATOM      7  C   UNL     1       2.887   1.789  17.749  0.00  0.00    +0.000 C 
ATOM      8  C   UNL     1       4.138   3.742  16.721  0.00  0.00    +0.000 C 
ATOM      9  N   UNL     1       4.765   5.051  16.991  0.00  0.00    +0.000 NA
ATOM     10  C   UNL     1       3.743   5.988  17.497  0.00  0.00    +0.000 C 
ATOM     11  C   UNL     1       5.864   4.898  17.991  0.00  0.00    +0.000 C 
ATOM     12  C   UNL     1       2.477   4.129  18.571  0.00  0.00    +0.000 C 
ENDROOT
BRANCH  11  13
ATOM     13  C   UNL     1       6.744   6.171  18.111  0.00  0.00    +0.000 A 
ATOM     14  C   UNL     1       6.503   7.240  17.215  0.00  0.00    +0.000 A 
ATOM     15  C   UNL     1       7.237   8.430  17.263  0.00  0.00    +0.000 A 
ATOM     16  C   UNL     1       8.252   8.569  18.199  0.00  0.00    +0.000 A 
ATOM     17 BR   UNL     1       9.242  10.176  18.283  0.00  0.00    +0.000 Br
ATOM     18  C   UNL     1       8.554   7.523  19.065  0.00  0.00    +0.000 A 
ATOM     19  C   UNL     1       7.819   6.330  19.004  0.00  0.00    +0.000 A 
BRANCH  19  20
ATOM     20  O   UNL     1       8.190   5.314  19.839  0.00  0.00    +0.000 OA
ATOM     21  H   UNL     1       7.410   4.801  20.104  0.00  0.00    +0.000 HD
ENDBRANCH  19  20
ENDBRANCH  11  13
TORSDOF 2
ENDMDL
MODEL 5
REMARK VINA RESULT:      -6.6      1.025      1.489
REMARK  Name = 
REMARK  4 active torsions:
REMARK  status: ('A' for Active; 'I' for Inactive)
REMARK    1  A    between atoms: C_1  and  C_2
REMARK    2  A    between atoms: C_6  and  C_7
REMARK    3  A    between atoms: C_11  and  C_12
REMARK    4  A    between atoms: C_18  and  O_19
REMARK                            x       y       z     vdW  Elec       q    Type
REMARK                         _______ _______ _______ _____ _____    ______ ____
ROOT
ATOM      1  C   UNL     1       0.817   4.405  17.026  0.00  0.00    +0.000 C 
ATOM      2  C   UNL     1       1.943   4.115  18.016  0.00  0.00    +0.000 C 
ATOM      3  C   UNL     1       2.840   5.351  18.181  0.00  0.00    +0.000 C 
ATOM      4  N   UNL     1       3.971   5.056  19.071  0.00  0.00    +0.000 NA
ATOM      5  C   UNL     1       3.476   4.710  20.414  0.00  0.00    +0.000 C 
ATOM      6  C   UNL     1       2.582   3.456  20.351  0.00  0.00    +0.000 C 
ATOM      7  C   UNL     1       2.056   3.077  21.737  0.00  0.00    +0.000 C 
ATOM      8  C   UNL     1       3.454   2.335  19.754  0.00  0.00    +0.000 C 
ATOM      9  N   UNL     1       3.959   2.721  18.421  0.00  0.00    +0.000 NA
ATOM     10  C   UNL     1       2.819   2.954  17.514  0.00  0.00    +0.000 C 
ATOM     11  C   UNL     1       4.796   3.954  18.525  0.00  0.00    +0.000 C 
ATOM     12  C   UNL     1       1.392   3.735  19.403  0.00  0.00    +0.000 C 
ENDROOT
BRANCH  11  13
ATOM     13  C   UNL     1       5.583   4.253  17.222  0.00  0.00    +0.000 A 
ATOM     14  C   UNL     1       4.903   4.136  15.986  0.00  0.00    +0.000 A 
ATOM     15  C   UNL     1       5.531   4.403  14.765  0.00  0.00    +0.000 A 
ATOM     16  C   UNL     1       6.868   4.772  14.750  0.00  0.00    +0.000 A 
ATOM     17 BR   UNL     1       7.725   5.148  13.108  0.00  0.00    +0.000 Br
ATOM     18  C   UNL     1       7.586   4.850  15.939  0.00  0.00    +0.000 A 
ATOM     19  C   UNL     1       6.951   4.572  17.159  0.00  0.00    +0.000 A 
BRANCH  19  20
ATOM     20  O   UNL     1       7.713   4.611  18.293  0.00  0.00    +0.000 OA
ATOM     21  H   UNL     1       7.675   3.755  18.748  0.00  0.00    +0.000 HD
ENDBRANCH  19  20
ENDBRANCH  11  13
TORSDOF 2
ENDMDL
MODEL 6
REMARK VINA RESULT:      -6.5      1.298      2.576
REMARK  Name = 
REMARK  4 active torsions:
REMARK  status: ('A' for Active; 'I' for Inactive)
REMARK    1  A    between atoms: C_1  and  C_2
REMARK    2  A    between atoms: C_6  and  C_7
REMARK    3  A    between atoms: C_11  and  C_12
REMARK    4  A    between atoms: C_18  and  O_19
REMARK                            x       y       z     vdW  Elec       q    Type
REMARK                         _______ _______ _______ _____ _____    ______ ____
ROOT
ATOM      1  C   UNL     1       4.058   0.918  18.728  0.00  0.00    +0.000 C 
ATOM      2  C   UNL     1       3.568   2.364  18.725  0.00  0.00    +0.000 C 
ATOM      3  C   UNL     1       3.003   2.731  17.345  0.00  0.00    +0.000 C 
ATOM      4  N   UNL     1       2.600   4.144  17.309  0.00  0.00    +0.000 NA
ATOM      5  C   UNL     1       1.523   4.383  18.284  0.00  0.00    +0.000 C 
ATOM      6  C   UNL     1       2.009   4.065  19.711  0.00  0.00    +0.000 C 
ATOM      7  C   UNL     1       0.906   4.308  20.743  0.00  0.00    +0.000 C 
ATOM      8  C   UNL     1       3.226   4.974  19.964  0.00  0.00    +0.000 C 
ATOM      9  N   UNL     1       4.278   4.733  18.956  0.00  0.00    +0.000 NA
ATOM     10  C   UNL     1       4.723   3.328  19.040  0.00  0.00    +0.000 C 
ATOM     11  C   UNL     1       3.755   5.027  17.588  0.00  0.00    +0.000 C 
ATOM     12  C   UNL     1       2.458   2.586  19.770  0.00  0.00    +0.000 C 
ENDROOT
BRANCH  11  13
ATOM     13  C   UNL     1       4.876   5.067  16.516  0.00  0.00    +0.000 A 
ATOM     14  C   UNL     1       4.688   4.331  15.321  0.00  0.00    +0.000 A 
ATOM     15  C   UNL     1       5.640   4.324  14.296  0.00  0.00    +0.000 A 
ATOM     16  C   UNL     1       6.819   5.038  14.453  0.00  0.00    +0.000 A 
ATOM     17 BR   UNL     1       8.106   5.047  13.070  0.00  0.00    +0.000 Br
ATOM     18  C   UNL     1       7.065   5.734  15.632  0.00  0.00    +0.000 A 
ATOM     19  C   UNL     1       6.109   5.728  16.659  0.00  0.00    +0.000 A 
BRANCH  19  20
ATOM     20  O   UNL     1       6.420   6.383  17.817  0.00  0.00    +0.000 OA
ATOM     21  H   UNL     1       6.086   7.294  17.784  0.00  0.00    +0.000 HD
ENDBRANCH  19  20
ENDBRANCH  11  13
TORSDOF 2
ENDMDL
MODEL 7
REMARK VINA RESULT:      -6.4      2.109      2.454
REMARK  Name = 
REMARK  4 active torsions:
REMARK  status: ('A' for Active; 'I' for Inactive)
REMARK    1  A    between atoms: C_1  and  C_2
REMARK    2  A    between atoms: C_6  and  C_7
REMARK    3  A    between atoms: C_11  and  C_12
REMARK    4  A    between atoms: C_18  and  O_19
REMARK                            x       y       z     vdW  Elec       q    Type
REMARK                         _______ _______ _______ _____ _____    ______ ____
ROOT
ATOM      1  C   UNL     1       1.654   6.127  20.905  0.00  0.00    +0.000 C 
ATOM      2  C   UNL     1       2.153   5.124  19.867  0.00  0.00    +0.000 C 
ATOM      3  C   UNL     1       3.532   4.582  20.270  0.00  0.00    +0.000 C 
ATOM      4  N   UNL     1       4.054   3.675  19.239  0.00  0.00    +0.000 NA
ATOM      5  C   UNL     1       3.166   2.509  19.100  0.00  0.00    +0.000 C 
ATOM      6  C   UNL     1       1.755   2.955  18.669  0.00  0.00    +0.000 C 
ATOM      7  C   UNL     1       0.814   1.759  18.518  0.00  0.00    +0.000 C 
ATOM      8  C   UNL     1       1.930   3.707  17.336  0.00  0.00    +0.000 C 
ATOM      9  N   UNL     1       2.847   4.853  17.498  0.00  0.00    +0.000 NA
ATOM     10  C   UNL     1       2.286   5.792  18.489  0.00  0.00    +0.000 C 
ATOM     11  C   UNL     1       4.191   4.377  17.942  0.00  0.00    +0.000 C 
ATOM     12  C   UNL     1       1.191   3.928  19.731  0.00  0.00    +0.000 C 
ENDROOT
BRANCH  11  13
ATOM     13  C   UNL     1       5.274   5.485  17.861  0.00  0.00    +0.000 A 
ATOM     14  C   UNL     1       4.902   6.749  17.343  0.00  0.00    +0.000 A 
ATOM     15  C   UNL     1       5.809   7.810  17.250  0.00  0.00    +0.000 A 
ATOM     16  C   UNL     1       7.124   7.622  17.653  0.00  0.00    +0.000 A 
ATOM     17 BR   UNL     1       8.356   9.051  17.544  0.00  0.00    +0.000 Br
ATOM     18  C   UNL     1       7.542   6.381  18.121  0.00  0.00    +0.000 A 
ATOM     19  C   UNL     1       6.628   5.320  18.203  0.00  0.00    +0.000 A 
BRANCH  19  20
ATOM     20  O   UNL     1       7.101   4.108  18.619  0.00  0.00    +0.000 OA
ATOM     21  H   UNL     1       8.069   4.088  18.553  0.00  0.00    +0.000 HD
ENDBRANCH  19  20
ENDBRANCH  11  13
TORSDOF 2
ENDMDL
MODEL 8
REMARK VINA RESULT:      -6.4      3.332      5.282
REMARK  Name = 
REMARK  4 active torsions:
REMARK  status: ('A' for Active; 'I' for Inactive)
REMARK    1  A    between atoms: C_1  and  C_2
REMARK    2  A    between atoms: C_6  and  C_7
REMARK    3  A    between atoms: C_11  and  C_12
REMARK    4  A    between atoms: C_18  and  O_19
REMARK                            x       y       z     vdW  Elec       q    Type
REMARK                         _______ _______ _______ _____ _____    ______ ____
ROOT
ATOM      1  C   UNL     1       6.505   5.691  18.076  0.00  0.00    +0.000 C 
ATOM      2  C   UNL     1       5.110   5.108  18.294  0.00  0.00    +0.000 C 
ATOM      3  C   UNL     1       4.151   5.598  17.199  0.00  0.00    +0.000 C 
ATOM      4  N   UNL     1       2.789   5.106  17.445  0.00  0.00    +0.000 NA
ATOM      5  C   UNL     1       2.771   3.634  17.394  0.00  0.00    +0.000 C 
ATOM      6  C   UNL     1       3.691   3.047  18.482  0.00  0.00    +0.000 C 
ATOM      7  C   UNL     1       3.688   1.517  18.448  0.00  0.00    +0.000 C 
ATOM      8  C   UNL     1       3.163   3.582  19.826  0.00  0.00    +0.000 C 
ATOM      9  N   UNL     1       3.166   5.058  19.839  0.00  0.00    +0.000 NA
ATOM     10  C   UNL     1       4.546   5.547  19.655  0.00  0.00    +0.000 C 
ATOM     11  C   UNL     1       2.284   5.583  18.753  0.00  0.00    +0.000 C 
ATOM     12  C   UNL     1       5.130   3.568  18.257  0.00  0.00    +0.000 C 
ENDROOT
BRANCH  11  13
ATOM     13  C   UNL     1       2.019   7.106  18.883  0.00  0.00    +0.000 A 
ATOM     14  C   UNL     1       2.146   7.910  17.725  0.00  0.00    +0.000 A 
ATOM     15  C   UNL     1       1.909   9.289  17.748  0.00  0.00    +0.000 A 
ATOM     16  C   UNL     1       1.560   9.902  18.942  0.00  0.00    +0.000 A 
ATOM     17 BR   UNL     1       1.224  11.761  18.984  0.00  0.00    +0.000 Br
ATOM     18  C   UNL     1       1.473   9.156  20.113  0.00  0.00    +0.000 A 
ATOM     19  C   UNL     1       1.721   7.775  20.083  0.00  0.00    +0.000 A 
BRANCH  19  20
ATOM     20  O   UNL     1       1.675   7.098  21.268  0.00  0.00    +0.000 OA
ATOM     21  H   UNL     1       0.870   7.337  21.756  0.00  0.00    +0.000 HD
ENDBRANCH  19  20
ENDBRANCH  11  13
TORSDOF 2
ENDMDL
MODEL 9
REMARK VINA RESULT:      -6.2      3.156      5.850
REMARK  Name = 
REMARK  4 active torsions:
REMARK  status: ('A' for Active; 'I' for Inactive)
REMARK    1  A    between atoms: C_1  and  C_2
REMARK    2  A    between atoms: C_6  and  C_7
REMARK    3  A    between atoms: C_11  and  C_12
REMARK    4  A    between atoms: C_18  and  O_19
REMARK                            x       y       z     vdW  Elec       q    Type
REMARK                         _______ _______ _______ _____ _____    ______ ____
ROOT
ATOM      1  C   UNL     1       7.726   6.430  18.591  0.00  0.00    +0.000 C 
ATOM      2  C   UNL     1       6.897   5.769  17.492  0.00  0.00    +0.000 C 
ATOM      3  C   UNL     1       5.499   6.403  17.425  0.00  0.00    +0.000 C 
ATOM      4  N   UNL     1       4.668   5.721  16.425  0.00  0.00    +0.000 NA
ATOM      5  C   UNL     1       5.266   5.873  15.088  0.00  0.00    +0.000 C 
ATOM      6  C   UNL     1       6.669   5.238  15.050  0.00  0.00    +0.000 C 
ATOM      7  C   UNL     1       7.311   5.384  13.669  0.00  0.00    +0.000 C 
ATOM      8  C   UNL     1       6.482   3.757  15.431  0.00  0.00    +0.000 C 
ATOM      9  N   UNL     1       5.855   3.635  16.762  0.00  0.00    +0.000 NA
ATOM     10  C   UNL     1       6.726   4.266  17.773  0.00  0.00    +0.000 C 
ATOM     11  C   UNL     1       4.511   4.287  16.760  0.00  0.00    +0.000 C 
ATOM     12  C   UNL     1       7.560   5.927  16.111  0.00  0.00    +0.000 C 
ENDROOT
BRANCH  11  13
ATOM     13  C   UNL     1       3.684   3.955  18.030  0.00  0.00    +0.000 A 
ATOM     14  C   UNL     1       3.990   2.768  18.738  0.00  0.00    +0.000 A 
ATOM     15  C   UNL     1       3.306   2.400  19.902  0.00  0.00    +0.000 A 
ATOM     16  C   UNL     1       2.278   3.204  20.373  0.00  0.00    +0.000 A 
ATOM     17 BR   UNL     1       1.356   2.725  21.951  0.00  0.00    +0.000 Br
ATOM     18  C   UNL     1       1.913   4.353  19.679  0.00  0.00    +0.000 A 
ATOM     19  C   UNL     1       2.598   4.710  18.508  0.00  0.00    +0.000 A 
BRANCH  19  20
ATOM     20  O   UNL     1       2.166   5.817  17.834  0.00  0.00    +0.000 OA
ATOM     21  H   UNL     1       2.597   5.867  16.966  0.00  0.00    +0.000 HD
ENDBRANCH  19  20
ENDBRANCH  11  13
TORSDOF 2
ENDMDL
