MODEL 1
REMARK VINA RESULT:      -6.3      0.000      0.000
REMARK  Name = 
REMARK  8 active torsions:
REMARK  status: ('A' for Active; 'I' for Inactive)
REMARK    1  A    between atoms: C_1  and  C_2
REMARK    2  A    between atoms: C_2  and  C_3
REMARK    3  A    between atoms: N_5  and  C_6
REMARK    4  A    between atoms: C_6  and  C_7
REMARK    5  A    between atoms: C_7  and  O_8
REMARK    6  A    between atoms: O_8  and  C_9
REMARK    7  A    between atoms: C_9  and  C_10
REMARK    8  A    between atoms: C_21  and  C_22
REMARK                            x       y       z     vdW  Elec       q    Type
REMARK                         _______ _______ _______ _____ _____    ______ ____
ROOT
ATOM      1  C   UNL     1      -5.625  14.056  20.601  0.00  0.00    +0.000 A 
ATOM      2  N   UNL     1      -6.128  13.118  19.791  0.00  0.00    +0.000 NA
ATOM      3  N   UNL     1      -5.045  12.387  19.422  0.00  0.00    +0.000 N 
ATOM      4  C   UNL     1      -3.865  12.852  19.951  0.00  0.00    +0.000 A 
ATOM      5  C   UNL     1      -2.529  12.479  19.924  0.00  0.00    +0.000 A 
ATOM      6  N   UNL     1      -2.042  11.345  19.256  0.00  0.00    +0.000 N 
ATOM      7  C   UNL     1      -0.850  10.669  19.586  0.00  0.00    +0.000 A 
ATOM      8  C   UNL     1      -0.465  10.512  20.919  0.00  0.00    +0.000 A 
ATOM      9  C   UNL     1       0.686   9.797  21.230  0.00  0.00    +0.000 A 
ATOM     10  C   UNL     1       1.429   9.245  20.200  0.00  0.00    +0.000 A 
ATOM     11  C   UNL     1       0.992   9.426  18.891  0.00  0.00    +0.000 A 
ATOM     12  C   UNL     1       1.792   8.861  17.755  0.00  0.00    +0.000 C 
ATOM     13  N   UNL     1      -0.137  10.120  18.576  0.00  0.00    +0.000 NA
ATOM     14  N   UNL     1      -1.682  13.241  20.661  0.00  0.00    +0.000 NA
ATOM     15  C   UNL     1      -2.105  14.270  21.420  0.00  0.00    +0.000 A 
ATOM     16  N   UNL     1      -1.167  14.876  22.241  0.00  0.00    +0.000 N 
ATOM     17  C   UNL     1      -1.641  15.940  23.130  0.00  0.00    +0.000 C 
ATOM     18  C   UNL     1      -0.557  16.226  24.198  0.00  0.00    +0.000 C 
ATOM     19  N   UNL     1       0.765  16.555  23.627  0.00  0.00    +0.000 NA
ATOM     20  C   UNL     1       1.175  15.493  22.684  0.00  0.00    +0.000 C 
ATOM     21  C   UNL     1       0.118  15.175  21.599  0.00  0.00    +0.000 C 
ATOM     22  N   UNL     1      -3.376  14.649  21.487  0.00  0.00    +0.000 NA
ATOM     23  C   UNL     1      -4.230  13.929  20.741  0.00  0.00    +0.000 A 
ATOM     24  H   UNL     1      -2.098  11.410  18.248  0.00  0.00    +0.000 HD
ATOM     25  H   UNL     1       1.447  16.600  24.382  0.00  0.00    +0.000 HD
ENDROOT
BRANCH   1  27
ATOM     26  C   UNL     1      -7.781  15.287  20.438  0.00  0.00    +0.000 C 
ATOM     27  C   UNL     1      -6.493  15.093  21.225  0.00  0.00    +0.000 C 
ENDBRANCH   1  27
BRANCH   3  28
ATOM     28  C   UNL     1      -5.243  11.243  18.543  0.00  0.00    +0.000 C 
BRANCH  28  29
ATOM     29  C   UNL     1      -4.882  11.522  17.079  0.00  0.00    +0.000 C 
BRANCH  29  30
ATOM     30  O   UNL     1      -3.493  11.257  16.835  0.00  0.00    +0.000 OA
BRANCH  30  31
ATOM     31  C   UNL     1      -3.199  11.319  15.424  0.00  0.00    +0.000 C 
BRANCH  31  32
ATOM     32  C   UNL     1      -3.310   9.970  14.706  0.00  0.00    +0.000 C 
ATOM     33  F   UNL     1      -4.531   9.753  14.173  0.00  0.00    +0.000 F 
ATOM     34  F   UNL     1      -2.406   9.888  13.701  0.00  0.00    +0.000 F 
ATOM     35  F   UNL     1      -3.050   8.949  15.558  0.00  0.00    +0.000 F 
ENDBRANCH  31  32
ENDBRANCH  30  31
ENDBRANCH  29  30
ENDBRANCH  28  29
ENDBRANCH   3  28
TORSDOF 6
ENDMDL
MODEL 2
REMARK VINA RESULT:      -6.3      2.639      3.428
REMARK  Name = 
REMARK  8 active torsions:
REMARK  status: ('A' for Active; 'I' for Inactive)
REMARK    1  A    between atoms: C_1  and  C_2
REMARK    2  A    between atoms: C_2  and  C_3
REMARK    3  A    between atoms: N_5  and  C_6
REMARK    4  A    between atoms: C_6  and  C_7
REMARK    5  A    between atoms: C_7  and  O_8
REMARK    6  A    between atoms: O_8  and  C_9
REMARK    7  A    between atoms: C_9  and  C_10
REMARK    8  A    between atoms: C_21  and  C_22
REMARK                            x       y       z     vdW  Elec       q    Type
REMARK                         _______ _______ _______ _____ _____    ______ ____
ROOT
ATOM      1  C   UNL     1      -5.764  11.222  18.726  0.00  0.00    +0.000 A 
ATOM      2  N   UNL     1      -5.362  10.993  17.472  0.00  0.00    +0.000 NA
ATOM      3  N   UNL     1      -4.104  11.499  17.431  0.00  0.00    +0.000 N 
ATOM      4  C   UNL     1      -3.705  12.070  18.615  0.00  0.00    +0.000 A 
ATOM      5  C   UNL     1      -2.560  12.679  19.109  0.00  0.00    +0.000 A 
ATOM      6  N   UNL     1      -1.373  12.834  18.377  0.00  0.00    +0.000 N 
ATOM      7  C   UNL     1      -0.092  12.979  18.946  0.00  0.00    +0.000 A 
ATOM      8  C   UNL     1       0.266  12.261  20.089  0.00  0.00    +0.000 A 
ATOM      9  C   UNL     1       1.551  12.374  20.606  0.00  0.00    +0.000 A 
ATOM     10  C   UNL     1       2.460  13.200  19.966  0.00  0.00    +0.000 A 
ATOM     11  C   UNL     1       2.050  13.884  18.825  0.00  0.00    +0.000 A 
ATOM     12  C   UNL     1       3.006  14.805  18.126  0.00  0.00    +0.000 C 
ATOM     13  N   UNL     1       0.794  13.776  18.306  0.00  0.00    +0.000 NA
ATOM     14  N   UNL     1      -2.605  13.068  20.408  0.00  0.00    +0.000 NA
ATOM     15  C   UNL     1      -3.671  12.839  21.198  0.00  0.00    +0.000 A 
ATOM     16  N   UNL     1      -3.538  13.151  22.543  0.00  0.00    +0.000 N 
ATOM     17  C   UNL     1      -4.665  12.825  23.422  0.00  0.00    +0.000 C 
ATOM     18  C   UNL     1      -4.195  12.903  24.895  0.00  0.00    +0.000 C 
ATOM     19  N   UNL     1      -3.592  14.203  25.256  0.00  0.00    +0.000 NA
ATOM     20  C   UNL     1      -2.508  14.527  24.305  0.00  0.00    +0.000 C 
ATOM     21  C   UNL     1      -2.936  14.460  22.820  0.00  0.00    +0.000 C 
ATOM     22  N   UNL     1      -4.779  12.246  20.771  0.00  0.00    +0.000 NA
ATOM     23  C   UNL     1      -4.770  11.878  19.478  0.00  0.00    +0.000 A 
ATOM     24  H   UNL     1      -1.452  13.487  17.607  0.00  0.00    +0.000 HD
ATOM     25  H   UNL     1      -3.194  14.131  26.191  0.00  0.00    +0.000 HD
ENDROOT
BRANCH   1  27
ATOM     26  C   UNL     1      -7.139   9.389  19.693  0.00  0.00    +0.000 C 
ATOM     27  C   UNL     1      -7.121  10.826  19.195  0.00  0.00    +0.000 C 
ENDBRANCH   1  27
BRANCH   3  28
ATOM     28  C   UNL     1      -3.348  11.388  16.191  0.00  0.00    +0.000 C 
BRANCH  28  29
ATOM     29  C   UNL     1      -2.733  10.000  15.968  0.00  0.00    +0.000 C 
BRANCH  29  30
ATOM     30  O   UNL     1      -2.846   9.607  14.592  0.00  0.00    +0.000 OA
BRANCH  30  31
ATOM     31  C   UNL     1      -3.952  10.280  13.956  0.00  0.00    +0.000 C 
BRANCH  31  32
ATOM     32  C   UNL     1      -4.236   9.798  12.529  0.00  0.00    +0.000 C 
ATOM     33  F   UNL     1      -4.631  10.791  11.704  0.00  0.00    +0.000 F 
ATOM     34  F   UNL     1      -3.130   9.234  11.987  0.00  0.00    +0.000 F 
ATOM     35  F   UNL     1      -5.207   8.854  12.525  0.00  0.00    +0.000 F 
ENDBRANCH  31  32
ENDBRANCH  30  31
ENDBRANCH  29  30
ENDBRANCH  28  29
ENDBRANCH   3  28
TORSDOF 6
ENDMDL
MODEL 3
REMARK VINA RESULT:      -6.2      2.947      4.736
REMARK  Name = 
REMARK  8 active torsions:
REMARK  status: ('A' for Active; 'I' for Inactive)
REMARK    1  A    between atoms: C_1  and  C_2
REMARK    2  A    between atoms: C_2  and  C_3
REMARK    3  A    between atoms: N_5  and  C_6
REMARK    4  A    between atoms: C_6  and  C_7
REMARK    5  A    between atoms: C_7  and  O_8
REMARK    6  A    between atoms: O_8  and  C_9
REMARK    7  A    between atoms: C_9  and  C_10
REMARK    8  A    between atoms: C_21  and  C_22
REMARK                            x       y       z     vdW  Elec       q    Type
REMARK                         _______ _______ _______ _____ _____    ______ ____
ROOT
ATOM      1  C   UNL     1      -1.886  14.996  24.879  0.00  0.00    +0.000 A 
ATOM      2  N   UNL     1      -3.003  14.263  24.942  0.00  0.00    +0.000 NA
ATOM      3  N   UNL     1      -2.994  13.548  23.789  0.00  0.00    +0.000 N 
ATOM      4  C   UNL     1      -1.917  13.827  22.981  0.00  0.00    +0.000 A 
ATOM      5  C   UNL     1      -1.425  13.380  21.763  0.00  0.00    +0.000 A 
ATOM      6  N   UNL     1      -2.019  12.365  20.998  0.00  0.00    +0.000 N 
ATOM      7  C   UNL     1      -1.338  11.564  20.060  0.00  0.00    +0.000 A 
ATOM      8  C   UNL     1      -0.033  11.132  20.304  0.00  0.00    +0.000 A 
ATOM      9  C   UNL     1       0.605  10.299  19.393  0.00  0.00    +0.000 A 
ATOM     10  C   UNL     1      -0.078   9.905  18.254  0.00  0.00    +0.000 A 
ATOM     11  C   UNL     1      -1.380  10.360  18.067  0.00  0.00    +0.000 A 
ATOM     12  C   UNL     1      -2.133   9.971  16.830  0.00  0.00    +0.000 C 
ATOM     13  N   UNL     1      -2.017  11.173  18.957  0.00  0.00    +0.000 NA
ATOM     14  N   UNL     1      -0.254  13.932  21.355  0.00  0.00    +0.000 NA
ATOM     15  C   UNL     1       0.427  14.823  22.100  0.00  0.00    +0.000 A 
ATOM     16  N   UNL     1       1.680  15.201  21.642  0.00  0.00    +0.000 N 
ATOM     17  C   UNL     1       2.461  16.105  22.493  0.00  0.00    +0.000 C 
ATOM     18  C   UNL     1       3.930  16.112  22.006  0.00  0.00    +0.000 C 
ATOM     19  N   UNL     1       4.080  16.458  20.578  0.00  0.00    +0.000 NA
ATOM     20  C   UNL     1       3.224  15.571  19.761  0.00  0.00    +0.000 C 
ATOM     21  C   UNL     1       1.746  15.533  20.215  0.00  0.00    +0.000 C 
ATOM     22  N   UNL     1       0.000  15.264  23.278  0.00  0.00    +0.000 NA
ATOM     23  C   UNL     1      -1.173  14.755  23.689  0.00  0.00    +0.000 A 
ATOM     24  H   UNL     1      -2.913  12.625  20.601  0.00  0.00    +0.000 HD
ATOM     25  H   UNL     1       5.051  16.315  20.305  0.00  0.00    +0.000 HD
ENDROOT
BRANCH   1  27
ATOM     26  C   UNL     1      -1.983  17.361  25.642  0.00  0.00    +0.000 C 
ATOM     27  C   UNL     1      -1.518  15.949  25.963  0.00  0.00    +0.000 C 
ENDBRANCH   1  27
BRANCH   3  28
ATOM     28  C   UNL     1      -4.077  12.606  23.543  0.00  0.00    +0.000 C 
BRANCH  28  29
ATOM     29  C   UNL     1      -5.200  13.177  22.666  0.00  0.00    +0.000 C 
BRANCH  29  30
ATOM     30  O   UNL     1      -6.227  12.198  22.452  0.00  0.00    +0.000 OA
BRANCH  30  31
ATOM     31  C   UNL     1      -7.014  12.527  21.289  0.00  0.00    +0.000 C 
BRANCH  31  32
ATOM     32  C   UNL     1      -6.846  11.544  20.125  0.00  0.00    +0.000 C 
ATOM     33  F   UNL     1      -7.129  10.269  20.465  0.00  0.00    +0.000 F 
ATOM     34  F   UNL     1      -7.658  11.880  19.094  0.00  0.00    +0.000 F 
ATOM     35  F   UNL     1      -5.576  11.569  19.655  0.00  0.00    +0.000 F 
ENDBRANCH  31  32
ENDBRANCH  30  31
ENDBRANCH  29  30
ENDBRANCH  28  29
ENDBRANCH   3  28
TORSDOF 6
ENDMDL
MODEL 4
REMARK VINA RESULT:      -6.1      1.001      1.240
REMARK  Name = 
REMARK  8 active torsions:
REMARK  status: ('A' for Active; 'I' for Inactive)
REMARK    1  A    between atoms: C_1  and  C_2
REMARK    2  A    between atoms: C_2  and  C_3
REMARK    3  A    between atoms: N_5  and  C_6
REMARK    4  A    between atoms: C_6  and  C_7
REMARK    5  A    between atoms: C_7  and  O_8
REMARK    6  A    between atoms: O_8  and  C_9
REMARK    7  A    between atoms: C_9  and  C_10
REMARK    8  A    between atoms: C_21  and  C_22
REMARK                            x       y       z     vdW  Elec       q    Type
REMARK                         _______ _______ _______ _____ _____    ______ ____
ROOT
ATOM      1  C   UNL     1      -6.117  14.231  21.185  0.00  0.00    +0.000 A 
ATOM      2  N   UNL     1      -6.630  13.245  20.441  0.00  0.00    +0.000 NA
ATOM      3  N   UNL     1      -5.543  12.563  20.001  0.00  0.00    +0.000 N 
ATOM      4  C   UNL     1      -4.351  13.105  20.419  0.00  0.00    +0.000 A 
ATOM      5  C   UNL     1      -3.003  12.804  20.290  0.00  0.00    +0.000 A 
ATOM      6  N   UNL     1      -2.509  11.680  19.611  0.00  0.00    +0.000 N 
ATOM      7  C   UNL     1      -1.259  11.078  19.857  0.00  0.00    +0.000 A 
ATOM      8  C   UNL     1      -0.758  10.979  21.156  0.00  0.00    +0.000 A 
ATOM      9  C   UNL     1       0.452  10.336  21.387  0.00  0.00    +0.000 A 
ATOM     10  C   UNL     1       1.139   9.796  20.312  0.00  0.00    +0.000 A 
ATOM     11  C   UNL     1       0.587   9.917  19.040  0.00  0.00    +0.000 A 
ATOM     12  C   UNL     1       1.322   9.364  17.855  0.00  0.00    +0.000 C 
ATOM     13  N   UNL     1      -0.601  10.541  18.803  0.00  0.00    +0.000 NA
ATOM     14  N   UNL     1      -2.143  13.630  20.937  0.00  0.00    +0.000 NA
ATOM     15  C   UNL     1      -2.559  14.656  21.704  0.00  0.00    +0.000 A 
ATOM     16  N   UNL     1      -1.592  15.334  22.430  0.00  0.00    +0.000 N 
ATOM     17  C   UNL     1      -2.051  16.396  23.331  0.00  0.00    +0.000 C 
ATOM     18  C   UNL     1      -0.901  16.769  24.298  0.00  0.00    +0.000 C 
ATOM     19  N   UNL     1       0.350  17.152  23.611  0.00  0.00    +0.000 NA
ATOM     20  C   UNL     1       0.740  16.088  22.662  0.00  0.00    +0.000 C 
ATOM     21  C   UNL     1      -0.382  15.684  21.677  0.00  0.00    +0.000 C 
ATOM     22  N   UNL     1      -3.839  14.969  21.868  0.00  0.00    +0.000 NA
ATOM     23  C   UNL     1      -4.710  14.183  21.211  0.00  0.00    +0.000 A 
ATOM     24  H   UNL     1      -2.651  11.714  18.609  0.00  0.00    +0.000 HD
ATOM     25  H   UNL     1       1.087  17.255  24.307  0.00  0.00    +0.000 HD
ENDROOT
BRANCH   1  27
ATOM     26  C   UNL     1      -7.831  14.600  22.949  0.00  0.00    +0.000 C 
ATOM     27  C   UNL     1      -6.987  15.237  21.854  0.00  0.00    +0.000 C 
ENDBRANCH   1  27
BRANCH   3  28
ATOM     28  C   UNL     1      -5.747  11.386  19.169  0.00  0.00    +0.000 C 
BRANCH  28  29
ATOM     29  C   UNL     1      -5.794  11.696  17.667  0.00  0.00    +0.000 C 
BRANCH  29  30
ATOM     30  O   UNL     1      -4.473  11.909  17.148  0.00  0.00    +0.000 OA
BRANCH  30  31
ATOM     31  C   UNL     1      -4.249  11.104  15.972  0.00  0.00    +0.000 C 
BRANCH  31  32
ATOM     32  C   UNL     1      -2.816  10.576  15.845  0.00  0.00    +0.000 C 
ATOM     33  F   UNL     1      -1.882  11.493  16.175  0.00  0.00    +0.000 F 
ATOM     34  F   UNL     1      -2.630   9.499  16.646  0.00  0.00    +0.000 F 
ATOM     35  F   UNL     1      -2.562  10.174  14.576  0.00  0.00    +0.000 F 
ENDBRANCH  31  32
ENDBRANCH  30  31
ENDBRANCH  29  30
ENDBRANCH  28  29
ENDBRANCH   3  28
TORSDOF 6
ENDMDL
MODEL 5
REMARK VINA RESULT:      -6.1      2.600      4.110
REMARK  Name = 
REMARK  8 active torsions:
REMARK  status: ('A' for Active; 'I' for Inactive)
REMARK    1  A    between atoms: C_1  and  C_2
REMARK    2  A    between atoms: C_2  and  C_3
REMARK    3  A    between atoms: N_5  and  C_6
REMARK    4  A    between atoms: C_6  and  C_7
REMARK    5  A    between atoms: C_7  and  O_8
REMARK    6  A    between atoms: O_8  and  C_9
REMARK    7  A    between atoms: C_9  and  C_10
REMARK    8  A    between atoms: C_21  and  C_22
REMARK                            x       y       z     vdW  Elec       q    Type
REMARK                         _______ _______ _______ _____ _____    ______ ____
ROOT
ATOM      1  C   UNL     1      -3.010  15.473  23.373  0.00  0.00    +0.000 A 
ATOM      2  N   UNL     1      -4.274  15.081  23.181  0.00  0.00    +0.000 NA
ATOM      3  N   UNL     1      -4.220  14.341  22.044  0.00  0.00    +0.000 N 
ATOM      4  C   UNL     1      -2.963  14.275  21.493  0.00  0.00    +0.000 A 
ATOM      5  C   UNL     1      -2.369  13.657  20.402  0.00  0.00    +0.000 A 
ATOM      6  N   UNL     1      -3.046  12.814  19.510  0.00  0.00    +0.000 N 
ATOM      7  C   UNL     1      -2.434  11.815  18.726  0.00  0.00    +0.000 A 
ATOM      8  C   UNL     1      -1.384  11.050  19.239  0.00  0.00    +0.000 A 
ATOM      9  C   UNL     1      -0.826  10.034  18.473  0.00  0.00    +0.000 A 
ATOM     10  C   UNL     1      -1.334   9.795  17.206  0.00  0.00    +0.000 A 
ATOM     11  C   UNL     1      -2.387  10.583  16.751  0.00  0.00    +0.000 A 
ATOM     12  C   UNL     1      -2.938  10.363  15.374  0.00  0.00    +0.000 C 
ATOM     13  N   UNL     1      -2.945  11.579  17.496  0.00  0.00    +0.000 NA
ATOM     14  N   UNL     1      -1.031  13.846  20.266  0.00  0.00    +0.000 NA
ATOM     15  C   UNL     1      -0.302  14.545  21.156  0.00  0.00    +0.000 A 
ATOM     16  N   UNL     1       1.074  14.541  20.987  0.00  0.00    +0.000 N 
ATOM     17  C   UNL     1       1.877  15.231  22.001  0.00  0.00    +0.000 C 
ATOM     18  C   UNL     1       3.358  14.810  21.843  0.00  0.00    +0.000 C 
ATOM     19  N   UNL     1       3.898  15.039  20.487  0.00  0.00    +0.000 NA
ATOM     20  C   UNL     1       3.022  14.387  19.490  0.00  0.00    +0.000 C 
ATOM     21  C   UNL     1       1.531  14.780  19.613  0.00  0.00    +0.000 C 
ATOM     22  N   UNL     1      -0.829  15.138  22.222  0.00  0.00    +0.000 NA
ATOM     23  C   UNL     1      -2.157  14.992  22.361  0.00  0.00    +0.000 A 
ATOM     24  H   UNL     1      -3.727  13.292  18.934  0.00  0.00    +0.000 HD
ATOM     25  H   UNL     1       4.825  14.621  20.428  0.00  0.00    +0.000 HD
ENDROOT
BRANCH   1  27
ATOM     26  C   UNL     1      -3.842  17.027  25.128  0.00  0.00    +0.000 C 
ATOM     27  C   UNL     1      -2.628  16.333  24.527  0.00  0.00    +0.000 C 
ENDBRANCH   1  27
BRANCH   3  28
ATOM     28  C   UNL     1      -5.445  13.725  21.554  0.00  0.00    +0.000 C 
BRANCH  28  29
ATOM     29  C   UNL     1      -6.023  14.413  20.310  0.00  0.00    +0.000 C 
BRANCH  29  30
ATOM     30  O   UNL     1      -5.944  13.550  19.167  0.00  0.00    +0.000 OA
BRANCH  30  31
ATOM     31  C   UNL     1      -7.129  12.734  19.057  0.00  0.00    +0.000 C 
BRANCH  31  32
ATOM     32  C   UNL     1      -6.866  11.232  19.203  0.00  0.00    +0.000 C 
ATOM     33  F   UNL     1      -7.476  10.690  20.279  0.00  0.00    +0.000 F 
ATOM     34  F   UNL     1      -7.301  10.561  18.109  0.00  0.00    +0.000 F 
ATOM     35  F   UNL     1      -5.539  10.985  19.319  0.00  0.00    +0.000 F 
ENDBRANCH  31  32
ENDBRANCH  30  31
ENDBRANCH  29  30
ENDBRANCH  28  29
ENDBRANCH   3  28
TORSDOF 6
ENDMDL
MODEL 6
REMARK VINA RESULT:      -6.0      9.947     12.379
REMARK  Name = 
REMARK  8 active torsions:
REMARK  status: ('A' for Active; 'I' for Inactive)
REMARK    1  A    between atoms: C_1  and  C_2
REMARK    2  A    between atoms: C_2  and  C_3
REMARK    3  A    between atoms: N_5  and  C_6
REMARK    4  A    between atoms: C_6  and  C_7
REMARK    5  A    between atoms: C_7  and  O_8
REMARK    6  A    between atoms: O_8  and  C_9
REMARK    7  A    between atoms: C_9  and  C_10
REMARK    8  A    between atoms: C_21  and  C_22
REMARK                            x       y       z     vdW  Elec       q    Type
REMARK                         _______ _______ _______ _____ _____    ______ ____
ROOT
ATOM      1  C   UNL     1      10.758  12.528  17.908  0.00  0.00    +0.000 A 
ATOM      2  N   UNL     1      10.300  11.273  17.863  0.00  0.00    +0.000 NA
ATOM      3  N   UNL     1       9.675  11.106  19.056  0.00  0.00    +0.000 N 
ATOM      4  C   UNL     1       9.749  12.210  19.871  0.00  0.00    +0.000 A 
ATOM      5  C   UNL     1       9.279  12.575  21.124  0.00  0.00    +0.000 A 
ATOM      6  N   UNL     1       8.478  11.755  21.934  0.00  0.00    +0.000 N 
ATOM      7  C   UNL     1       7.602  12.223  22.934  0.00  0.00    +0.000 A 
ATOM      8  C   UNL     1       6.866  13.395  22.746  0.00  0.00    +0.000 A 
ATOM      9  C   UNL     1       5.968  13.815  23.719  0.00  0.00    +0.000 A 
ATOM     10  C   UNL     1       5.815  13.049  24.863  0.00  0.00    +0.000 A 
ATOM     11  C   UNL     1       6.568  11.886  24.992  0.00  0.00    +0.000 A 
ATOM     12  C   UNL     1       6.441  11.052  26.232  0.00  0.00    +0.000 C 
ATOM     13  N   UNL     1       7.448  11.462  24.042  0.00  0.00    +0.000 NA
ATOM     14  N   UNL     1       9.571  13.838  21.527  0.00  0.00    +0.000 NA
ATOM     15  C   UNL     1      10.232  14.713  20.746  0.00  0.00    +0.000 A 
ATOM     16  N   UNL     1      10.339  16.016  21.210  0.00  0.00    +0.000 N 
ATOM     17  C   UNL     1      10.983  16.992  20.326  0.00  0.00    +0.000 C 
ATOM     18  C   UNL     1      10.683  18.419  20.846  0.00  0.00    +0.000 C 
ATOM     19  N   UNL     1      11.074  18.631  22.255  0.00  0.00    +0.000 NA
ATOM     20  C   UNL     1      10.461  17.586  23.102  0.00  0.00    +0.000 C 
ATOM     21  C   UNL     1      10.736  16.143  22.617  0.00  0.00    +0.000 C 
ATOM     22  N   UNL     1      10.684  14.411  19.535  0.00  0.00    +0.000 NA
ATOM     23  C   UNL     1      10.434  13.155  19.127  0.00  0.00    +0.000 A 
ATOM     24  H   UNL     1       8.961  10.941  22.294  0.00  0.00    +0.000 HD
ATOM     25  H   UNL     1      10.729  19.540  22.558  0.00  0.00    +0.000 HD
ENDROOT
BRANCH   1  27
ATOM     26  C   UNL     1      12.333  14.329  17.228  0.00  0.00    +0.000 C 
ATOM     27  C   UNL     1      11.530  13.117  16.779  0.00  0.00    +0.000 C 
ENDBRANCH   1  27
BRANCH   3  28
ATOM     28  C   UNL     1       9.026   9.832  19.332  0.00  0.00    +0.000 C 
BRANCH  28  29
ATOM     29  C   UNL     1       8.336   9.216  18.108  0.00  0.00    +0.000 C 
BRANCH  29  30
ATOM     30  O   UNL     1       8.188   7.798  18.265  0.00  0.00    +0.000 OA
BRANCH  30  31
ATOM     31  C   UNL     1       7.544   7.218  17.111  0.00  0.00    +0.000 C 
BRANCH  31  32
ATOM     32  C   UNL     1       6.200   6.550  17.419  0.00  0.00    +0.000 C 
ATOM     33  F   UNL     1       5.154   7.397  17.324  0.00  0.00    +0.000 F 
ATOM     34  F   UNL     1       5.971   5.523  16.565  0.00  0.00    +0.000 F 
ATOM     35  F   UNL     1       6.195   6.034  18.671  0.00  0.00    +0.000 F 
ENDBRANCH  31  32
ENDBRANCH  30  31
ENDBRANCH  29  30
ENDBRANCH  28  29
ENDBRANCH   3  28
TORSDOF 6
ENDMDL
MODEL 7
REMARK VINA RESULT:      -6.0      3.122      5.003
REMARK  Name = 
REMARK  8 active torsions:
REMARK  status: ('A' for Active; 'I' for Inactive)
REMARK    1  A    between atoms: C_1  and  C_2
REMARK    2  A    between atoms: C_2  and  C_3
REMARK    3  A    between atoms: N_5  and  C_6
REMARK    4  A    between atoms: C_6  and  C_7
REMARK    5  A    between atoms: C_7  and  O_8
REMARK    6  A    between atoms: O_8  and  C_9
REMARK    7  A    between atoms: C_9  and  C_10
REMARK    8  A    between atoms: C_21  and  C_22
REMARK                            x       y       z     vdW  Elec       q    Type
REMARK                         _______ _______ _______ _____ _____    ______ ____
ROOT
ATOM      1  C   UNL     1      -1.674  15.796  23.380  0.00  0.00    +0.000 A 
ATOM      2  N   UNL     1      -2.968  15.471  23.476  0.00  0.00    +0.000 NA
ATOM      3  N   UNL     1      -3.197  14.700  22.383  0.00  0.00    +0.000 N 
ATOM      4  C   UNL     1      -2.093  14.551  21.579  0.00  0.00    +0.000 A 
ATOM      5  C   UNL     1      -1.778  13.873  20.409  0.00  0.00    +0.000 A 
ATOM      6  N   UNL     1      -2.673  13.047  19.714  0.00  0.00    +0.000 N 
ATOM      7  C   UNL     1      -2.293  11.996  18.855  0.00  0.00    +0.000 A 
ATOM      8  C   UNL     1      -1.197  11.186  19.159  0.00  0.00    +0.000 A 
ATOM      9  C   UNL     1      -0.868  10.122  18.329  0.00  0.00    +0.000 A 
ATOM     10  C   UNL     1      -1.648   9.880  17.209  0.00  0.00    +0.000 A 
ATOM     11  C   UNL     1      -2.734  10.714  16.962  0.00  0.00    +0.000 A 
ATOM     12  C   UNL     1      -3.580  10.491  15.743  0.00  0.00    +0.000 C 
ATOM     13  N   UNL     1      -3.069  11.757  17.771  0.00  0.00    +0.000 NA
ATOM     14  N   UNL     1      -0.494  13.983  19.983  0.00  0.00    +0.000 NA
ATOM     15  C   UNL     1       0.443  14.663  20.671  0.00  0.00    +0.000 A 
ATOM     16  N   UNL     1       1.748  14.577  20.211  0.00  0.00    +0.000 N 
ATOM     17  C   UNL     1       2.784  15.246  21.005  0.00  0.00    +0.000 C 
ATOM     18  C   UNL     1       4.174  14.740  20.549  0.00  0.00    +0.000 C 
ATOM     19  N   UNL     1       4.419  14.903  19.101  0.00  0.00    +0.000 NA
ATOM     20  C   UNL     1       3.318  14.277  18.339  0.00  0.00    +0.000 C 
ATOM     21  C   UNL     1       1.910  14.755  18.764  0.00  0.00    +0.000 C 
ATOM     22  N   UNL     1       0.188  15.311  21.802  0.00  0.00    +0.000 NA
ATOM     23  C   UNL     1      -1.084  15.243  22.227  0.00  0.00    +0.000 A 
ATOM     24  H   UNL     1      -3.438  13.548  19.279  0.00  0.00    +0.000 HD
ATOM     25  H   UNL     1       5.290  14.433  18.861  0.00  0.00    +0.000 HD
ENDROOT
BRANCH   1  27
ATOM     26  C   UNL     1      -0.891  18.098  23.903  0.00  0.00    +0.000 C 
ATOM     27  C   UNL     1      -1.011  16.662  24.393  0.00  0.00    +0.000 C 
ENDBRANCH   1  27
BRANCH   3  28
ATOM     28  C   UNL     1      -4.528  14.142  22.189  0.00  0.00    +0.000 C 
BRANCH  28  29
ATOM     29  C   UNL     1      -4.823  12.931  23.083  0.00  0.00    +0.000 C 
BRANCH  29  30
ATOM     30  O   UNL     1      -6.032  12.276  22.672  0.00  0.00    +0.000 OA
BRANCH  30  31
ATOM     31  C   UNL     1      -6.535  12.849  21.448  0.00  0.00    +0.000 C 
BRANCH  31  32
ATOM     32  C   UNL     1      -6.757  11.826  20.328  0.00  0.00    +0.000 C 
ATOM     33  F   UNL     1      -7.663  12.232  19.413  0.00  0.00    +0.000 F 
ATOM     34  F   UNL     1      -5.599  11.576  19.672  0.00  0.00    +0.000 F 
ATOM     35  F   UNL     1      -7.190  10.646  20.833  0.00  0.00    +0.000 F 
ENDBRANCH  31  32
ENDBRANCH  30  31
ENDBRANCH  29  30
ENDBRANCH  28  29
ENDBRANCH   3  28
TORSDOF 6
ENDMDL
MODEL 8
REMARK VINA RESULT:      -6.0      3.453      6.528
REMARK  Name = 
REMARK  8 active torsions:
REMARK  status: ('A' for Active; 'I' for Inactive)
REMARK    1  A    between atoms: C_1  and  C_2
REMARK    2  A    between atoms: C_2  and  C_3
REMARK    3  A    between atoms: N_5  and  C_6
REMARK    4  A    between atoms: C_6  and  C_7
REMARK    5  A    between atoms: C_7  and  O_8
REMARK    6  A    between atoms: O_8  and  C_9
REMARK    7  A    between atoms: C_9  and  C_10
REMARK    8  A    between atoms: C_21  and  C_22
REMARK                            x       y       z     vdW  Elec       q    Type
REMARK                         _______ _______ _______ _____ _____    ______ ____
ROOT
ATOM      1  C   UNL     1       1.383  10.596  18.352  0.00  0.00    +0.000 A 
ATOM      2  N   UNL     1       0.100  10.268  18.537  0.00  0.00    +0.000 NA
ATOM      3  N   UNL     1      -0.485  11.430  18.925  0.00  0.00    +0.000 N 
ATOM      4  C   UNL     1       0.396  12.480  19.020  0.00  0.00    +0.000 A 
ATOM      5  C   UNL     1       0.329  13.831  19.329  0.00  0.00    +0.000 A 
ATOM      6  N   UNL     1      -0.861  14.510  19.633  0.00  0.00    +0.000 N 
ATOM      7  C   UNL     1      -1.057  15.897  19.471  0.00  0.00    +0.000 A 
ATOM      8  C   UNL     1      -0.510  16.572  18.378  0.00  0.00    +0.000 A 
ATOM      9  C   UNL     1      -0.757  17.928  18.204  0.00  0.00    +0.000 A 
ATOM     10  C   UNL     1      -1.556  18.586  19.125  0.00  0.00    +0.000 A 
ATOM     11  C   UNL     1      -2.082  17.860  20.190  0.00  0.00    +0.000 A 
ATOM     12  C   UNL     1      -2.929  18.553  21.216  0.00  0.00    +0.000 C 
ATOM     13  N   UNL     1      -1.850  16.529  20.366  0.00  0.00    +0.000 NA
ATOM     14  N   UNL     1       1.496  14.520  19.251  0.00  0.00    +0.000 NA
ATOM     15  C   UNL     1       2.648  13.952  18.849  0.00  0.00    +0.000 A 
ATOM     16  N   UNL     1       3.736  14.792  18.668  0.00  0.00    +0.000 N 
ATOM     17  C   UNL     1       4.969  14.191  18.150  0.00  0.00    +0.000 C 
ATOM     18  C   UNL     1       5.921  15.318  17.680  0.00  0.00    +0.000 C 
ATOM     19  N   UNL     1       6.211  16.322  18.724  0.00  0.00    +0.000 NA
ATOM     20  C   UNL     1       4.943  16.851  19.268  0.00  0.00    +0.000 C 
ATOM     21  C   UNL     1       3.962  15.757  19.750  0.00  0.00    +0.000 C 
ATOM     22  N   UNL     1       2.753  12.667  18.529  0.00  0.00    +0.000 NA
ATOM     23  C   UNL     1       1.617  11.957  18.628  0.00  0.00    +0.000 A 
ATOM     24  H   UNL     1      -1.274  14.235  20.515  0.00  0.00    +0.000 HD
ATOM     25  H   UNL     1       6.732  17.091  18.304  0.00  0.00    +0.000 HD
ENDROOT
BRANCH   1  27
ATOM     26  C   UNL     1       2.020   8.193  18.411  0.00  0.00    +0.000 C 
ATOM     27  C   UNL     1       2.392   9.586  17.927  0.00  0.00    +0.000 C 
ENDBRANCH   1  27
BRANCH   3  28
ATOM     28  C   UNL     1      -1.917  11.436  19.187  0.00  0.00    +0.000 C 
BRANCH  28  29
ATOM     29  C   UNL     1      -2.758  11.918  17.998  0.00  0.00    +0.000 C 
BRANCH  29  30
ATOM     30  O   UNL     1      -3.945  11.125  17.858  0.00  0.00    +0.000 OA
BRANCH  30  31
ATOM     31  C   UNL     1      -4.431  11.165  16.500  0.00  0.00    +0.000 C 
BRANCH  31  32
ATOM     32  C   UNL     1      -3.584  10.355  15.512  0.00  0.00    +0.000 C 
ATOM     33  F   UNL     1      -4.281   9.940  14.434  0.00  0.00    +0.000 F 
ATOM     34  F   UNL     1      -2.539  11.092  15.063  0.00  0.00    +0.000 F 
ATOM     35  F   UNL     1      -3.066   9.256  16.111  0.00  0.00    +0.000 F 
ENDBRANCH  31  32
ENDBRANCH  30  31
ENDBRANCH  29  30
ENDBRANCH  28  29
ENDBRANCH   3  28
TORSDOF 6
ENDMDL
MODEL 9
REMARK VINA RESULT:      -5.9      2.871      3.750
REMARK  Name = 
REMARK  8 active torsions:
REMARK  status: ('A' for Active; 'I' for Inactive)
REMARK    1  A    between atoms: C_1  and  C_2
REMARK    2  A    between atoms: C_2  and  C_3
REMARK    3  A    between atoms: N_5  and  C_6
REMARK    4  A    between atoms: C_6  and  C_7
REMARK    5  A    between atoms: C_7  and  O_8
REMARK    6  A    between atoms: O_8  and  C_9
REMARK    7  A    between atoms: C_9  and  C_10
REMARK    8  A    between atoms: C_21  and  C_22
REMARK                            x       y       z     vdW  Elec       q    Type
REMARK                         _______ _______ _______ _____ _____    ______ ____
ROOT
ATOM      1  C   UNL     1      -5.435  11.494  19.382  0.00  0.00    +0.000 A 
ATOM      2  N   UNL     1      -5.084  11.043  18.173  0.00  0.00    +0.000 NA
ATOM      3  N   UNL     1      -3.829  11.526  17.992  0.00  0.00    +0.000 N 
ATOM      4  C   UNL     1      -3.383  12.296  19.039  0.00  0.00    +0.000 A 
ATOM      5  C   UNL     1      -2.220  12.976  19.370  0.00  0.00    +0.000 A 
ATOM      6  N   UNL     1      -1.064  12.992  18.575  0.00  0.00    +0.000 N 
ATOM      7  C   UNL     1       0.239  13.227  19.057  0.00  0.00    +0.000 A 
ATOM      8  C   UNL     1       0.645  12.722  20.294  0.00  0.00    +0.000 A 
ATOM      9  C   UNL     1       1.949  12.918  20.731  0.00  0.00    +0.000 A 
ATOM     10  C   UNL     1       2.830  13.611  19.918  0.00  0.00    +0.000 A 
ATOM     11  C   UNL     1       2.373  14.084  18.692  0.00  0.00    +0.000 A 
ATOM     12  C   UNL     1       3.299  14.861  17.803  0.00  0.00    +0.000 C 
ATOM     13  N   UNL     1       1.098  13.893  18.251  0.00  0.00    +0.000 NA
ATOM     14  N   UNL     1      -2.212  13.590  20.580  0.00  0.00    +0.000 NA
ATOM     15  C   UNL     1      -3.245  13.511  21.441  0.00  0.00    +0.000 A 
ATOM     16  N   UNL     1      -3.057  14.056  22.702  0.00  0.00    +0.000 N 
ATOM     17  C   UNL     1      -4.148  13.898  23.670  0.00  0.00    +0.000 C 
ATOM     18  C   UNL     1      -3.618  14.234  25.085  0.00  0.00    +0.000 C 
ATOM     19  N   UNL     1      -3.003  15.573  25.186  0.00  0.00    +0.000 NA
ATOM     20  C   UNL     1      -1.959  15.717  24.149  0.00  0.00    +0.000 C 
ATOM     21  C   UNL     1      -2.446  15.390  22.718  0.00  0.00    +0.000 C 
ATOM     22  N   UNL     1      -4.369  12.858  21.171  0.00  0.00    +0.000 NA
ATOM     23  C   UNL     1      -4.412  12.267  19.965  0.00  0.00    +0.000 A 
ATOM     24  H   UNL     1      -1.174  13.499  17.706  0.00  0.00    +0.000 HD
ATOM     25  H   UNL     1      -2.567  15.666  26.102  0.00  0.00    +0.000 HD
ENDROOT
BRANCH   1  27
ATOM     26  C   UNL     1      -7.654  12.434  19.996  0.00  0.00    +0.000 C 
ATOM     27  C   UNL     1      -6.771  11.195  19.968  0.00  0.00    +0.000 C 
ENDBRANCH   1  27
BRANCH   3  28
ATOM     28  C   UNL     1      -3.124  11.193  16.762  0.00  0.00    +0.000 C 
BRANCH  28  29
ATOM     29  C   UNL     1      -2.176   9.994  16.902  0.00  0.00    +0.000 C 
BRANCH  29  30
ATOM     30  O   UNL     1      -0.874  10.419  17.330  0.00  0.00    +0.000 OA
BRANCH  30  31
ATOM     31  C   UNL     1      -0.304   9.472  18.256  0.00  0.00    +0.000 C 
BRANCH  31  32
ATOM     32  C   UNL     1       1.228   9.488  18.297  0.00  0.00    +0.000 C 
ATOM     33  F   UNL     1       1.761  10.599  17.747  0.00  0.00    +0.000 F 
ATOM     34  F   UNL     1       1.673   9.413  19.574  0.00  0.00    +0.000 F 
ATOM     35  F   UNL     1       1.738   8.421  17.636  0.00  0.00    +0.000 F 
ENDBRANCH  31  32
ENDBRANCH  30  31
ENDBRANCH  29  30
ENDBRANCH  28  29
ENDBRANCH   3  28
TORSDOF 6
ENDMDL
