MODEL 1
REMARK VINA RESULT:      -6.9      0.000      0.000
REMARK  Name = 
REMARK  11 active torsions:
REMARK  status: ('A' for Active; 'I' for Inactive)
REMARK    1  A    between atoms: C_1  and  O_2
REMARK    2  A    between atoms: O_2  and  C_3
REMARK    3  A    between atoms: C_6  and  O_7
REMARK    4  A    between atoms: O_7  and  C_8
REMARK    5  A    between atoms: C_9  and  C_10
REMARK    6  A    between atoms: C_10  and  C_11
REMARK    7  A    between atoms: C_10  and  O_22
REMARK    8  A    between atoms: C_12  and  C_13
REMARK    9  A    between atoms: C_14  and  C_15
REMARK   10  A    between atoms: C_20  and  N_21
REMARK   11  A    between atoms: O_22  and  C_23
REMARK                            x       y       z     vdW  Elec       q    Type
REMARK                         _______ _______ _______ _____ _____    ______ ____
ROOT
ATOM      1  C   UNL     1       2.258   6.452  19.914  0.00  0.00    +0.000 C 
ATOM      2  C   UNL     1       1.870   7.684  20.091  0.00  0.00    +0.000 C 
ENDROOT
BRANCH   2   3
ATOM      3  C   UNL     1       1.401   9.029  20.236  0.00  0.00    +0.000 A 
ATOM      4  C   UNL     1       1.058   9.815  19.147  0.00  0.00    +0.000 A 
ATOM      5  C   UNL     1       1.104   9.328  17.730  0.00  0.00    +0.000 C 
ATOM      6  N   UNL     1       0.619  11.088  19.295  0.00  0.00    +0.000 NA
ATOM      7  C   UNL     1       0.539  11.568  20.533  0.00  0.00    +0.000 A 
ATOM      8  N   UNL     1       0.071  12.860  20.680  0.00  0.00    +0.000 N 
ATOM      9  N   UNL     1       0.822  10.884  21.643  0.00  0.00    +0.000 NA
ATOM     10  C   UNL     1       1.259   9.623  21.483  0.00  0.00    +0.000 A 
ATOM     11  H   UNL     1      -0.494  13.099  19.876  0.00  0.00    +0.000 HD
ATOM     12  H   UNL     1      -0.355  12.963  21.590  0.00  0.00    +0.000 HD
BRANCH  10  13
ATOM     13  N   UNL     1       1.488   8.919  22.672  0.00  0.00    +0.000 N 
ATOM     14  H   UNL     1       1.764   7.974  22.430  0.00  0.00    +0.000 HD
ATOM     15  H   UNL     1       0.694   8.959  23.297  0.00  0.00    +0.000 HD
ENDBRANCH  10  13
ENDBRANCH   2   3
BRANCH   1  16
ATOM     16  C   UNL     1       2.710   5.016  19.709  0.00  0.00    +0.000 C 
BRANCH  16  21
ATOM     17  C   UNL     1       5.295   6.147  17.152  0.00  0.00    +0.000 A 
ATOM     18  C   UNL     1       5.418   5.042  16.325  0.00  0.00    +0.000 A 
ATOM     19  C   UNL     1       4.647   3.904  16.559  0.00  0.00    +0.000 A 
ATOM     20  C   UNL     1       3.732   3.821  17.626  0.00  0.00    +0.000 A 
ATOM     21  C   UNL     1       3.628   4.911  18.502  0.00  0.00    +0.000 A 
ATOM     22  C   UNL     1       4.421   6.070  18.234  0.00  0.00    +0.000 A 
BRANCH  17  24
ATOM     23  C   UNL     1       7.321   7.364  17.425  0.00  0.00    +0.000 C 
ATOM     24  O   UNL     1       6.054   7.224  16.795  0.00  0.00    +0.000 OA
ENDBRANCH  17  24
BRANCH  20  25
ATOM     25  O   UNL     1       3.078   2.626  17.578  0.00  0.00    +0.000 OA
ATOM     26  C   UNL     1       3.458   1.505  18.353  0.00  0.00    +0.000 C 
ENDBRANCH  20  25
ENDBRANCH  16  21
BRANCH  16  27
ATOM     27  O   UNL     1       1.532   4.210  19.515  0.00  0.00    +0.000 OA
ATOM     28  C   UNL     1       1.181   3.444  20.665  0.00  0.00    +0.000 C 
ENDBRANCH  16  27
ENDBRANCH   1  16
TORSDOF 7
ENDMDL
MODEL 2
REMARK VINA RESULT:      -6.8      0.751      1.755
REMARK  Name = 
REMARK  11 active torsions:
REMARK  status: ('A' for Active; 'I' for Inactive)
REMARK    1  A    between atoms: C_1  and  O_2
REMARK    2  A    between atoms: O_2  and  C_3
REMARK    3  A    between atoms: C_6  and  O_7
REMARK    4  A    between atoms: O_7  and  C_8
REMARK    5  A    between atoms: C_9  and  C_10
REMARK    6  A    between atoms: C_10  and  C_11
REMARK    7  A    between atoms: C_10  and  O_22
REMARK    8  A    between atoms: C_12  and  C_13
REMARK    9  A    between atoms: C_14  and  C_15
REMARK   10  A    between atoms: C_20  and  N_21
REMARK   11  A    between atoms: O_22  and  C_23
REMARK                            x       y       z     vdW  Elec       q    Type
REMARK                         _______ _______ _______ _____ _____    ______ ____
ROOT
ATOM      1  C   UNL     1       2.237   6.770  19.713  0.00  0.00    +0.000 C 
ATOM      2  C   UNL     1       1.787   7.992  19.772  0.00  0.00    +0.000 C 
ENDROOT
BRANCH   2   3
ATOM      3  C   UNL     1       1.296   9.331  19.900  0.00  0.00    +0.000 A 
ATOM      4  C   UNL     1       0.853   9.843  21.109  0.00  0.00    +0.000 A 
ATOM      5  C   UNL     1       0.882   9.071  22.394  0.00  0.00    +0.000 C 
ATOM      6  N   UNL     1       0.387  11.111  21.219  0.00  0.00    +0.000 NA
ATOM      7  C   UNL     1       0.357  11.850  20.114  0.00  0.00    +0.000 A 
ATOM      8  N   UNL     1      -0.101  13.149  20.237  0.00  0.00    +0.000 N 
ATOM      9  N   UNL     1       0.782  11.456  18.913  0.00  0.00    +0.000 NA
ATOM     10  C   UNL     1       1.240  10.196  18.816  0.00  0.00    +0.000 A 
ATOM     11  H   UNL     1       0.024  13.453  21.193  0.00  0.00    +0.000 HD
ATOM     12  H   UNL     1       0.311  13.721  19.513  0.00  0.00    +0.000 HD
BRANCH  10  13
ATOM     13  N   UNL     1       1.733   9.840  17.555  0.00  0.00    +0.000 N 
ATOM     14  H   UNL     1       0.965   9.462  17.011  0.00  0.00    +0.000 HD
ATOM     15  H   UNL     1       2.527   9.217  17.617  0.00  0.00    +0.000 HD
ENDBRANCH  10  13
ENDBRANCH   2   3
BRANCH   1  16
ATOM     16  C   UNL     1       2.763   5.346  19.645  0.00  0.00    +0.000 C 
BRANCH  16  21
ATOM     17  C   UNL     1       5.420   6.259  17.076  0.00  0.00    +0.000 A 
ATOM     18  C   UNL     1       5.448   5.146  16.249  0.00  0.00    +0.000 A 
ATOM     19  C   UNL     1       4.587   4.076  16.489  0.00  0.00    +0.000 A 
ATOM     20  C   UNL     1       3.674   4.068  17.560  0.00  0.00    +0.000 A 
ATOM     21  C   UNL     1       3.663   5.165  18.435  0.00  0.00    +0.000 A 
ATOM     22  C   UNL     1       4.547   6.254  18.162  0.00  0.00    +0.000 A 
BRANCH  17  24
ATOM     23  C   UNL     1       7.453   7.429  17.476  0.00  0.00    +0.000 C 
ATOM     24  O   UNL     1       6.263   7.270  16.714  0.00  0.00    +0.000 OA
ENDBRANCH  17  24
BRANCH  20  25
ATOM     25  O   UNL     1       2.924   2.931  17.517  0.00  0.00    +0.000 OA
ATOM     26  C   UNL     1       3.289   1.739  18.186  0.00  0.00    +0.000 C 
ENDBRANCH  20  25
ENDBRANCH  16  21
BRANCH  16  27
ATOM     27  O   UNL     1       1.627   4.464  19.563  0.00  0.00    +0.000 OA
ATOM     28  C   UNL     1       1.348   3.791  20.788  0.00  0.00    +0.000 C 
ENDBRANCH  16  27
ENDBRANCH   1  16
TORSDOF 7
ENDMDL
MODEL 3
REMARK VINA RESULT:      -6.7      1.557      2.230
REMARK  Name = 
REMARK  11 active torsions:
REMARK  status: ('A' for Active; 'I' for Inactive)
REMARK    1  A    between atoms: C_1  and  O_2
REMARK    2  A    between atoms: O_2  and  C_3
REMARK    3  A    between atoms: C_6  and  O_7
REMARK    4  A    between atoms: O_7  and  C_8
REMARK    5  A    between atoms: C_9  and  C_10
REMARK    6  A    between atoms: C_10  and  C_11
REMARK    7  A    between atoms: C_10  and  O_22
REMARK    8  A    between atoms: C_12  and  C_13
REMARK    9  A    between atoms: C_14  and  C_15
REMARK   10  A    between atoms: C_20  and  N_21
REMARK   11  A    between atoms: O_22  and  C_23
REMARK                            x       y       z     vdW  Elec       q    Type
REMARK                         _______ _______ _______ _____ _____    ______ ____
ROOT
ATOM      1  C   UNL     1       2.038   6.573  20.450  0.00  0.00    +0.000 C 
ATOM      2  C   UNL     1       1.543   7.772  20.319  0.00  0.00    +0.000 C 
ENDROOT
BRANCH   2   3
ATOM      3  C   UNL     1       1.000   9.081  20.111  0.00  0.00    +0.000 A 
ATOM      4  C   UNL     1       0.306   9.759  21.101  0.00  0.00    +0.000 A 
ATOM      5  C   UNL     1       0.092   9.215  22.481  0.00  0.00    +0.000 C 
ATOM      6  N   UNL     1      -0.206  10.997  20.893  0.00  0.00    +0.000 NA
ATOM      7  C   UNL     1      -0.029  11.538  19.691  0.00  0.00    +0.000 A 
ATOM      8  N   UNL     1      -0.535  12.809  19.491  0.00  0.00    +0.000 N 
ATOM      9  N   UNL     1       0.644  10.976  18.685  0.00  0.00    +0.000 NA
ATOM     10  C   UNL     1       1.145   9.749  18.903  0.00  0.00    +0.000 A 
ATOM     11  H   UNL     1      -0.618  13.275  20.385  0.00  0.00    +0.000 HD
ATOM     12  H   UNL     1       0.000  13.277  18.774  0.00  0.00    +0.000 HD
BRANCH  10  13
ATOM     13  N   UNL     1       1.895   9.219  17.846  0.00  0.00    +0.000 N 
ATOM     14  H   UNL     1       1.853   9.872  17.071  0.00  0.00    +0.000 HD
ATOM     15  H   UNL     1       1.600   8.283  17.600  0.00  0.00    +0.000 HD
ENDBRANCH  10  13
ENDBRANCH   2   3
BRANCH   1  16
ATOM     16  C   UNL     1       2.615   5.176  20.603  0.00  0.00    +0.000 C 
BRANCH  16  21
ATOM     17  C   UNL     1       5.245   4.663  17.898  0.00  0.00    +0.000 A 
ATOM     18  C   UNL     1       4.560   3.945  16.930  0.00  0.00    +0.000 A 
ATOM     19  C   UNL     1       3.215   3.627  17.117  0.00  0.00    +0.000 A 
ATOM     20  C   UNL     1       2.505   4.004  18.273  0.00  0.00    +0.000 A 
ATOM     21  C   UNL     1       3.194   4.689  19.285  0.00  0.00    +0.000 A 
ATOM     22  C   UNL     1       4.569   5.013  19.064  0.00  0.00    +0.000 A 
BRANCH  17  24
ATOM     23  C   UNL     1       7.035   4.497  16.339  0.00  0.00    +0.000 C 
ATOM     24  O   UNL     1       6.539   4.968  17.585  0.00  0.00    +0.000 OA
ENDBRANCH  17  24
BRANCH  20  25
ATOM     25  O   UNL     1       1.204   3.616  18.160  0.00  0.00    +0.000 OA
ATOM     26  C   UNL     1       0.748   2.326  18.522  0.00  0.00    +0.000 C 
ENDBRANCH  20  25
ENDBRANCH  16  21
BRANCH  16  27
ATOM     27  O   UNL     1       1.550   4.308  21.034  0.00  0.00    +0.000 OA
ATOM     28  C   UNL     1       2.010   3.176  21.769  0.00  0.00    +0.000 C 
ENDBRANCH  16  27
ENDBRANCH   1  16
TORSDOF 7
ENDMDL
MODEL 4
REMARK VINA RESULT:      -6.7      1.414      1.497
REMARK  Name = 
REMARK  11 active torsions:
REMARK  status: ('A' for Active; 'I' for Inactive)
REMARK    1  A    between atoms: C_1  and  O_2
REMARK    2  A    between atoms: O_2  and  C_3
REMARK    3  A    between atoms: C_6  and  O_7
REMARK    4  A    between atoms: O_7  and  C_8
REMARK    5  A    between atoms: C_9  and  C_10
REMARK    6  A    between atoms: C_10  and  C_11
REMARK    7  A    between atoms: C_10  and  O_22
REMARK    8  A    between atoms: C_12  and  C_13
REMARK    9  A    between atoms: C_14  and  C_15
REMARK   10  A    between atoms: C_20  and  N_21
REMARK   11  A    between atoms: O_22  and  C_23
REMARK                            x       y       z     vdW  Elec       q    Type
REMARK                         _______ _______ _______ _____ _____    ______ ____
ROOT
ATOM      1  C   UNL     1       1.902   6.536  20.539  0.00  0.00    +0.000 C 
ATOM      2  C   UNL     1       1.386   7.728  20.421  0.00  0.00    +0.000 C 
ENDROOT
BRANCH   2   3
ATOM      3  C   UNL     1       0.874   9.056  20.268  0.00  0.00    +0.000 A 
ATOM      4  C   UNL     1       1.099   9.808  19.125  0.00  0.00    +0.000 A 
ATOM      5  C   UNL     1       1.855   9.296  17.935  0.00  0.00    +0.000 C 
ATOM      6  N   UNL     1       0.614  11.066  18.991  0.00  0.00    +0.000 NA
ATOM      7  C   UNL     1      -0.082  11.565  20.008  0.00  0.00    +0.000 A 
ATOM      8  N   UNL     1      -0.592  12.841  19.858  0.00  0.00    +0.000 N 
ATOM      9  N   UNL     1      -0.371  10.913  21.136  0.00  0.00    +0.000 NA
ATOM     10  C   UNL     1       0.118   9.667  21.257  0.00  0.00    +0.000 A 
ATOM     11  H   UNL     1      -0.688  13.043  18.872  0.00  0.00    +0.000 HD
ATOM     12  H   UNL     1      -1.416  12.945  20.433  0.00  0.00    +0.000 HD
BRANCH  10  13
ATOM     13  N   UNL     1      -0.258   8.995  22.427  0.00  0.00    +0.000 N 
ATOM     14  H   UNL     1      -0.171   9.640  23.204  0.00  0.00    +0.000 HD
ATOM     15  H   UNL     1       0.261   8.137  22.557  0.00  0.00    +0.000 HD
ENDBRANCH  10  13
ENDBRANCH   2   3
BRANCH   1  16
ATOM     16  C   UNL     1       2.504   5.148  20.675  0.00  0.00    +0.000 C 
BRANCH  16  21
ATOM     17  C   UNL     1       5.240   4.780  18.053  0.00  0.00    +0.000 A 
ATOM     18  C   UNL     1       4.611   4.066  17.045  0.00  0.00    +0.000 A 
ATOM     19  C   UNL     1       3.271   3.703  17.178  0.00  0.00    +0.000 A 
ATOM     20  C   UNL     1       2.511   4.029  18.317  0.00  0.00    +0.000 A 
ATOM     21  C   UNL     1       3.143   4.711  19.368  0.00  0.00    +0.000 A 
ATOM     22  C   UNL     1       4.514   5.081  19.203  0.00  0.00    +0.000 A 
BRANCH  17  24
ATOM     23  C   UNL     1       7.154   4.536  16.661  0.00  0.00    +0.000 C 
ATOM     24  O   UNL     1       6.533   5.132  17.792  0.00  0.00    +0.000 OA
ENDBRANCH  17  24
BRANCH  20  25
ATOM     25  O   UNL     1       1.227   3.605  18.150  0.00  0.00    +0.000 OA
ATOM     26  C   UNL     1       0.789   2.307  18.506  0.00  0.00    +0.000 C 
ENDBRANCH  20  25
ENDBRANCH  16  21
BRANCH  16  27
ATOM     27  O   UNL     1       1.444   4.245  21.042  0.00  0.00    +0.000 OA
ATOM     28  C   UNL     1       1.897   3.121  21.792  0.00  0.00    +0.000 C 
ENDBRANCH  16  27
ENDBRANCH   1  16
TORSDOF 7
ENDMDL
MODEL 5
REMARK VINA RESULT:      -6.7      4.511      6.993
REMARK  Name = 
REMARK  11 active torsions:
REMARK  status: ('A' for Active; 'I' for Inactive)
REMARK    1  A    between atoms: C_1  and  O_2
REMARK    2  A    between atoms: O_2  and  C_3
REMARK    3  A    between atoms: C_6  and  O_7
REMARK    4  A    between atoms: O_7  and  C_8
REMARK    5  A    between atoms: C_9  and  C_10
REMARK    6  A    between atoms: C_10  and  C_11
REMARK    7  A    between atoms: C_10  and  O_22
REMARK    8  A    between atoms: C_12  and  C_13
REMARK    9  A    between atoms: C_14  and  C_15
REMARK   10  A    between atoms: C_20  and  N_21
REMARK   11  A    between atoms: O_22  and  C_23
REMARK                            x       y       z     vdW  Elec       q    Type
REMARK                         _______ _______ _______ _____ _____    ______ ____
ROOT
ATOM      1  C   UNL     1       3.540   3.626  16.747  0.00  0.00    +0.000 C 
ATOM      2  C   UNL     1       4.575   3.996  16.045  0.00  0.00    +0.000 C 
ENDROOT
BRANCH   2   3
ATOM      3  C   UNL     1       5.689   4.463  15.277  0.00  0.00    +0.000 A 
ATOM      4  C   UNL     1       5.831   4.175  13.929  0.00  0.00    +0.000 A 
ATOM      5  C   UNL     1       4.825   3.390  13.142  0.00  0.00    +0.000 C 
ATOM      6  N   UNL     1       6.892   4.620  13.212  0.00  0.00    +0.000 NA
ATOM      7  C   UNL     1       7.807   5.339  13.855  0.00  0.00    +0.000 A 
ATOM      8  N   UNL     1       8.876   5.806  13.115  0.00  0.00    +0.000 N 
ATOM      9  N   UNL     1       7.747   5.688  15.142  0.00  0.00    +0.000 NA
ATOM     10  C   UNL     1       6.692   5.239  15.842  0.00  0.00    +0.000 A 
ATOM     11  H   UNL     1       8.605   5.860  12.142  0.00  0.00    +0.000 HD
ATOM     12  H   UNL     1       9.239   6.648  13.540  0.00  0.00    +0.000 HD
BRANCH  10  13
ATOM     13  N   UNL     1       6.634   5.677  17.171  0.00  0.00    +0.000 N 
ATOM     14  H   UNL     1       6.088   5.006  17.700  0.00  0.00    +0.000 HD
ATOM     15  H   UNL     1       6.288   6.624  17.246  0.00  0.00    +0.000 HD
ENDBRANCH  10  13
ENDBRANCH   2   3
BRANCH   1  16
ATOM     16  C   UNL     1       2.335   3.194  17.566  0.00  0.00    +0.000 C 
BRANCH  16  21
ATOM     17  C   UNL     1       2.196   6.610  19.243  0.00  0.00    +0.000 A 
ATOM     18  C   UNL     1       1.631   6.328  20.477  0.00  0.00    +0.000 A 
ATOM     19  C   UNL     1       1.300   5.014  20.810  0.00  0.00    +0.000 A 
ATOM     20  C   UNL     1       1.512   3.937  19.929  0.00  0.00    +0.000 A 
ATOM     21  C   UNL     1       2.039   4.209  18.657  0.00  0.00    +0.000 A 
ATOM     22  C   UNL     1       2.380   5.562  18.344  0.00  0.00    +0.000 A 
BRANCH  17  24
ATOM     23  C   UNL     1       2.516   8.400  17.708  0.00  0.00    +0.000 C 
ATOM     24  O   UNL     1       2.533   7.918  19.046  0.00  0.00    +0.000 OA
ENDBRANCH  17  24
BRANCH  20  25
ATOM     25  O   UNL     1       1.155   2.770  20.535  0.00  0.00    +0.000 OA
ATOM     26  C   UNL     1       1.615   2.394  21.819  0.00  0.00    +0.000 C 
ENDBRANCH  20  25
ENDBRANCH  16  21
BRANCH  16  27
ATOM     27  O   UNL     1       2.636   1.910  18.144  0.00  0.00    +0.000 OA
ATOM     28  C   UNL     1       3.948   1.834  18.694  0.00  0.00    +0.000 C 
ENDBRANCH  16  27
ENDBRANCH   1  16
TORSDOF 7
ENDMDL
MODEL 6
REMARK VINA RESULT:      -6.6      1.394      3.880
REMARK  Name = 
REMARK  11 active torsions:
REMARK  status: ('A' for Active; 'I' for Inactive)
REMARK    1  A    between atoms: C_1  and  O_2
REMARK    2  A    between atoms: O_2  and  C_3
REMARK    3  A    between atoms: C_6  and  O_7
REMARK    4  A    between atoms: O_7  and  C_8
REMARK    5  A    between atoms: C_9  and  C_10
REMARK    6  A    between atoms: C_10  and  C_11
REMARK    7  A    between atoms: C_10  and  O_22
REMARK    8  A    between atoms: C_12  and  C_13
REMARK    9  A    between atoms: C_14  and  C_15
REMARK   10  A    between atoms: C_20  and  N_21
REMARK   11  A    between atoms: O_22  and  C_23
REMARK                            x       y       z     vdW  Elec       q    Type
REMARK                         _______ _______ _______ _____ _____    ______ ____
ROOT
ATOM      1  C   UNL     1       3.195   7.430  18.044  0.00  0.00    +0.000 C 
ATOM      2  C   UNL     1       2.396   8.283  18.622  0.00  0.00    +0.000 C 
ENDROOT
BRANCH   2   3
ATOM      3  C   UNL     1       1.489   9.170  19.286  0.00  0.00    +0.000 A 
ATOM      4  C   UNL     1       0.809   8.807  20.438  0.00  0.00    +0.000 A 
ATOM      5  C   UNL     1       0.984   7.481  21.117  0.00  0.00    +0.000 C 
ATOM      6  N   UNL     1      -0.049   9.653  21.057  0.00  0.00    +0.000 NA
ATOM      7  C   UNL     1      -0.229  10.851  20.509  0.00  0.00    +0.000 A 
ATOM      8  N   UNL     1      -1.090  11.717  21.156  0.00  0.00    +0.000 N 
ATOM      9  N   UNL     1       0.396  11.301  19.419  0.00  0.00    +0.000 NA
ATOM     10  C   UNL     1       1.243  10.452  18.814  0.00  0.00    +0.000 A 
ATOM     11  H   UNL     1      -1.148  11.457  22.132  0.00  0.00    +0.000 HD
ATOM     12  H   UNL     1      -0.830  12.671  20.947  0.00  0.00    +0.000 HD
BRANCH  10  13
ATOM     13  N   UNL     1       1.923  10.981  17.710  0.00  0.00    +0.000 N 
ATOM     14  H   UNL     1       2.057  10.236  17.035  0.00  0.00    +0.000 HD
ATOM     15  H   UNL     1       2.784  11.441  17.976  0.00  0.00    +0.000 HD
ENDBRANCH  10  13
ENDBRANCH   2   3
BRANCH   1  16
ATOM     16  C   UNL     1       4.127   6.437  17.371  0.00  0.00    +0.000 C 
BRANCH  16  21
ATOM     17  C   UNL     1       1.918   3.648  18.727  0.00  0.00    +0.000 A 
ATOM     18  C   UNL     1       2.482   2.508  18.175  0.00  0.00    +0.000 A 
ATOM     19  C   UNL     1       3.612   2.610  17.365  0.00  0.00    +0.000 A 
ATOM     20  C   UNL     1       4.217   3.846  17.068  0.00  0.00    +0.000 A 
ATOM     21  C   UNL     1       3.633   5.015  17.578  0.00  0.00    +0.000 A 
ATOM     22  C   UNL     1       2.482   4.883  18.416  0.00  0.00    +0.000 A 
BRANCH  17  24
ATOM     23  C   UNL     1       1.133   3.068  20.897  0.00  0.00    +0.000 C 
ATOM     24  O   UNL     1       0.851   3.426  19.550  0.00  0.00    +0.000 OA
ENDBRANCH  17  24
BRANCH  20  25
ATOM     25  O   UNL     1       5.331   3.642  16.309  0.00  0.00    +0.000 OA
ATOM     26  C   UNL     1       5.454   4.102  14.977  0.00  0.00    +0.000 C 
ENDBRANCH  20  25
ENDBRANCH  16  21
BRANCH  16  27
ATOM     27  O   UNL     1       5.435   6.603  17.949  0.00  0.00    +0.000 OA
ATOM     28  C   UNL     1       6.421   7.006  17.002  0.00  0.00    +0.000 C 
ENDBRANCH  16  27
ENDBRANCH   1  16
TORSDOF 7
ENDMDL
MODEL 7
REMARK VINA RESULT:      -6.6      2.153      3.586
REMARK  Name = 
REMARK  11 active torsions:
REMARK  status: ('A' for Active; 'I' for Inactive)
REMARK    1  A    between atoms: C_1  and  O_2
REMARK    2  A    between atoms: O_2  and  C_3
REMARK    3  A    between atoms: C_6  and  O_7
REMARK    4  A    between atoms: O_7  and  C_8
REMARK    5  A    between atoms: C_9  and  C_10
REMARK    6  A    between atoms: C_10  and  C_11
REMARK    7  A    between atoms: C_10  and  O_22
REMARK    8  A    between atoms: C_12  and  C_13
REMARK    9  A    between atoms: C_14  and  C_15
REMARK   10  A    between atoms: C_20  and  N_21
REMARK   11  A    between atoms: O_22  and  C_23
REMARK                            x       y       z     vdW  Elec       q    Type
REMARK                         _______ _______ _______ _____ _____    ______ ____
ROOT
ATOM      1  C   UNL     1       3.854   4.861  18.414  0.00  0.00    +0.000 C 
ATOM      2  C   UNL     1       3.163   5.871  18.862  0.00  0.00    +0.000 C 
ENDROOT
BRANCH   2   3
ATOM      3  C   UNL     1       2.398   6.951  19.411  0.00  0.00    +0.000 A 
ATOM      4  C   UNL     1       2.203   8.141  18.727  0.00  0.00    +0.000 A 
ATOM      5  C   UNL     1       2.731   8.397  17.347  0.00  0.00    +0.000 C 
ATOM      6  N   UNL     1       1.480   9.157  19.256  0.00  0.00    +0.000 NA
ATOM      7  C   UNL     1       0.971   8.978  20.472  0.00  0.00    +0.000 A 
ATOM      8  N   UNL     1       0.218  10.011  20.998  0.00  0.00    +0.000 N 
ATOM      9  N   UNL     1       1.083   7.863  21.197  0.00  0.00    +0.000 NA
ATOM     10  C   UNL     1       1.803   6.864  20.662  0.00  0.00    +0.000 A 
ATOM     11  H   UNL     1      -0.147  10.572  20.240  0.00  0.00    +0.000 HD
ATOM     12  H   UNL     1      -0.450   9.639  21.659  0.00  0.00    +0.000 HD
BRANCH  10  13
ATOM     13  N   UNL     1       1.847   5.690  21.425  0.00  0.00    +0.000 N 
ATOM     14  H   UNL     1       1.809   5.950  22.405  0.00  0.00    +0.000 HD
ATOM     15  H   UNL     1       2.644   5.113  21.193  0.00  0.00    +0.000 HD
ENDBRANCH  10  13
ENDBRANCH   2   3
BRANCH   1  16
ATOM     16  C   UNL     1       4.661   3.684  17.892  0.00  0.00    +0.000 C 
BRANCH  16  21
ATOM     17  C   UNL     1       5.736   4.172  14.272  0.00  0.00    +0.000 A 
ATOM     18  C   UNL     1       6.976   4.779  14.396  0.00  0.00    +0.000 A 
ATOM     19  C   UNL     1       7.510   5.026  15.660  0.00  0.00    +0.000 A 
ATOM     20  C   UNL     1       6.831   4.687  16.845  0.00  0.00    +0.000 A 
ATOM     21  C   UNL     1       5.554   4.115  16.742  0.00  0.00    +0.000 A 
ATOM     22  C   UNL     1       5.033   3.861  15.434  0.00  0.00    +0.000 A 
BRANCH  17  24
ATOM     23  C   UNL     1       6.233   3.198  12.159  0.00  0.00    +0.000 C 
ATOM     24  O   UNL     1       5.337   3.925  12.990  0.00  0.00    +0.000 OA
ENDBRANCH  17  24
BRANCH  20  25
ATOM     25  O   UNL     1       7.609   4.986  17.923  0.00  0.00    +0.000 OA
ATOM     26  C   UNL     1       7.650   6.272  18.513  0.00  0.00    +0.000 C 
ENDBRANCH  20  25
ENDBRANCH  16  21
BRANCH  16  27
ATOM     27  O   UNL     1       3.731   2.675  17.456  0.00  0.00    +0.000 OA
ATOM     28  C   UNL     1       3.311   1.805  18.504  0.00  0.00    +0.000 C 
ENDBRANCH  16  27
ENDBRANCH   1  16
TORSDOF 7
ENDMDL
MODEL 8
REMARK VINA RESULT:      -6.6      1.352      3.552
REMARK  Name = 
REMARK  11 active torsions:
REMARK  status: ('A' for Active; 'I' for Inactive)
REMARK    1  A    between atoms: C_1  and  O_2
REMARK    2  A    between atoms: O_2  and  C_3
REMARK    3  A    between atoms: C_6  and  O_7
REMARK    4  A    between atoms: O_7  and  C_8
REMARK    5  A    between atoms: C_9  and  C_10
REMARK    6  A    between atoms: C_10  and  C_11
REMARK    7  A    between atoms: C_10  and  O_22
REMARK    8  A    between atoms: C_12  and  C_13
REMARK    9  A    between atoms: C_14  and  C_15
REMARK   10  A    between atoms: C_20  and  N_21
REMARK   11  A    between atoms: O_22  and  C_23
REMARK                            x       y       z     vdW  Elec       q    Type
REMARK                         _______ _______ _______ _____ _____    ______ ____
ROOT
ATOM      1  C   UNL     1       2.485   7.504  18.612  0.00  0.00    +0.000 C 
ATOM      2  C   UNL     1       1.750   8.324  19.309  0.00  0.00    +0.000 C 
ENDROOT
BRANCH   2   3
ATOM      3  C   UNL     1       0.954   9.271  20.031  0.00  0.00    +0.000 A 
ATOM      4  C   UNL     1       0.018  10.079  19.404  0.00  0.00    +0.000 A 
ATOM      5  C   UNL     1      -0.278  10.015  17.936  0.00  0.00    +0.000 C 
ATOM      6  N   UNL     1      -0.729  10.973  20.095  0.00  0.00    +0.000 NA
ATOM      7  C   UNL     1      -0.523  11.060  21.406  0.00  0.00    +0.000 A 
ATOM      8  N   UNL     1      -1.302  11.959  22.109  0.00  0.00    +0.000 N 
ATOM      9  N   UNL     1       0.334  10.310  22.102  0.00  0.00    +0.000 NA
ATOM     10  C   UNL     1       1.071   9.429  21.405  0.00  0.00    +0.000 A 
ATOM     11  H   UNL     1      -2.156  12.128  21.595  0.00  0.00    +0.000 HD
ATOM     12  H   UNL     1      -1.393  11.651  23.067  0.00  0.00    +0.000 HD
BRANCH  10  13
ATOM     13  N   UNL     1       1.914   8.620  22.176  0.00  0.00    +0.000 N 
ATOM     14  H   UNL     1       1.337   8.067  22.801  0.00  0.00    +0.000 HD
ATOM     15  H   UNL     1       2.625   9.157  22.655  0.00  0.00    +0.000 HD
ENDBRANCH  10  13
ENDBRANCH   2   3
BRANCH   1  16
ATOM     16  C   UNL     1       3.340   6.547  17.798  0.00  0.00    +0.000 C 
BRANCH  16  21
ATOM     17  C   UNL     1       1.573   3.638  19.504  0.00  0.00    +0.000 A 
ATOM     18  C   UNL     1       1.903   2.559  18.699  0.00  0.00    +0.000 A 
ATOM     19  C   UNL     1       2.728   2.741  17.590  0.00  0.00    +0.000 A 
ATOM     20  C   UNL     1       3.251   4.000  17.238  0.00  0.00    +0.000 A 
ATOM     21  C   UNL     1       2.890   5.112  18.013  0.00  0.00    +0.000 A 
ATOM     22  C   UNL     1       2.051   4.897  19.151  0.00  0.00    +0.000 A 
BRANCH  17  24
ATOM     23  C   UNL     1       1.452   2.680  21.679  0.00  0.00    +0.000 C 
ATOM     24  O   UNL     1       0.808   3.335  20.594  0.00  0.00    +0.000 OA
ENDBRANCH  17  24
BRANCH  20  25
ATOM     25  O   UNL     1       4.067   3.872  16.154  0.00  0.00    +0.000 OA
ATOM     26  C   UNL     1       5.475   3.772  16.255  0.00  0.00    +0.000 C 
ENDBRANCH  20  25
ENDBRANCH  16  21
BRANCH  16  27
ATOM     27  O   UNL     1       4.707   6.714  18.220  0.00  0.00    +0.000 OA
ATOM     28  C   UNL     1       5.576   7.119  17.166  0.00  0.00    +0.000 C 
ENDBRANCH  16  27
ENDBRANCH   1  16
TORSDOF 7
ENDMDL
MODEL 9
REMARK VINA RESULT:      -6.6      4.844      7.215
REMARK  Name = 
REMARK  11 active torsions:
REMARK  status: ('A' for Active; 'I' for Inactive)
REMARK    1  A    between atoms: C_1  and  O_2
REMARK    2  A    between atoms: O_2  and  C_3
REMARK    3  A    between atoms: C_6  and  O_7
REMARK    4  A    between atoms: O_7  and  C_8
REMARK    5  A    between atoms: C_9  and  C_10
REMARK    6  A    between atoms: C_10  and  C_11
REMARK    7  A    between atoms: C_10  and  O_22
REMARK    8  A    between atoms: C_12  and  C_13
REMARK    9  A    between atoms: C_14  and  C_15
REMARK   10  A    between atoms: C_20  and  N_21
REMARK   11  A    between atoms: O_22  and  C_23
REMARK                            x       y       z     vdW  Elec       q    Type
REMARK                         _______ _______ _______ _____ _____    ______ ____
ROOT
ATOM      1  C   UNL     1       3.758   3.646  16.873  0.00  0.00    +0.000 C 
ATOM      2  C   UNL     1       4.730   4.095  16.129  0.00  0.00    +0.000 C 
ENDROOT
BRANCH   2   3
ATOM      3  C   UNL     1       5.810   4.527  15.293  0.00  0.00    +0.000 A 
ATOM      4  C   UNL     1       6.885   5.248  15.789  0.00  0.00    +0.000 A 
ATOM      5  C   UNL     1       7.043   5.606  17.236  0.00  0.00    +0.000 C 
ATOM      6  N   UNL     1       7.900   5.655  14.989  0.00  0.00    +0.000 NA
ATOM      7  C   UNL     1       7.823   5.348  13.697  0.00  0.00    +0.000 A 
ATOM      8  N   UNL     1       8.871   5.748  12.890  0.00  0.00    +0.000 N 
ATOM      9  N   UNL     1       6.844   4.640  13.132  0.00  0.00    +0.000 NA
ATOM     10  C   UNL     1       5.842   4.244  13.935  0.00  0.00    +0.000 A 
ATOM     11  H   UNL     1       9.699   5.867  13.459  0.00  0.00    +0.000 HD
ATOM     12  H   UNL     1       8.942   5.127  12.096  0.00  0.00    +0.000 HD
BRANCH  10  13
ATOM     13  N   UNL     1       4.865   3.452  13.318  0.00  0.00    +0.000 N 
ATOM     14  H   UNL     1       5.329   2.669  12.872  0.00  0.00    +0.000 HD
ATOM     15  H   UNL     1       4.283   3.987  12.687  0.00  0.00    +0.000 HD
ENDBRANCH  10  13
ENDBRANCH   2   3
BRANCH   1  16
ATOM     16  C   UNL     1       2.625   3.123  17.739  0.00  0.00    +0.000 C 
BRANCH  16  21
ATOM     17  C   UNL     1       2.237   6.605  19.232  0.00  0.00    +0.000 A 
ATOM     18  C   UNL     1       1.533   6.365  20.401  0.00  0.00    +0.000 A 
ATOM     19  C   UNL     1       1.184   5.061  20.751  0.00  0.00    +0.000 A 
ATOM     20  C   UNL     1       1.514   3.951  19.951  0.00  0.00    +0.000 A 
ATOM     21  C   UNL     1       2.185   4.178  18.740  0.00  0.00    +0.000 A 
ATOM     22  C   UNL     1       2.542   5.523  18.409  0.00  0.00    +0.000 A 
BRANCH  17  24
ATOM     23  C   UNL     1       1.958   8.571  17.921  0.00  0.00    +0.000 C 
ATOM     24  O   UNL     1       2.577   7.910  19.017  0.00  0.00    +0.000 OA
ENDBRANCH  17  24
BRANCH  20  25
ATOM     25  O   UNL     1       1.104   2.805  20.563  0.00  0.00    +0.000 OA
ATOM     26  C   UNL     1       1.540   2.418  21.853  0.00  0.00    +0.000 C 
ENDBRANCH  20  25
ENDBRANCH  16  21
BRANCH  16  27
ATOM     27  O   UNL     1       3.102   1.949  18.423  0.00  0.00    +0.000 OA
ATOM     28  C   UNL     1       4.260   2.194  19.218  0.00  0.00    +0.000 C 
ENDBRANCH  16  27
ENDBRANCH   1  16
TORSDOF 7
ENDMDL
