MODEL 1
REMARK VINA RESULT:      -7.6      0.000      0.000
REMARK  Name = 
REMARK  6 active torsions:
REMARK  status: ('A' for Active; 'I' for Inactive)
REMARK    1  A    between atoms: N_2  and  C_4
REMARK    2  A    between atoms: C_10  and  C_11
REMARK    3  A    between atoms: C_11  and  C_12
REMARK    4  A    between atoms: C_12  and  O_13
REMARK    5  A    between atoms: C_12  and  C_14
REMARK    6  A    between atoms: C_17  and  N_18
REMARK                            x       y       z     vdW  Elec       q    Type
REMARK                         _______ _______ _______ _____ _____    ______ ____
ROOT
ATOM      1  C   UNL     1       3.182   4.530  17.809  0.00  0.00    +0.000 C 
ENDROOT
BRANCH   1   2
ATOM      2  C   UNL     1       2.589   5.501  18.819  0.00  0.00    +0.000 A 
ATOM      3  C   UNL     1       2.588   6.873  18.519  0.00  0.00    +0.000 A 
ATOM      4  C   UNL     1       2.030   7.812  19.398  0.00  0.00    +0.000 A 
ATOM      5  C   UNL     1       1.462   7.390  20.604  0.00  0.00    +0.000 A 
ATOM      6  C   UNL     1       1.446   6.022  20.910  0.00  0.00    +0.000 A 
ATOM      7  C   UNL     1       1.993   5.089  20.020  0.00  0.00    +0.000 A 
BRANCH   5   8
ATOM      8  N   UNL     1       0.912   8.321  21.522  0.00  0.00    +0.000 N 
ATOM      9  C   UNL     1       1.566   9.172  22.384  0.00  0.00    +0.000 A 
ATOM     10  N   UNL     1       0.704   9.844  23.115  0.00  0.00    +0.000 NA
ATOM     11  C   UNL     1      -0.493   9.385  22.654  0.00  0.00    +0.000 A 
ATOM     12  N   UNL     1      -0.424   8.478  21.679  0.00  0.00    +0.000 NA
ENDBRANCH   5   8
ENDBRANCH   1   2
BRANCH   1  13
ATOM     13  O   UNL     1       2.467   3.299  17.890  0.00  0.00    +0.000 OA
ATOM     14  H   UNL     1       1.604   3.425  17.457  0.00  0.00    +0.000 HD
ENDBRANCH   1  13
BRANCH   1  15
ATOM     15  C   UNL     1       4.686   4.249  17.983  0.00  0.00    +0.000 C 
BRANCH  15  22
ATOM     16  C   UNL     1       6.801   4.955  16.649  0.00  0.00    +0.000 A 
ATOM     17  C   UNL     1       7.468   5.144  15.427  0.00  0.00    +0.000 A 
ATOM     18  C   UNL     1       6.832   4.783  14.245  0.00  0.00    +0.000 A 
ATOM     19 BR   UNL     1       7.699   5.060  12.588  0.00  0.00    +0.000 Br
ATOM     20  C   UNL     1       5.558   4.221  14.273  0.00  0.00    +0.000 A 
ATOM     21  C   UNL     1       4.894   4.048  15.493  0.00  0.00    +0.000 A 
ATOM     22  C   UNL     1       5.491   4.435  16.707  0.00  0.00    +0.000 A 
BRANCH  16  24
ATOM     23  O   UNL     1       7.515   6.521  18.182  0.00  0.00    +0.000 OA
ATOM     24  N   UNL     1       7.544   5.328  17.849  0.00  0.00    +0.000 N 
ATOM     25  O   UNL     1       8.100   4.425  18.487  0.00  0.00    +0.000 OA
ENDBRANCH  16  24
ENDBRANCH  15  22
ENDBRANCH   1  15
TORSDOF 6
ENDMDL
MODEL 2
REMARK VINA RESULT:      -7.6      2.938      3.593
REMARK  Name = 
REMARK  6 active torsions:
REMARK  status: ('A' for Active; 'I' for Inactive)
REMARK    1  A    between atoms: N_2  and  C_4
REMARK    2  A    between atoms: C_10  and  C_11
REMARK    3  A    between atoms: C_11  and  C_12
REMARK    4  A    between atoms: C_12  and  O_13
REMARK    5  A    between atoms: C_12  and  C_14
REMARK    6  A    between atoms: C_17  and  N_18
REMARK                            x       y       z     vdW  Elec       q    Type
REMARK                         _______ _______ _______ _____ _____    ______ ____
ROOT
ATOM      1  C   UNL     1       2.632   6.127  19.573  0.00  0.00    +0.000 C 
ENDROOT
BRANCH   1   2
ATOM      2  C   UNL     1       2.090   7.539  19.409  0.00  0.00    +0.000 A 
ATOM      3  C   UNL     1       2.194   8.162  18.155  0.00  0.00    +0.000 A 
ATOM      4  C   UNL     1       1.688   9.450  17.935  0.00  0.00    +0.000 A 
ATOM      5  C   UNL     1       1.067  10.145  18.979  0.00  0.00    +0.000 A 
ATOM      6  C   UNL     1       0.946   9.529  20.233  0.00  0.00    +0.000 A 
ATOM      7  C   UNL     1       1.443   8.236  20.439  0.00  0.00    +0.000 A 
BRANCH   5   8
ATOM      8  N   UNL     1       0.568  11.460  18.790  0.00  0.00    +0.000 N 
ATOM      9  C   UNL     1       1.265  12.642  18.697  0.00  0.00    +0.000 A 
ATOM     10  N   UNL     1       0.440  13.658  18.578  0.00  0.00    +0.000 NA
ATOM     11  C   UNL     1      -0.779  13.050  18.584  0.00  0.00    +0.000 A 
ATOM     12  N   UNL     1      -0.757  11.721  18.691  0.00  0.00    +0.000 NA
ENDBRANCH   5   8
ENDBRANCH   1   2
BRANCH   1  13
ATOM     13  O   UNL     1       2.255   5.644  20.861  0.00  0.00    +0.000 OA
ATOM     14  H   UNL     1       1.314   5.394  20.824  0.00  0.00    +0.000 HD
ENDBRANCH   1  13
BRANCH   1  15
ATOM     15  C   UNL     1       4.158   5.993  19.415  0.00  0.00    +0.000 C 
BRANCH  15  22
ATOM     16  C   UNL     1       4.610   4.067  17.730  0.00  0.00    +0.000 A 
ATOM     17  C   UNL     1       5.060   3.622  16.477  0.00  0.00    +0.000 A 
ATOM     18  C   UNL     1       5.460   4.556  15.528  0.00  0.00    +0.000 A 
ATOM     19 BR   UNL     1       6.100   3.975  13.847  0.00  0.00    +0.000 Br
ATOM     20  C   UNL     1       5.397   5.918  15.811  0.00  0.00    +0.000 A 
ATOM     21  C   UNL     1       4.961   6.354  17.067  0.00  0.00    +0.000 A 
ATOM     22  C   UNL     1       4.582   5.438  18.065  0.00  0.00    +0.000 A 
BRANCH  16  24
ATOM     23  O   UNL     1       4.937   2.763  19.603  0.00  0.00    +0.000 OA
ATOM     24  N   UNL     1       4.177   3.030  18.661  0.00  0.00    +0.000 N 
ATOM     25  O   UNL     1       3.058   2.530  18.488  0.00  0.00    +0.000 OA
ENDBRANCH  16  24
ENDBRANCH  15  22
ENDBRANCH   1  15
TORSDOF 6
ENDMDL
MODEL 3
REMARK VINA RESULT:      -7.6      2.574      2.882
REMARK  Name = 
REMARK  6 active torsions:
REMARK  status: ('A' for Active; 'I' for Inactive)
REMARK    1  A    between atoms: N_2  and  C_4
REMARK    2  A    between atoms: C_10  and  C_11
REMARK    3  A    between atoms: C_11  and  C_12
REMARK    4  A    between atoms: C_12  and  O_13
REMARK    5  A    between atoms: C_12  and  C_14
REMARK    6  A    between atoms: C_17  and  N_18
REMARK                            x       y       z     vdW  Elec       q    Type
REMARK                         _______ _______ _______ _____ _____    ______ ____
ROOT
ATOM      1  C   UNL     1       2.844   5.734  19.502  0.00  0.00    +0.000 C 
ENDROOT
BRANCH   1   2
ATOM      2  C   UNL     1       2.315   7.151  19.339  0.00  0.00    +0.000 A 
ATOM      3  C   UNL     1       2.455   7.787  18.095  0.00  0.00    +0.000 A 
ATOM      4  C   UNL     1       1.963   9.081  17.876  0.00  0.00    +0.000 A 
ATOM      5  C   UNL     1       1.320   9.769  18.911  0.00  0.00    +0.000 A 
ATOM      6  C   UNL     1       1.162   9.141  20.154  0.00  0.00    +0.000 A 
ATOM      7  C   UNL     1       1.646   7.842  20.360  0.00  0.00    +0.000 A 
BRANCH   5   8
ATOM      8  N   UNL     1       0.834  11.088  18.724  0.00  0.00    +0.000 N 
ATOM      9  C   UNL     1       1.542  12.264  18.633  0.00  0.00    +0.000 A 
ATOM     10  N   UNL     1       0.727  13.289  18.515  0.00  0.00    +0.000 NA
ATOM     11  C   UNL     1      -0.498  12.692  18.519  0.00  0.00    +0.000 A 
ATOM     12  N   UNL     1      -0.489  11.363  18.624  0.00  0.00    +0.000 NA
ENDBRANCH   5   8
ENDBRANCH   1   2
BRANCH   1  13
ATOM     13  O   UNL     1       2.295   5.181  20.696  0.00  0.00    +0.000 OA
ATOM     14  H   UNL     1       2.749   5.593  21.453  0.00  0.00    +0.000 HD
ENDBRANCH   1  13
BRANCH   1  15
ATOM     15  C   UNL     1       4.378   5.615  19.553  0.00  0.00    +0.000 C 
BRANCH  15  22
ATOM     16  C   UNL     1       6.364   5.408  17.889  0.00  0.00    +0.000 A 
ATOM     17  C   UNL     1       6.863   5.081  16.618  0.00  0.00    +0.000 A 
ATOM     18  C   UNL     1       6.000   4.547  15.667  0.00  0.00    +0.000 A 
ATOM     19 BR   UNL     1       6.645   4.131  13.940  0.00  0.00    +0.000 Br
ATOM     20  C   UNL     1       4.662   4.321  15.978  0.00  0.00    +0.000 A 
ATOM     21  C   UNL     1       4.168   4.662  17.243  0.00  0.00    +0.000 A 
ATOM     22  C   UNL     1       5.003   5.238  18.219  0.00  0.00    +0.000 A 
BRANCH  16  24
ATOM     23  O   UNL     1       7.948   6.961  18.518  0.00  0.00    +0.000 OA
ATOM     24  N   UNL     1       7.335   5.934  18.843  0.00  0.00    +0.000 N 
ATOM     25  O   UNL     1       7.440   5.360  19.935  0.00  0.00    +0.000 OA
ENDBRANCH  16  24
ENDBRANCH  15  22
ENDBRANCH   1  15
TORSDOF 6
ENDMDL
MODEL 4
REMARK VINA RESULT:      -7.6      0.722      1.387
REMARK  Name = 
REMARK  6 active torsions:
REMARK  status: ('A' for Active; 'I' for Inactive)
REMARK    1  A    between atoms: N_2  and  C_4
REMARK    2  A    between atoms: C_10  and  C_11
REMARK    3  A    between atoms: C_11  and  C_12
REMARK    4  A    between atoms: C_12  and  O_13
REMARK    5  A    between atoms: C_12  and  C_14
REMARK    6  A    between atoms: C_17  and  N_18
REMARK                            x       y       z     vdW  Elec       q    Type
REMARK                         _______ _______ _______ _____ _____    ______ ____
ROOT
ATOM      1  C   UNL     1       3.244   4.256  17.891  0.00  0.00    +0.000 C 
ENDROOT
BRANCH   1   2
ATOM      2  C   UNL     1       2.718   5.483  18.621  0.00  0.00    +0.000 A 
ATOM      3  C   UNL     1       2.189   5.327  19.913  0.00  0.00    +0.000 A 
ATOM      4  C   UNL     1       1.715   6.423  20.646  0.00  0.00    +0.000 A 
ATOM      5  C   UNL     1       1.760   7.707  20.091  0.00  0.00    +0.000 A 
ATOM      6  C   UNL     1       2.298   7.879  18.807  0.00  0.00    +0.000 A 
ATOM      7  C   UNL     1       2.781   6.778  18.088  0.00  0.00    +0.000 A 
BRANCH   5   8
ATOM      8  N   UNL     1       1.266   8.831  20.802  0.00  0.00    +0.000 N 
ATOM      9  C   UNL     1       1.250   9.056  22.158  0.00  0.00    +0.000 A 
ATOM     10  N   UNL     1       0.656  10.195  22.434  0.00  0.00    +0.000 NA
ATOM     11  C   UNL     1       0.329  10.662  21.196  0.00  0.00    +0.000 A 
ATOM     12  N   UNL     1       0.691   9.886  20.175  0.00  0.00    +0.000 NA
ENDBRANCH   5   8
ENDBRANCH   1   2
BRANCH   1  13
ATOM     13  O   UNL     1       2.545   3.110  18.373  0.00  0.00    +0.000 OA
ATOM     14  H   UNL     1       2.973   2.823  19.199  0.00  0.00    +0.000 HD
ENDBRANCH   1  13
BRANCH   1  15
ATOM     15  C   UNL     1       4.759   4.016  18.031  0.00  0.00    +0.000 C 
BRANCH  15  22
ATOM     16  C   UNL     1       6.807   4.884  16.688  0.00  0.00    +0.000 A 
ATOM     17  C   UNL     1       7.446   5.136  15.463  0.00  0.00    +0.000 A 
ATOM     18  C   UNL     1       6.824   4.749  14.281  0.00  0.00    +0.000 A 
ATOM     19 BR   UNL     1       7.653   5.109  12.621  0.00  0.00    +0.000 Br
ATOM     20  C   UNL     1       5.592   4.101  14.312  0.00  0.00    +0.000 A 
ATOM     21  C   UNL     1       4.954   3.865  15.536  0.00  0.00    +0.000 A 
ATOM     22  C   UNL     1       5.535   4.275  16.750  0.00  0.00    +0.000 A 
BRANCH  16  24
ATOM     23  O   UNL     1       8.152   4.406  18.498  0.00  0.00    +0.000 OA
ATOM     24  N   UNL     1       7.534   5.290  17.886  0.00  0.00    +0.000 N 
ATOM     25  O   UNL     1       7.538   6.492  18.179  0.00  0.00    +0.000 OA
ENDBRANCH  16  24
ENDBRANCH  15  22
ENDBRANCH   1  15
TORSDOF 6
ENDMDL
MODEL 5
REMARK VINA RESULT:      -7.6      2.432      2.859
REMARK  Name = 
REMARK  6 active torsions:
REMARK  status: ('A' for Active; 'I' for Inactive)
REMARK    1  A    between atoms: N_2  and  C_4
REMARK    2  A    between atoms: C_10  and  C_11
REMARK    3  A    between atoms: C_11  and  C_12
REMARK    4  A    between atoms: C_12  and  O_13
REMARK    5  A    between atoms: C_12  and  C_14
REMARK    6  A    between atoms: C_17  and  N_18
REMARK                            x       y       z     vdW  Elec       q    Type
REMARK                         _______ _______ _______ _____ _____    ______ ____
ROOT
ATOM      1  C   UNL     1       2.919   5.660  19.633  0.00  0.00    +0.000 C 
ENDROOT
BRANCH   1   2
ATOM      2  C   UNL     1       2.315   7.042  19.434  0.00  0.00    +0.000 A 
ATOM      3  C   UNL     1       1.627   7.640  20.503  0.00  0.00    +0.000 A 
ATOM      4  C   UNL     1       1.074   8.922  20.389  0.00  0.00    +0.000 A 
ATOM      5  C   UNL     1       1.197   9.634  19.191  0.00  0.00    +0.000 A 
ATOM      6  C   UNL     1       1.892   9.053  18.120  0.00  0.00    +0.000 A 
ATOM      7  C   UNL     1       2.453   7.777  18.247  0.00  0.00    +0.000 A 
BRANCH   5   8
ATOM      8  N   UNL     1       0.626  10.924  19.041  0.00  0.00    +0.000 N 
ATOM      9  C   UNL     1       1.247  12.111  18.732  0.00  0.00    +0.000 A 
ATOM     10  N   UNL     1       0.383  13.102  18.737  0.00  0.00    +0.000 NA
ATOM     11  C   UNL     1      -0.785  12.471  19.042  0.00  0.00    +0.000 A 
ATOM     12  N   UNL     1      -0.697  11.152  19.217  0.00  0.00    +0.000 NA
ENDBRANCH   5   8
ENDBRANCH   1   2
BRANCH   1  13
ATOM     13  O   UNL     1       2.445   5.133  20.870  0.00  0.00    +0.000 OA
ATOM     14  H   UNL     1       2.688   4.190  20.907  0.00  0.00    +0.000 HD
ENDBRANCH   1  13
BRANCH   1  15
ATOM     15  C   UNL     1       4.458   5.615  19.626  0.00  0.00    +0.000 C 
BRANCH  15  22
ATOM     16  C   UNL     1       6.407   5.367  17.925  0.00  0.00    +0.000 A 
ATOM     17  C   UNL     1       6.874   5.031  16.644  0.00  0.00    +0.000 A 
ATOM     18  C   UNL     1       5.982   4.520  15.709  0.00  0.00    +0.000 A 
ATOM     19 BR   UNL     1       6.584   4.093  13.969  0.00  0.00    +0.000 Br
ATOM     20  C   UNL     1       4.645   4.324  16.044  0.00  0.00    +0.000 A 
ATOM     21  C   UNL     1       4.183   4.673  17.319  0.00  0.00    +0.000 A 
ATOM     22  C   UNL     1       5.048   5.227  18.280  0.00  0.00    +0.000 A 
BRANCH  16  24
ATOM     23  O   UNL     1       8.053   6.868  18.517  0.00  0.00    +0.000 OA
ATOM     24  N   UNL     1       7.408   5.867  18.862  0.00  0.00    +0.000 N 
ATOM     25  O   UNL     1       7.504   5.302  19.959  0.00  0.00    +0.000 OA
ENDBRANCH  16  24
ENDBRANCH  15  22
ENDBRANCH   1  15
TORSDOF 6
ENDMDL
MODEL 6
REMARK VINA RESULT:      -7.6      2.798      3.557
REMARK  Name = 
REMARK  6 active torsions:
REMARK  status: ('A' for Active; 'I' for Inactive)
REMARK    1  A    between atoms: N_2  and  C_4
REMARK    2  A    between atoms: C_10  and  C_11
REMARK    3  A    between atoms: C_11  and  C_12
REMARK    4  A    between atoms: C_12  and  O_13
REMARK    5  A    between atoms: C_12  and  C_14
REMARK    6  A    between atoms: C_17  and  N_18
REMARK                            x       y       z     vdW  Elec       q    Type
REMARK                         _______ _______ _______ _____ _____    ______ ____
ROOT
ATOM      1  C   UNL     1       2.726   6.052  19.583  0.00  0.00    +0.000 C 
ENDROOT
BRANCH   1   2
ATOM      2  C   UNL     1       2.099   7.432  19.452  0.00  0.00    +0.000 A 
ATOM      3  C   UNL     1       1.498   8.012  20.581  0.00  0.00    +0.000 A 
ATOM      4  C   UNL     1       0.928   9.291  20.529  0.00  0.00    +0.000 A 
ATOM      5  C   UNL     1       0.948  10.017  19.333  0.00  0.00    +0.000 A 
ATOM      6  C   UNL     1       1.555   9.455  18.202  0.00  0.00    +0.000 A 
ATOM      7  C   UNL     1       2.133   8.181  18.267  0.00  0.00    +0.000 A 
BRANCH   5   8
ATOM      8  N   UNL     1       0.357  11.305  19.247  0.00  0.00    +0.000 N 
ATOM      9  C   UNL     1      -0.868  11.725  19.709  0.00  0.00    +0.000 A 
ATOM     10  N   UNL     1      -1.080  12.981  19.387  0.00  0.00    +0.000 NA
ATOM     11  C   UNL     1       0.067  13.314  18.731  0.00  0.00    +0.000 A 
ATOM     12  N   UNL     1       0.976  12.343  18.636  0.00  0.00    +0.000 NA
ENDBRANCH   5   8
ENDBRANCH   1   2
BRANCH   1  13
ATOM     13  O   UNL     1       2.424   5.540  20.880  0.00  0.00    +0.000 OA
ATOM     14  H   UNL     1       1.528   5.838  21.118  0.00  0.00    +0.000 HD
ENDBRANCH   1  13
BRANCH   1  15
ATOM     15  C   UNL     1       4.250   6.007  19.368  0.00  0.00    +0.000 C 
BRANCH  15  22
ATOM     16  C   UNL     1       4.698   4.076  17.688  0.00  0.00    +0.000 A 
ATOM     17  C   UNL     1       5.131   3.629  16.429  0.00  0.00    +0.000 A 
ATOM     18  C   UNL     1       5.499   4.563  15.468  0.00  0.00    +0.000 A 
ATOM     19 BR   UNL     1       6.115   3.980  13.778  0.00  0.00    +0.000 Br
ATOM     20  C   UNL     1       5.422   5.925  15.742  0.00  0.00    +0.000 A 
ATOM     21  C   UNL     1       5.003   6.364  17.004  0.00  0.00    +0.000 A 
ATOM     22  C   UNL     1       4.656   5.448  18.015  0.00  0.00    +0.000 A 
BRANCH  16  24
ATOM     23  O   UNL     1       3.270   2.400  18.370  0.00  0.00    +0.000 OA
ATOM     24  N   UNL     1       4.298   3.040  18.634  0.00  0.00    +0.000 N 
ATOM     25  O   UNL     1       5.039   2.825  19.603  0.00  0.00    +0.000 OA
ENDBRANCH  16  24
ENDBRANCH  15  22
ENDBRANCH   1  15
TORSDOF 6
ENDMDL
MODEL 7
REMARK VINA RESULT:      -7.5      2.818      3.432
REMARK  Name = 
REMARK  6 active torsions:
REMARK  status: ('A' for Active; 'I' for Inactive)
REMARK    1  A    between atoms: N_2  and  C_4
REMARK    2  A    between atoms: C_10  and  C_11
REMARK    3  A    between atoms: C_11  and  C_12
REMARK    4  A    between atoms: C_12  and  O_13
REMARK    5  A    between atoms: C_12  and  C_14
REMARK    6  A    between atoms: C_17  and  N_18
REMARK                            x       y       z     vdW  Elec       q    Type
REMARK                         _______ _______ _______ _____ _____    ______ ____
ROOT
ATOM      1  C   UNL     1       2.778   6.234  19.382  0.00  0.00    +0.000 C 
ENDROOT
BRANCH   1   2
ATOM      2  C   UNL     1       2.079   7.585  19.382  0.00  0.00    +0.000 A 
ATOM      3  C   UNL     1       2.037   8.325  18.188  0.00  0.00    +0.000 A 
ATOM      4  C   UNL     1       1.384   9.563  18.119  0.00  0.00    +0.000 A 
ATOM      5  C   UNL     1       0.758  10.088  19.255  0.00  0.00    +0.000 A 
ATOM      6  C   UNL     1       0.782   9.354  20.449  0.00  0.00    +0.000 A 
ATOM      7  C   UNL     1       1.427   8.112  20.506  0.00  0.00    +0.000 A 
BRANCH   5   8
ATOM      8  N   UNL     1       0.110  11.350  19.218  0.00  0.00    +0.000 N 
ATOM      9  C   UNL     1      -1.071  11.730  19.812  0.00  0.00    +0.000 A 
ATOM     10  N   UNL     1      -1.368  12.972  19.499  0.00  0.00    +0.000 NA
ATOM     11  C   UNL     1      -0.318  13.336  18.711  0.00  0.00    +0.000 A 
ATOM     12  N   UNL     1       0.613  12.400  18.526  0.00  0.00    +0.000 NA
ENDBRANCH   5   8
ENDBRANCH   1   2
BRANCH   1  13
ATOM     13  O   UNL     1       2.568   5.616  20.650  0.00  0.00    +0.000 OA
ATOM     14  H   UNL     1       1.780   5.048  20.579  0.00  0.00    +0.000 HD
ENDBRANCH   1  13
BRANCH   1  15
ATOM     15  C   UNL     1       4.290   6.284  19.093  0.00  0.00    +0.000 C 
BRANCH  15  22
ATOM     16  C   UNL     1       4.751   4.248  17.545  0.00  0.00    +0.000 A 
ATOM     17  C   UNL     1       5.163   3.722  16.311  0.00  0.00    +0.000 A 
ATOM     18  C   UNL     1       5.481   4.592  15.274  0.00  0.00    +0.000 A 
ATOM     19 BR   UNL     1       6.070   3.904  13.616  0.00  0.00    +0.000 Br
ATOM     20  C   UNL     1       5.371   5.969  15.452  0.00  0.00    +0.000 A 
ATOM     21  C   UNL     1       4.972   6.487  16.689  0.00  0.00    +0.000 A 
ATOM     22  C   UNL     1       4.678   5.639  17.773  0.00  0.00    +0.000 A 
BRANCH  16  24
ATOM     23  O   UNL     1       3.378   2.602  18.394  0.00  0.00    +0.000 OA
ATOM     24  N   UNL     1       4.404   3.273  18.575  0.00  0.00    +0.000 N 
ATOM     25  O   UNL     1       5.184   3.137  19.526  0.00  0.00    +0.000 OA
ENDBRANCH  16  24
ENDBRANCH  15  22
ENDBRANCH   1  15
TORSDOF 6
ENDMDL
MODEL 8
REMARK VINA RESULT:      -7.3      2.023      2.497
REMARK  Name = 
REMARK  6 active torsions:
REMARK  status: ('A' for Active; 'I' for Inactive)
REMARK    1  A    between atoms: N_2  and  C_4
REMARK    2  A    between atoms: C_10  and  C_11
REMARK    3  A    between atoms: C_11  and  C_12
REMARK    4  A    between atoms: C_12  and  O_13
REMARK    5  A    between atoms: C_12  and  C_14
REMARK    6  A    between atoms: C_17  and  N_18
REMARK                            x       y       z     vdW  Elec       q    Type
REMARK                         _______ _______ _______ _____ _____    ______ ____
ROOT
ATOM      1  C   UNL     1       3.375   5.376  19.193  0.00  0.00    +0.000 C 
ENDROOT
BRANCH   1   2
ATOM      2  C   UNL     1       2.624   6.697  19.261  0.00  0.00    +0.000 A 
ATOM      3  C   UNL     1       1.991   7.055  20.463  0.00  0.00    +0.000 A 
ATOM      4  C   UNL     1       1.308   8.271  20.596  0.00  0.00    +0.000 A 
ATOM      5  C   UNL     1       1.242   9.157  19.515  0.00  0.00    +0.000 A 
ATOM      6  C   UNL     1       1.879   8.817  18.313  0.00  0.00    +0.000 A 
ATOM      7  C   UNL     1       2.570   7.605  18.194  0.00  0.00    +0.000 A 
BRANCH   5   8
ATOM      8  N   UNL     1       0.536  10.384  19.614  0.00  0.00    +0.000 N 
ATOM      9  C   UNL     1      -0.363  10.787  20.573  0.00  0.00    +0.000 A 
ATOM     10  N   UNL     1      -0.846  11.976  20.287  0.00  0.00    +0.000 NA
ATOM     11  C   UNL     1      -0.194  12.287  19.131  0.00  0.00    +0.000 A 
ATOM     12  N   UNL     1       0.666  11.368  18.692  0.00  0.00    +0.000 NA
ENDBRANCH   5   8
ENDBRANCH   1   2
BRANCH   1  13
ATOM     13  O   UNL     1       3.107   4.642  20.386  0.00  0.00    +0.000 OA
ATOM     14  H   UNL     1       3.959   4.453  20.819  0.00  0.00    +0.000 HD
ENDBRANCH   1  13
BRANCH   1  15
ATOM     15  C   UNL     1       4.899   5.503  19.013  0.00  0.00    +0.000 C 
BRANCH  15  22
ATOM     16  C   UNL     1       6.510   5.698  16.983  0.00  0.00    +0.000 A 
ATOM     17  C   UNL     1       6.867   5.351  15.670  0.00  0.00    +0.000 A 
ATOM     18  C   UNL     1       6.102   4.414  14.985  0.00  0.00    +0.000 A 
ATOM     19 BR   UNL     1       6.547   3.959  13.205  0.00  0.00    +0.000 Br
ATOM     20  C   UNL     1       5.008   3.810  15.600  0.00  0.00    +0.000 A 
ATOM     21  C   UNL     1       4.651   4.170  16.904  0.00  0.00    +0.000 A 
ATOM     22  C   UNL     1       5.378   5.142  17.617  0.00  0.00    +0.000 A 
BRANCH  16  24
ATOM     23  O   UNL     1       8.000   6.270  18.646  0.00  0.00    +0.000 OA
ATOM     24  N   UNL     1       7.377   6.664  17.650  0.00  0.00    +0.000 N 
ATOM     25  O   UNL     1       7.481   7.789  17.145  0.00  0.00    +0.000 OA
ENDBRANCH  16  24
ENDBRANCH  15  22
ENDBRANCH   1  15
TORSDOF 6
ENDMDL
MODEL 9
REMARK VINA RESULT:      -7.3      2.255      2.629
REMARK  Name = 
REMARK  6 active torsions:
REMARK  status: ('A' for Active; 'I' for Inactive)
REMARK    1  A    between atoms: N_2  and  C_4
REMARK    2  A    between atoms: C_10  and  C_11
REMARK    3  A    between atoms: C_11  and  C_12
REMARK    4  A    between atoms: C_12  and  O_13
REMARK    5  A    between atoms: C_12  and  C_14
REMARK    6  A    between atoms: C_17  and  N_18
REMARK                            x       y       z     vdW  Elec       q    Type
REMARK                         _______ _______ _______ _____ _____    ______ ____
ROOT
ATOM      1  C   UNL     1       3.205   5.856  19.294  0.00  0.00    +0.000 C 
ENDROOT
BRANCH   1   2
ATOM      2  C   UNL     1       2.433   7.162  19.406  0.00  0.00    +0.000 A 
ATOM      3  C   UNL     1       2.328   7.984  18.272  0.00  0.00    +0.000 A 
ATOM      4  C   UNL     1       1.606   9.185  18.306  0.00  0.00    +0.000 A 
ATOM      5  C   UNL     1       0.975   9.589  19.487  0.00  0.00    +0.000 A 
ATOM      6  C   UNL     1       1.061   8.771  20.622  0.00  0.00    +0.000 A 
ATOM      7  C   UNL     1       1.774   7.566  20.576  0.00  0.00    +0.000 A 
BRANCH   5   8
ATOM      8  N   UNL     1       0.258  10.811  19.555  0.00  0.00    +0.000 N 
ATOM      9  C   UNL     1      -0.171  11.618  18.527  0.00  0.00    +0.000 A 
ATOM     10  N   UNL     1      -0.756  12.697  18.997  0.00  0.00    +0.000 NA
ATOM     11  C   UNL     1      -0.683  12.508  20.344  0.00  0.00    +0.000 A 
ATOM     12  N   UNL     1      -0.098  11.375  20.734  0.00  0.00    +0.000 NA
ENDBRANCH   5   8
ENDBRANCH   1   2
BRANCH   1  13
ATOM     13  O   UNL     1       2.982   5.096  20.481  0.00  0.00    +0.000 OA
ATOM     14  H   UNL     1       3.488   5.512  21.202  0.00  0.00    +0.000 HD
ENDBRANCH   1  13
BRANCH   1  15
ATOM     15  C   UNL     1       4.721   6.013  19.077  0.00  0.00    +0.000 C 
BRANCH  15  22
ATOM     16  C   UNL     1       6.399   5.892  17.096  0.00  0.00    +0.000 A 
ATOM     17  C   UNL     1       6.753   5.416  15.823  0.00  0.00    +0.000 A 
ATOM     18  C   UNL     1       5.912   4.515  15.178  0.00  0.00    +0.000 A 
ATOM     19 BR   UNL     1       6.355   3.889  13.450  0.00  0.00    +0.000 Br
ATOM     20  C   UNL     1       4.744   4.075  15.795  0.00  0.00    +0.000 A 
ATOM     21  C   UNL     1       4.391   4.564  17.058  0.00  0.00    +0.000 A 
ATOM     22  C   UNL     1       5.197   5.504  17.726  0.00  0.00    +0.000 A 
BRANCH  16  24
ATOM     23  O   UNL     1       7.984   6.382  18.696  0.00  0.00    +0.000 OA
ATOM     24  N   UNL     1       7.345   6.808  17.724  0.00  0.00    +0.000 N 
ATOM     25  O   UNL     1       7.493   7.925  17.210  0.00  0.00    +0.000 OA
ENDBRANCH  16  24
ENDBRANCH  15  22
ENDBRANCH   1  15
TORSDOF 6
ENDMDL
