MODEL 1
REMARK VINA RESULT:      -6.9      0.000      0.000
REMARK  Name = 
REMARK  4 active torsions:
REMARK  status: ('A' for Active; 'I' for Inactive)
REMARK    1  A    between atoms: C_1  and  N_2
REMARK    2  A    between atoms: N_2  and  C_3
REMARK    3  A    between atoms: C_6  and  C_7
REMARK    4  A    between atoms: C_7  and  O_8
REMARK                            x       y       z     vdW  Elec       q    Type
REMARK                         _______ _______ _______ _____ _____    ______ ____
ROOT
ATOM      1  C   UNL     1       5.266   5.121  16.459  0.00  0.00    +0.000 C 
ATOM      2  C   UNL     1       6.498   4.198  16.740  0.00  0.00    +0.000 C 
ATOM      3  C   UNL     1       7.263   4.588  18.008  0.00  0.00    +0.000 C 
ATOM      4  C   UNL     1       7.776   6.061  17.926  0.00  0.00    +0.000 C 
ATOM      5  C   UNL     1       6.731   7.038  17.265  0.00  0.00    +0.000 C 
ATOM      6  C   UNL     1       5.383   6.360  17.405  0.00  0.00    +0.000 C 
ATOM      7  C   UNL     1       4.005   6.999  17.499  0.00  0.00    +0.000 C 
ATOM      8  C   UNL     1       3.251   5.686  17.666  0.00  0.00    +0.000 A 
ATOM      9  C   UNL     1       2.165   5.397  18.466  0.00  0.00    +0.000 A 
ATOM     10  C   UNL     1       1.735   4.066  18.551  0.00  0.00    +0.000 A 
ATOM     11  C   UNL     1       2.355   3.049  17.803  0.00  0.00    +0.000 A 
ATOM     12  C   UNL     1       3.465   3.336  17.018  0.00  0.00    +0.000 A 
ATOM     13  C   UNL     1       3.939   4.647  17.010  0.00  0.00    +0.000 A 
ENDROOT
BRANCH   1  15
ATOM     14  C   UNL     1       5.981   4.359  14.150  0.00  0.00    +0.000 C 
ATOM     15  N   UNL     1       5.222   5.261  14.994  0.00  0.00    +0.000 NA
ATOM     16  H   UNL     1       4.258   5.284  14.665  0.00  0.00    +0.000 HD
ENDBRANCH   1  15
BRANCH   4  17
ATOM     17  C   UNL     1       8.156   6.526  19.343  0.00  0.00    +0.000 C 
BRANCH  17  18
ATOM     18  O   UNL     1       7.865   5.510  20.292  0.00  0.00    +0.000 OA
ATOM     19  H   UNL     1       7.482   5.949  21.071  0.00  0.00    +0.000 HD
ENDBRANCH  17  18
ENDBRANCH   4  17
TORSDOF 3
ENDMDL
MODEL 2
REMARK VINA RESULT:      -6.8      2.365      4.614
REMARK  Name = 
REMARK  4 active torsions:
REMARK  status: ('A' for Active; 'I' for Inactive)
REMARK    1  A    between atoms: C_1  and  N_2
REMARK    2  A    between atoms: N_2  and  C_3
REMARK    3  A    between atoms: C_6  and  C_7
REMARK    4  A    between atoms: C_7  and  O_8
REMARK                            x       y       z     vdW  Elec       q    Type
REMARK                         _______ _______ _______ _____ _____    ______ ____
ROOT
ATOM      1  C   UNL     1       4.176   3.838  17.980  0.00  0.00    +0.000 C 
ATOM      2  C   UNL     1       2.693   4.085  17.549  0.00  0.00    +0.000 C 
ATOM      3  C   UNL     1       2.190   5.487  17.904  0.00  0.00    +0.000 C 
ATOM      4  C   UNL     1       2.292   5.750  19.441  0.00  0.00    +0.000 C 
ATOM      5  C   UNL     1       3.611   5.165  20.076  0.00  0.00    +0.000 C 
ATOM      6  C   UNL     1       4.589   5.009  18.931  0.00  0.00    +0.000 C 
ATOM      7  C   UNL     1       6.110   5.056  18.968  0.00  0.00    +0.000 C 
ATOM      8  C   UNL     1       6.295   4.878  17.467  0.00  0.00    +0.000 A 
ATOM      9  C   UNL     1       7.210   5.472  16.622  0.00  0.00    +0.000 A 
ATOM     10  C   UNL     1       7.088   5.249  15.244  0.00  0.00    +0.000 A 
ATOM     11  C   UNL     1       6.091   4.401  14.727  0.00  0.00    +0.000 A 
ATOM     12  C   UNL     1       5.154   3.825  15.576  0.00  0.00    +0.000 A 
ATOM     13  C   UNL     1       5.231   4.124  16.935  0.00  0.00    +0.000 A 
ENDROOT
BRANCH   1  15
ATOM     14  C   UNL     1       2.985   1.706  18.659  0.00  0.00    +0.000 C 
ATOM     15  N   UNL     1       4.217   2.432  18.416  0.00  0.00    +0.000 NA
ATOM     16  H   UNL     1       4.804   1.881  17.793  0.00  0.00    +0.000 HD
ENDBRANCH   1  15
BRANCH   4  17
ATOM     17  C   UNL     1       2.177   7.264  19.687  0.00  0.00    +0.000 C 
BRANCH  17  18
ATOM     18  O   UNL     1       1.864   7.523  21.048  0.00  0.00    +0.000 OA
ATOM     19  H   UNL     1       2.662   7.325  21.567  0.00  0.00    +0.000 HD
ENDBRANCH  17  18
ENDBRANCH   4  17
TORSDOF 3
ENDMDL
MODEL 3
REMARK VINA RESULT:      -6.7      2.320      5.081
REMARK  Name = 
REMARK  4 active torsions:
REMARK  status: ('A' for Active; 'I' for Inactive)
REMARK    1  A    between atoms: C_1  and  N_2
REMARK    2  A    between atoms: N_2  and  C_3
REMARK    3  A    between atoms: C_6  and  C_7
REMARK    4  A    between atoms: C_7  and  O_8
REMARK                            x       y       z     vdW  Elec       q    Type
REMARK                         _______ _______ _______ _____ _____    ______ ____
ROOT
ATOM      1  C   UNL     1       2.820   5.616  18.351  0.00  0.00    +0.000 C 
ATOM      2  C   UNL     1       2.832   6.003  19.867  0.00  0.00    +0.000 C 
ATOM      3  C   UNL     1       2.727   4.791  20.796  0.00  0.00    +0.000 C 
ATOM      4  C   UNL     1       1.422   3.978  20.518  0.00  0.00    +0.000 C 
ATOM      5  C   UNL     1       1.085   3.867  18.983  0.00  0.00    +0.000 C 
ATOM      6  C   UNL     1       2.388   4.117  18.253  0.00  0.00    +0.000 C 
ATOM      7  C   UNL     1       2.826   3.600  16.890  0.00  0.00    +0.000 C 
ATOM      8  C   UNL     1       4.208   4.237  16.934  0.00  0.00    +0.000 A 
ATOM      9  C   UNL     1       5.417   3.737  16.494  0.00  0.00    +0.000 A 
ATOM     10  C   UNL     1       6.582   4.464  16.776  0.00  0.00    +0.000 A 
ATOM     11  C   UNL     1       6.527   5.700  17.445  0.00  0.00    +0.000 A 
ATOM     12  C   UNL     1       5.313   6.190  17.911  0.00  0.00    +0.000 A 
ATOM     13  C   UNL     1       4.173   5.417  17.703  0.00  0.00    +0.000 A 
ENDROOT
BRANCH   1  15
ATOM     14  C   UNL     1       2.182   8.060  18.146  0.00  0.00    +0.000 C 
ATOM     15  N   UNL     1       2.059   6.690  17.689  0.00  0.00    +0.000 NA
ATOM     16  H   UNL     1       2.208   6.665  16.682  0.00  0.00    +0.000 HD
ENDBRANCH   1  15
BRANCH   4  17
ATOM     17  C   UNL     1       1.566   2.588  21.162  0.00  0.00    +0.000 C 
BRANCH  17  18
ATOM     18  O   UNL     1       2.689   2.558  22.031  0.00  0.00    +0.000 OA
ATOM     19  H   UNL     1       2.993   3.475  22.135  0.00  0.00    +0.000 HD
ENDBRANCH  17  18
ENDBRANCH   4  17
TORSDOF 3
ENDMDL
MODEL 4
REMARK VINA RESULT:      -6.7      2.280      5.103
REMARK  Name = 
REMARK  4 active torsions:
REMARK  status: ('A' for Active; 'I' for Inactive)
REMARK    1  A    between atoms: C_1  and  N_2
REMARK    2  A    between atoms: N_2  and  C_3
REMARK    3  A    between atoms: C_6  and  C_7
REMARK    4  A    between atoms: C_7  and  O_8
REMARK                            x       y       z     vdW  Elec       q    Type
REMARK                         _______ _______ _______ _____ _____    ______ ____
ROOT
ATOM      1  C   UNL     1       3.781   5.642  18.343  0.00  0.00    +0.000 C 
ATOM      2  C   UNL     1       3.286   5.375  19.803  0.00  0.00    +0.000 C 
ATOM      3  C   UNL     1       2.816   3.935  20.023  0.00  0.00    +0.000 C 
ATOM      4  C   UNL     1       1.654   3.565  19.047  0.00  0.00    +0.000 C 
ATOM      5  C   UNL     1       1.862   4.148  17.598  0.00  0.00    +0.000 C 
ATOM      6  C   UNL     1       3.346   4.420  17.470  0.00  0.00    +0.000 C 
ATOM      7  C   UNL     1       4.206   4.424  16.213  0.00  0.00    +0.000 C 
ATOM      8  C   UNL     1       5.513   4.717  16.937  0.00  0.00    +0.000 A 
ATOM      9  C   UNL     1       6.777   4.219  16.695  0.00  0.00    +0.000 A 
ATOM     10  C   UNL     1       7.803   4.536  17.595  0.00  0.00    +0.000 A 
ATOM     11  C   UNL     1       7.574   5.384  18.694  0.00  0.00    +0.000 A 
ATOM     12  C   UNL     1       6.295   5.863  18.952  0.00  0.00    +0.000 A 
ATOM     13  C   UNL     1       5.265   5.470  18.101  0.00  0.00    +0.000 A 
ENDROOT
BRANCH   1  15
ATOM     14  C   UNL     1       2.317   7.649  18.842  0.00  0.00    +0.000 C 
ATOM     15  N   UNL     1       3.341   7.014  18.037  0.00  0.00    +0.000 NA
ATOM     16  H   UNL     1       4.141   7.640  17.970  0.00  0.00    +0.000 HD
ENDBRANCH   1  15
BRANCH   4  17
ATOM     17  C   UNL     1       1.508   2.034  19.018  0.00  0.00    +0.000 C 
BRANCH  17  18
ATOM     18  O   UNL     1       2.732   1.427  18.630  0.00  0.00    +0.000 OA
ATOM     19  H   UNL     1       3.437   1.846  19.153  0.00  0.00    +0.000 HD
ENDBRANCH  17  18
ENDBRANCH   4  17
TORSDOF 3
ENDMDL
MODEL 5
REMARK VINA RESULT:      -6.6      2.603      4.597
REMARK  Name = 
REMARK  4 active torsions:
REMARK  status: ('A' for Active; 'I' for Inactive)
REMARK    1  A    between atoms: C_1  and  N_2
REMARK    2  A    between atoms: N_2  and  C_3
REMARK    3  A    between atoms: C_6  and  C_7
REMARK    4  A    between atoms: C_7  and  O_8
REMARK                            x       y       z     vdW  Elec       q    Type
REMARK                         _______ _______ _______ _____ _____    ______ ____
ROOT
ATOM      1  C   UNL     1       5.341   4.836  18.780  0.00  0.00    +0.000 C 
ATOM      2  C   UNL     1       4.972   3.402  19.286  0.00  0.00    +0.000 C 
ATOM      3  C   UNL     1       3.475   3.098  19.186  0.00  0.00    +0.000 C 
ATOM      4  C   UNL     1       2.634   4.127  20.007  0.00  0.00    +0.000 C 
ATOM      5  C   UNL     1       3.182   5.600  19.888  0.00  0.00    +0.000 C 
ATOM      6  C   UNL     1       4.006   5.634  18.618  0.00  0.00    +0.000 C 
ATOM      7  C   UNL     1       4.286   6.815  17.699  0.00  0.00    +0.000 C 
ATOM      8  C   UNL     1       5.101   6.019  16.688  0.00  0.00    +0.000 A 
ATOM      9  C   UNL     1       5.125   6.118  15.312  0.00  0.00    +0.000 A 
ATOM     10  C   UNL     1       5.861   5.170  14.588  0.00  0.00    +0.000 A 
ATOM     11  C   UNL     1       6.602   4.168  15.240  0.00  0.00    +0.000 A 
ATOM     12  C   UNL     1       6.556   4.052  16.624  0.00  0.00    +0.000 A 
ATOM     13  C   UNL     1       5.751   4.946  17.328  0.00  0.00    +0.000 A 
ENDROOT
BRANCH   1  15
ATOM     14  C   UNL     1       7.623   5.882  19.135  0.00  0.00    +0.000 C 
ATOM     15  N   UNL     1       6.415   5.291  19.679  0.00  0.00    +0.000 NA
ATOM     16  H   UNL     1       6.043   5.910  20.397  0.00  0.00    +0.000 HD
ENDBRANCH   1  15
BRANCH   4  17
ATOM     17  C   UNL     1       1.168   4.038  19.549  0.00  0.00    +0.000 C 
BRANCH  17  18
ATOM     18  O   UNL     1       0.451   3.117  20.359  0.00  0.00    +0.000 OA
ATOM     19  H   UNL     1      -0.299   2.796  19.831  0.00  0.00    +0.000 HD
ENDBRANCH  17  18
ENDBRANCH   4  17
TORSDOF 3
ENDMDL
MODEL 6
REMARK VINA RESULT:      -6.5      1.526      1.604
REMARK  Name = 
REMARK  4 active torsions:
REMARK  status: ('A' for Active; 'I' for Inactive)
REMARK    1  A    between atoms: C_1  and  N_2
REMARK    2  A    between atoms: N_2  and  C_3
REMARK    3  A    between atoms: C_6  and  C_7
REMARK    4  A    between atoms: C_7  and  O_8
REMARK                            x       y       z     vdW  Elec       q    Type
REMARK                         _______ _______ _______ _____ _____    ______ ____
ROOT
ATOM      1  C   UNL     1       5.198   4.811  17.314  0.00  0.00    +0.000 C 
ATOM      2  C   UNL     1       6.690   4.452  17.618  0.00  0.00    +0.000 C 
ATOM      3  C   UNL     1       7.481   5.622  18.209  0.00  0.00    +0.000 C 
ATOM      4  C   UNL     1       7.471   6.853  17.248  0.00  0.00    +0.000 C 
ATOM      5  C   UNL     1       6.074   7.075  16.552  0.00  0.00    +0.000 C 
ATOM      6  C   UNL     1       5.059   6.365  17.423  0.00  0.00    +0.000 C 
ATOM      7  C   UNL     1       3.582   6.682  17.611  0.00  0.00    +0.000 C 
ATOM      8  C   UNL     1       3.331   5.585  18.636  0.00  0.00    +0.000 A 
ATOM      9  C   UNL     1       2.539   5.609  19.767  0.00  0.00    +0.000 A 
ATOM     10  C   UNL     1       2.582   4.509  20.634  0.00  0.00    +0.000 A 
ATOM     11  C   UNL     1       3.368   3.379  20.343  0.00  0.00    +0.000 A 
ATOM     12  C   UNL     1       4.185   3.367  19.219  0.00  0.00    +0.000 A 
ATOM     13  C   UNL     1       4.202   4.502  18.410  0.00  0.00    +0.000 A 
ENDROOT
BRANCH   1  15
ATOM     14  C   UNL     1       5.927   3.741  15.136  0.00  0.00    +0.000 C 
ATOM     15  N   UNL     1       4.876   4.087  16.073  0.00  0.00    +0.000 NA
ATOM     16  H   UNL     1       4.332   3.251  16.278  0.00  0.00    +0.000 HD
ENDBRANCH   1  15
BRANCH   4  17
ATOM     17  C   UNL     1       7.903   8.098  18.042  0.00  0.00    +0.000 C 
BRANCH  17  18
ATOM     18  O   UNL     1       8.733   7.725  19.133  0.00  0.00    +0.000 OA
ATOM     19  H   UNL     1       8.979   8.543  19.597  0.00  0.00    +0.000 HD
ENDBRANCH  17  18
ENDBRANCH   4  17
TORSDOF 3
ENDMDL
MODEL 7
REMARK VINA RESULT:      -6.5      2.089      2.926
REMARK  Name = 
REMARK  4 active torsions:
REMARK  status: ('A' for Active; 'I' for Inactive)
REMARK    1  A    between atoms: C_1  and  N_2
REMARK    2  A    between atoms: N_2  and  C_3
REMARK    3  A    between atoms: C_6  and  C_7
REMARK    4  A    between atoms: C_7  and  O_8
REMARK                            x       y       z     vdW  Elec       q    Type
REMARK                         _______ _______ _______ _____ _____    ______ ____
ROOT
ATOM      1  C   UNL     1       3.860   5.228  18.227  0.00  0.00    +0.000 C 
ATOM      2  C   UNL     1       4.978   4.461  19.008  0.00  0.00    +0.000 C 
ATOM      3  C   UNL     1       6.238   5.301  19.233  0.00  0.00    +0.000 C 
ATOM      4  C   UNL     1       6.845   5.782  17.876  0.00  0.00    +0.000 C 
ATOM      5  C   UNL     1       5.746   6.213  16.832  0.00  0.00    +0.000 C 
ATOM      6  C   UNL     1       4.505   6.526  17.641  0.00  0.00    +0.000 C 
ATOM      7  C   UNL     1       3.375   7.492  17.311  0.00  0.00    +0.000 C 
ATOM      8  C   UNL     1       2.606   7.257  18.604  0.00  0.00    +0.000 A 
ATOM      9  C   UNL     1       1.919   8.160  19.390  0.00  0.00    +0.000 A 
ATOM     10  C   UNL     1       1.405   7.721  20.617  0.00  0.00    +0.000 A 
ATOM     11  C   UNL     1       1.535   6.381  21.026  0.00  0.00    +0.000 A 
ATOM     12  C   UNL     1       2.249   5.479  20.247  0.00  0.00    +0.000 A 
ATOM     13  C   UNL     1       2.831   5.947  19.071  0.00  0.00    +0.000 A 
ENDROOT
BRANCH   1  15
ATOM     14  C   UNL     1       3.377   2.803  17.671  0.00  0.00    +0.000 C 
ATOM     15  N   UNL     1       3.234   4.213  17.363  0.00  0.00    +0.000 NA
ATOM     16  H   UNL     1       2.247   4.420  17.226  0.00  0.00    +0.000 HD
ENDBRANCH   1  15
BRANCH   4  17
ATOM     17  C   UNL     1       7.828   6.931  18.159  0.00  0.00    +0.000 C 
BRANCH  17  18
ATOM     18  O   UNL     1       7.727   7.929  17.154  0.00  0.00    +0.000 OA
ATOM     19  H   UNL     1       6.808   7.921  16.835  0.00  0.00    +0.000 HD
ENDBRANCH  17  18
ENDBRANCH   4  17
TORSDOF 3
ENDMDL
MODEL 8
REMARK VINA RESULT:      -6.4      2.976      5.128
REMARK  Name = 
REMARK  4 active torsions:
REMARK  status: ('A' for Active; 'I' for Inactive)
REMARK    1  A    between atoms: C_1  and  N_2
REMARK    2  A    between atoms: N_2  and  C_3
REMARK    3  A    between atoms: C_6  and  C_7
REMARK    4  A    between atoms: C_7  and  O_8
REMARK                            x       y       z     vdW  Elec       q    Type
REMARK                         _______ _______ _______ _____ _____    ______ ____
ROOT
ATOM      1  C   UNL     1       3.564   5.387  18.860  0.00  0.00    +0.000 C 
ATOM      2  C   UNL     1       3.483   4.555  17.538  0.00  0.00    +0.000 C 
ATOM      3  C   UNL     1       2.212   3.707  17.438  0.00  0.00    +0.000 C 
ATOM      4  C   UNL     1       2.101   2.713  18.638  0.00  0.00    +0.000 C 
ATOM      5  C   UNL     1       2.559   3.349  20.005  0.00  0.00    +0.000 C 
ATOM      6  C   UNL     1       2.454   4.849  19.821  0.00  0.00    +0.000 C 
ATOM      7  C   UNL     1       2.198   5.920  20.872  0.00  0.00    +0.000 C 
ATOM      8  C   UNL     1       2.188   7.084  19.891  0.00  0.00    +0.000 A 
ATOM      9  C   UNL     1       1.386   8.206  19.873  0.00  0.00    +0.000 A 
ATOM     10  C   UNL     1       1.477   9.074  18.776  0.00  0.00    +0.000 A 
ATOM     11  C   UNL     1       2.397   8.843  17.737  0.00  0.00    +0.000 A 
ATOM     12  C   UNL     1       3.185   7.699  17.742  0.00  0.00    +0.000 A 
ATOM     13  C   UNL     1       3.024   6.798  18.793  0.00  0.00    +0.000 A 
ENDROOT
BRANCH   1  15
ATOM     14  C   UNL     1       5.953   4.675  18.405  0.00  0.00    +0.000 C 
ATOM     15  N   UNL     1       4.989   5.372  19.233  0.00  0.00    +0.000 NA
ATOM     16  H   UNL     1       5.324   6.319  19.400  0.00  0.00    +0.000 HD
ENDBRANCH   1  15
BRANCH   4  17
ATOM     17  C   UNL     1       0.653   2.201  18.717  0.00  0.00    +0.000 C 
BRANCH  17  18
ATOM     18  O   UNL     1       0.014   2.698  19.884  0.00  0.00    +0.000 OA
ATOM     19  H   UNL     1      -0.286   3.600  19.684  0.00  0.00    +0.000 HD
ENDBRANCH  17  18
ENDBRANCH   4  17
TORSDOF 3
ENDMDL
MODEL 9
REMARK VINA RESULT:      -6.4      2.447      3.865
REMARK  Name = 
REMARK  4 active torsions:
REMARK  status: ('A' for Active; 'I' for Inactive)
REMARK    1  A    between atoms: C_1  and  N_2
REMARK    2  A    between atoms: N_2  and  C_3
REMARK    3  A    between atoms: C_6  and  C_7
REMARK    4  A    between atoms: C_7  and  O_8
REMARK                            x       y       z     vdW  Elec       q    Type
REMARK                         _______ _______ _______ _____ _____    ______ ____
ROOT
ATOM      1  C   UNL     1       5.254   5.171  18.614  0.00  0.00    +0.000 C 
ATOM      2  C   UNL     1       5.400   6.433  17.701  0.00  0.00    +0.000 C 
ATOM      3  C   UNL     1       5.067   6.154  16.233  0.00  0.00    +0.000 C 
ATOM      4  C   UNL     1       5.984   5.031  15.650  0.00  0.00    +0.000 C 
ATOM      5  C   UNL     1       6.240   3.859  16.671  0.00  0.00    +0.000 C 
ATOM      6  C   UNL     1       5.110   3.928  17.676  0.00  0.00    +0.000 C 
ATOM      7  C   UNL     1       4.498   2.802  18.497  0.00  0.00    +0.000 C 
ATOM      8  C   UNL     1       3.444   3.671  19.168  0.00  0.00    +0.000 A 
ATOM      9  C   UNL     1       2.131   3.374  19.474  0.00  0.00    +0.000 A 
ATOM     10  C   UNL     1       1.314   4.400  19.970  0.00  0.00    +0.000 A 
ATOM     11  C   UNL     1       1.822   5.691  20.202  0.00  0.00    +0.000 A 
ATOM     12  C   UNL     1       3.136   5.995  19.868  0.00  0.00    +0.000 A 
ATOM     13  C   UNL     1       3.915   4.993  19.294  0.00  0.00    +0.000 A 
ENDROOT
BRANCH   1  15
ATOM     14  C   UNL     1       7.626   5.839  19.204  0.00  0.00    +0.000 C 
ATOM     15  N   UNL     1       6.346   5.282  19.595  0.00  0.00    +0.000 NA
ATOM     16  H   UNL     1       6.025   5.759  20.436  0.00  0.00    +0.000 HD
ENDBRANCH   1  15
BRANCH   4  17
ATOM     17  C   UNL     1       5.351   4.511  14.348  0.00  0.00    +0.000 C 
BRANCH  17  18
ATOM     18  O   UNL     1       6.162   3.496  13.774  0.00  0.00    +0.000 OA
ATOM     19  H   UNL     1       7.013   3.511  14.244  0.00  0.00    +0.000 HD
ENDBRANCH  17  18
ENDBRANCH   4  17
TORSDOF 3
ENDMDL
