MODEL 1
REMARK VINA RESULT:      -6.6      0.000      0.000
REMARK  Name = 
REMARK  3 active torsions:
REMARK  status: ('A' for Active; 'I' for Inactive)
REMARK    1  A    between atoms: N_1  and  C_2
REMARK    2  A    between atoms: C_2  and  C_3
REMARK    3  A    between atoms: N_8  and  C_9
REMARK                            x       y       z     vdW  Elec       q    Type
REMARK                         _______ _______ _______ _____ _____    ______ ____
ROOT
ATOM      1  C   UNL     1       4.556   5.534  16.750  0.00  0.00    +0.000 C 
ATOM      2  C   UNL     1       3.756   4.436  16.013  0.00  0.00    +0.000 C 
ATOM      3  C   UNL     1       3.729   3.146  16.840  0.00  0.00    +0.000 C 
ATOM      4  C   UNL     1       3.382   3.394  18.289  0.00  0.00    +0.000 A 
ATOM      5  C   UNL     1       3.135   2.296  19.132  0.00  0.00    +0.000 A 
ATOM      6  F   UNL     1       3.215   1.030  18.650  0.00  0.00    +0.000 F 
ATOM      7  C   UNL     1       2.805   2.498  20.473  0.00  0.00    +0.000 A 
ATOM      8  C   UNL     1       2.708   3.793  20.987  0.00  0.00    +0.000 A 
ATOM      9  F   UNL     1       2.393   3.982  22.290  0.00  0.00    +0.000 F 
ATOM     10  C   UNL     1       2.960   4.893  20.164  0.00  0.00    +0.000 A 
ATOM     11  C   UNL     1       3.320   4.706  18.821  0.00  0.00    +0.000 A 
ATOM     12  C   UNL     1       3.688   5.911  17.974  0.00  0.00    +0.000 C 
ENDROOT
BRANCH   1  18
ATOM     13  C   UNL     1       6.734   5.045  18.183  0.00  0.00    +0.000 A 
ATOM     14  C   UNL     1       7.965   4.498  17.879  0.00  0.00    +0.000 A 
ATOM     15  N   UNL     1       8.010   4.220  16.574  0.00  0.00    +0.000 N 
ATOM     16  C   UNL     1       6.818   4.588  16.078  0.00  0.00    +0.000 A 
ATOM     17  S   UNL     1       6.521   4.474  14.673  0.00  0.00    +0.000 S 
ATOM     18  N   UNL     1       5.966   5.083  17.035  0.00  0.00    +0.000 N 
ATOM     19  H   UNL     1       8.824   3.812  16.059  0.00  0.00    +0.000 HD
BRANCH  13  20
ATOM     20  C   UNL     1       6.458   5.504  19.599  0.00  0.00    +0.000 C 
BRANCH  20  21
ATOM     21  N   UNL     1       7.691   5.532  20.383  0.00  0.00    +0.000 NA
ATOM     22  H   UNL     1       8.465   5.886  19.774  0.00  0.00    +0.000 HD
ATOM     23  H   UNL     1       7.943   4.559  20.669  0.00  0.00    +0.000 HD
ENDBRANCH  20  21
ENDBRANCH  13  20
ENDBRANCH   1  18
TORSDOF 3
ENDMDL
MODEL 2
REMARK VINA RESULT:      -6.3      2.044      2.389
REMARK  Name = 
REMARK  3 active torsions:
REMARK  status: ('A' for Active; 'I' for Inactive)
REMARK    1  A    between atoms: N_1  and  C_2
REMARK    2  A    between atoms: C_2  and  C_3
REMARK    3  A    between atoms: N_8  and  C_9
REMARK                            x       y       z     vdW  Elec       q    Type
REMARK                         _______ _______ _______ _____ _____    ______ ____
ROOT
ATOM      1  C   UNL     1       3.416   6.426  18.602  0.00  0.00    +0.000 C 
ATOM      2  C   UNL     1       2.158   6.310  17.711  0.00  0.00    +0.000 C 
ATOM      3  C   UNL     1       1.698   4.851  17.619  0.00  0.00    +0.000 C 
ATOM      4  C   UNL     1       1.651   4.172  18.969  0.00  0.00    +0.000 A 
ATOM      5  C   UNL     1       1.073   2.895  19.073  0.00  0.00    +0.000 A 
ATOM      6  F   UNL     1       0.571   2.278  17.973  0.00  0.00    +0.000 F 
ATOM      7  C   UNL     1       1.009   2.250  20.309  0.00  0.00    +0.000 A 
ATOM      8  C   UNL     1       1.511   2.871  21.454  0.00  0.00    +0.000 A 
ATOM      9  F   UNL     1       1.451   2.238  22.649  0.00  0.00    +0.000 F 
ATOM     10  C   UNL     1       2.096   4.136  21.364  0.00  0.00    +0.000 A 
ATOM     11  C   UNL     1       2.193   4.786  20.125  0.00  0.00    +0.000 A 
ATOM     12  C   UNL     1       2.924   6.114  20.035  0.00  0.00    +0.000 C 
ENDROOT
BRANCH   1  18
ATOM     13  C   UNL     1       5.181   4.447  18.554  0.00  0.00    +0.000 A 
ATOM     14  C   UNL     1       6.132   4.046  17.636  0.00  0.00    +0.000 A 
ATOM     15  N   UNL     1       6.132   4.898  16.608  0.00  0.00    +0.000 N 
ATOM     16  C   UNL     1       5.189   5.812  16.887  0.00  0.00    +0.000 A 
ATOM     17  S   UNL     1       4.939   6.925  16.008  0.00  0.00    +0.000 S 
ATOM     18  N   UNL     1       4.539   5.571  18.073  0.00  0.00    +0.000 N 
ATOM     19  H   UNL     1       6.758   4.852  15.771  0.00  0.00    +0.000 HD
BRANCH  13  20
ATOM     20  C   UNL     1       5.029   3.672  19.847  0.00  0.00    +0.000 C 
BRANCH  20  21
ATOM     21  N   UNL     1       4.862   2.245  19.578  0.00  0.00    +0.000 NA
ATOM     22  H   UNL     1       5.788   1.773  19.694  0.00  0.00    +0.000 HD
ATOM     23  H   UNL     1       4.569   2.112  18.584  0.00  0.00    +0.000 HD
ENDBRANCH  20  21
ENDBRANCH  13  20
ENDBRANCH   1  18
TORSDOF 3
ENDMDL
MODEL 3
REMARK VINA RESULT:      -6.2      9.746     11.462
REMARK  Name = 
REMARK  3 active torsions:
REMARK  status: ('A' for Active; 'I' for Inactive)
REMARK    1  A    between atoms: N_1  and  C_2
REMARK    2  A    between atoms: C_2  and  C_3
REMARK    3  A    between atoms: N_8  and  C_9
REMARK                            x       y       z     vdW  Elec       q    Type
REMARK                         _______ _______ _______ _____ _____    ______ ____
ROOT
ATOM      1  C   UNL     1      10.839  14.848  17.588  0.00  0.00    +0.000 C 
ATOM      2  C   UNL     1      11.821  14.833  18.781  0.00  0.00    +0.000 C 
ATOM      3  C   UNL     1      11.177  14.159  19.998  0.00  0.00    +0.000 C 
ATOM      4  C   UNL     1      10.500  12.854  19.646  0.00  0.00    +0.000 A 
ATOM      5  C   UNL     1      10.027  12.028  20.680  0.00  0.00    +0.000 A 
ATOM      6  F   UNL     1      10.170  12.403  21.977  0.00  0.00    +0.000 F 
ATOM      7  C   UNL     1       9.406  10.814  20.383  0.00  0.00    +0.000 A 
ATOM      8  C   UNL     1       9.257  10.405  19.056  0.00  0.00    +0.000 A 
ATOM      9  F   UNL     1       8.649   9.228  18.774  0.00  0.00    +0.000 F 
ATOM     10  C   UNL     1       9.714  11.219  18.018  0.00  0.00    +0.000 A 
ATOM     11  C   UNL     1      10.316  12.456  18.299  0.00  0.00    +0.000 A 
ATOM     12  C   UNL     1      10.712  13.369  17.152  0.00  0.00    +0.000 C 
ENDROOT
BRANCH   1  18
ATOM     13  C   UNL     1       8.234  15.170  17.966  0.00  0.00    +0.000 A 
ATOM     14  C   UNL     1       7.463  16.226  18.411  0.00  0.00    +0.000 A 
ATOM     15  N   UNL     1       8.254  17.278  18.640  0.00  0.00    +0.000 N 
ATOM     16  C   UNL     1       9.500  16.872  18.343  0.00  0.00    +0.000 A 
ATOM     17  S   UNL     1      10.623  17.771  18.430  0.00  0.00    +0.000 S 
ATOM     18  N   UNL     1       9.558  15.559  17.945  0.00  0.00    +0.000 N 
ATOM     19  H   UNL     1       7.945  18.221  18.970  0.00  0.00    +0.000 HD
BRANCH  13  20
ATOM     20  C   UNL     1       7.555  13.873  17.577  0.00  0.00    +0.000 C 
BRANCH  20  21
ATOM     21  N   UNL     1       6.103  14.036  17.556  0.00  0.00    +0.000 NA
ATOM     22  H   UNL     1       5.801  14.461  18.463  0.00  0.00    +0.000 HD
ATOM     23  H   UNL     1       5.649  13.096  17.489  0.00  0.00    +0.000 HD
ENDBRANCH  20  21
ENDBRANCH  13  20
ENDBRANCH   1  18
TORSDOF 3
ENDMDL
MODEL 4
REMARK VINA RESULT:      -6.0      3.616      5.298
REMARK  Name = 
REMARK  3 active torsions:
REMARK  status: ('A' for Active; 'I' for Inactive)
REMARK    1  A    between atoms: N_1  and  C_2
REMARK    2  A    between atoms: C_2  and  C_3
REMARK    3  A    between atoms: N_8  and  C_9
REMARK                            x       y       z     vdW  Elec       q    Type
REMARK                         _______ _______ _______ _____ _____    ______ ____
ROOT
ATOM      1  C   UNL     1       2.377   2.653  17.924  0.00  0.00    +0.000 C 
ATOM      2  C   UNL     1       1.514   3.815  17.380  0.00  0.00    +0.000 C 
ATOM      3  C   UNL     1       2.087   5.164  17.828  0.00  0.00    +0.000 C 
ATOM      4  C   UNL     1       3.581   5.257  17.617  0.00  0.00    +0.000 A 
ATOM      5  C   UNL     1       4.223   6.494  17.804  0.00  0.00    +0.000 A 
ATOM      6  F   UNL     1       3.509   7.587  18.176  0.00  0.00    +0.000 F 
ATOM      7  C   UNL     1       5.600   6.610  17.607  0.00  0.00    +0.000 A 
ATOM      8  C   UNL     1       6.350   5.499  17.215  0.00  0.00    +0.000 A 
ATOM      9  F   UNL     1       7.687   5.617  17.031  0.00  0.00    +0.000 F 
ATOM     10  C   UNL     1       5.728   4.263  17.034  0.00  0.00    +0.000 A 
ATOM     11  C   UNL     1       4.349   4.123  17.255  0.00  0.00    +0.000 A 
ATOM     12  C   UNL     1       3.714   2.748  17.152  0.00  0.00    +0.000 C 
ENDROOT
BRANCH   1  18
ATOM     13  C   UNL     1       3.490   2.486  20.325  0.00  0.00    +0.000 A 
ATOM     14  C   UNL     1       3.016   2.688  21.607  0.00  0.00    +0.000 A 
ATOM     15  N   UNL     1       1.716   2.986  21.549  0.00  0.00    +0.000 N 
ATOM     16  C   UNL     1       1.393   2.973  20.246  0.00  0.00    +0.000 A 
ATOM     17  S   UNL     1       0.042   3.210  19.805  0.00  0.00    +0.000 S 
ATOM     18  N   UNL     1       2.461   2.696  19.429  0.00  0.00    +0.000 N 
ATOM     19  H   UNL     1       1.091   3.176  22.367  0.00  0.00    +0.000 HD
BRANCH  13  20
ATOM     20  C   UNL     1       4.934   2.072  20.128  0.00  0.00    +0.000 C 
BRANCH  20  21
ATOM     21  N   UNL     1       5.431   1.356  21.301  0.00  0.00    +0.000 NA
ATOM     22  H   UNL     1       6.374   1.735  21.548  0.00  0.00    +0.000 HD
ATOM     23  H   UNL     1       5.555   0.345  21.064  0.00  0.00    +0.000 HD
ENDBRANCH  20  21
ENDBRANCH  13  20
ENDBRANCH   1  18
TORSDOF 3
ENDMDL
MODEL 5
REMARK VINA RESULT:      -5.9      3.415      5.281
REMARK  Name = 
REMARK  3 active torsions:
REMARK  status: ('A' for Active; 'I' for Inactive)
REMARK    1  A    between atoms: N_1  and  C_2
REMARK    2  A    between atoms: C_2  and  C_3
REMARK    3  A    between atoms: N_8  and  C_9
REMARK                            x       y       z     vdW  Elec       q    Type
REMARK                         _______ _______ _______ _____ _____    ______ ____
ROOT
ATOM      1  C   UNL     1       1.887   3.392  17.909  0.00  0.00    +0.000 C 
ATOM      2  C   UNL     1       1.395   4.808  17.533  0.00  0.00    +0.000 C 
ATOM      3  C   UNL     1       2.479   5.850  17.834  0.00  0.00    +0.000 C 
ATOM      4  C   UNL     1       3.839   5.434  17.323  0.00  0.00    +0.000 A 
ATOM      5  C   UNL     1       4.895   6.361  17.357  0.00  0.00    +0.000 A 
ATOM      6  F   UNL     1       4.696   7.611  17.849  0.00  0.00    +0.000 F 
ATOM      7  C   UNL     1       6.160   6.006  16.884  0.00  0.00    +0.000 A 
ATOM      8  C   UNL     1       6.384   4.729  16.364  0.00  0.00    +0.000 A 
ATOM      9  F   UNL     1       7.614   4.389  15.912  0.00  0.00    +0.000 F 
ATOM     10  C   UNL     1       5.347   3.795  16.333  0.00  0.00    +0.000 A 
ATOM     11  C   UNL     1       4.077   4.127  16.831  0.00  0.00    +0.000 A 
ATOM     12  C   UNL     1       2.995   3.063  16.881  0.00  0.00    +0.000 C 
ENDROOT
BRANCH   1  18
ATOM     13  C   UNL     1       1.940   4.073  20.472  0.00  0.00    +0.000 A 
ATOM     14  C   UNL     1       2.561   3.537  21.583  0.00  0.00    +0.000 A 
ATOM     15  N   UNL     1       3.299   2.489  21.208  0.00  0.00    +0.000 N 
ATOM     16  C   UNL     1       3.132   2.378  19.880  0.00  0.00    +0.000 A 
ATOM     17  S   UNL     1       3.824   1.370  19.118  0.00  0.00    +0.000 S 
ATOM     18  N   UNL     1       2.273   3.318  19.365  0.00  0.00    +0.000 N 
ATOM     19  H   UNL     1       3.891   1.897  21.835  0.00  0.00    +0.000 HD
BRANCH  13  20
ATOM     20  C   UNL     1       1.090   5.317  20.628  0.00  0.00    +0.000 C 
BRANCH  20  21
ATOM     21  N   UNL     1       1.906   6.450  21.056  0.00  0.00    +0.000 NA
ATOM     22  H   UNL     1       2.910   6.232  20.860  0.00  0.00    +0.000 HD
ATOM     23  H   UNL     1       1.813   6.575  22.090  0.00  0.00    +0.000 HD
ENDBRANCH  20  21
ENDBRANCH  13  20
ENDBRANCH   1  18
TORSDOF 3
ENDMDL
MODEL 6
REMARK VINA RESULT:      -5.8      3.484      5.457
REMARK  Name = 
REMARK  3 active torsions:
REMARK  status: ('A' for Active; 'I' for Inactive)
REMARK    1  A    between atoms: N_1  and  C_2
REMARK    2  A    between atoms: C_2  and  C_3
REMARK    3  A    between atoms: N_8  and  C_9
REMARK                            x       y       z     vdW  Elec       q    Type
REMARK                         _______ _______ _______ _____ _____    ______ ____
ROOT
ATOM      1  C   UNL     1       2.097   4.718  18.045  0.00  0.00    +0.000 C 
ATOM      2  C   UNL     1       2.464   6.200  18.287  0.00  0.00    +0.000 C 
ATOM      3  C   UNL     1       3.970   6.346  18.536  0.00  0.00    +0.000 C 
ATOM      4  C   UNL     1       4.800   5.586  17.528  0.00  0.00    +0.000 A 
ATOM      5  C   UNL     1       6.193   5.772  17.509  0.00  0.00    +0.000 A 
ATOM      6  F   UNL     1       6.784   6.617  18.392  0.00  0.00    +0.000 F 
ATOM      7  C   UNL     1       6.982   5.088  16.583  0.00  0.00    +0.000 A 
ATOM      8  C   UNL     1       6.393   4.222  15.660  0.00  0.00    +0.000 A 
ATOM      9  F   UNL     1       7.165   3.558  14.767  0.00  0.00    +0.000 F 
ATOM     10  C   UNL     1       5.012   4.021  15.672  0.00  0.00    +0.000 A 
ATOM     11  C   UNL     1       4.207   4.679  16.615  0.00  0.00    +0.000 A 
ATOM     12  C   UNL     1       2.723   4.366  16.675  0.00  0.00    +0.000 C 
ENDROOT
BRANCH   1  18
ATOM     13  C   UNL     1       3.132   2.632  19.315  0.00  0.00    +0.000 A 
ATOM     14  C   UNL     1       3.293   2.319  20.651  0.00  0.00    +0.000 A 
ATOM     15  N   UNL     1       2.759   3.291  21.395  0.00  0.00    +0.000 N 
ATOM     16  C   UNL     1       2.279   4.196  20.527  0.00  0.00    +0.000 A 
ATOM     17  S   UNL     1       1.584   5.375  20.979  0.00  0.00    +0.000 S 
ATOM     18  N   UNL     1       2.505   3.859  19.215  0.00  0.00    +0.000 N 
ATOM     19  H   UNL     1       2.721   3.316  22.439  0.00  0.00    +0.000 HD
BRANCH  13  20
ATOM     20  C   UNL     1       3.603   1.649  18.263  0.00  0.00    +0.000 C 
BRANCH  20  21
ATOM     21  N   UNL     1       4.423   0.600  18.867  0.00  0.00    +0.000 NA
ATOM     22  H   UNL     1       5.418   0.749  18.581  0.00  0.00    +0.000 HD
ATOM     23  H   UNL     1       4.128  -0.329  18.491  0.00  0.00    +0.000 HD
ENDBRANCH  20  21
ENDBRANCH  13  20
ENDBRANCH   1  18
TORSDOF 3
ENDMDL
MODEL 7
REMARK VINA RESULT:      -5.8      3.537      5.374
REMARK  Name = 
REMARK  3 active torsions:
REMARK  status: ('A' for Active; 'I' for Inactive)
REMARK    1  A    between atoms: N_1  and  C_2
REMARK    2  A    between atoms: C_2  and  C_3
REMARK    3  A    between atoms: N_8  and  C_9
REMARK                            x       y       z     vdW  Elec       q    Type
REMARK                         _______ _______ _______ _____ _____    ______ ____
ROOT
ATOM      1  C   UNL     1       1.956   3.381  17.917  0.00  0.00    +0.000 C 
ATOM      2  C   UNL     1       1.514   4.841  17.664  0.00  0.00    +0.000 C 
ATOM      3  C   UNL     1       2.661   5.810  17.972  0.00  0.00    +0.000 C 
ATOM      4  C   UNL     1       3.971   5.370  17.361  0.00  0.00    +0.000 A 
ATOM      5  C   UNL     1       5.071   6.245  17.397  0.00  0.00    +0.000 A 
ATOM      6  F   UNL     1       4.958   7.465  17.981  0.00  0.00    +0.000 F 
ATOM      7  C   UNL     1       6.290   5.867  16.832  0.00  0.00    +0.000 A 
ATOM      8  C   UNL     1       6.424   4.620  16.217  0.00  0.00    +0.000 A 
ATOM      9  F   UNL     1       7.612   4.258  15.675  0.00  0.00    +0.000 F 
ATOM     10  C   UNL     1       5.344   3.738  16.182  0.00  0.00    +0.000 A 
ATOM     11  C   UNL     1       4.119   4.091  16.770  0.00  0.00    +0.000 A 
ATOM     12  C   UNL     1       2.991   3.076  16.809  0.00  0.00    +0.000 C 
ENDROOT
BRANCH   1  18
ATOM     13  C   UNL     1       3.462   2.497  19.912  0.00  0.00    +0.000 A 
ATOM     14  C   UNL     1       3.433   2.689  21.280  0.00  0.00    +0.000 A 
ATOM     15  N   UNL     1       2.383   3.453  21.592  0.00  0.00    +0.000 N 
ATOM     16  C   UNL     1       1.773   3.732  20.428  0.00  0.00    +0.000 A 
ATOM     17  S   UNL     1       0.561   4.509  20.383  0.00  0.00    +0.000 S 
ATOM     18  N   UNL     1       2.413   3.190  19.341  0.00  0.00    +0.000 N 
ATOM     19  H   UNL     1       2.102   3.750  22.554  0.00  0.00    +0.000 HD
BRANCH  13  20
ATOM     20  C   UNL     1       4.532   1.608  19.314  0.00  0.00    +0.000 C 
BRANCH  20  21
ATOM     21  N   UNL     1       5.395   1.062  20.359  0.00  0.00    +0.000 NA
ATOM     22  H   UNL     1       4.797   0.570  21.063  0.00  0.00    +0.000 HD
ATOM     23  H   UNL     1       5.877   1.845  20.856  0.00  0.00    +0.000 HD
ENDBRANCH  20  21
ENDBRANCH  13  20
ENDBRANCH   1  18
TORSDOF 3
ENDMDL
MODEL 8
REMARK VINA RESULT:      -5.8      2.229      2.862
REMARK  Name = 
REMARK  3 active torsions:
REMARK  status: ('A' for Active; 'I' for Inactive)
REMARK    1  A    between atoms: N_1  and  C_2
REMARK    2  A    between atoms: C_2  and  C_3
REMARK    3  A    between atoms: N_8  and  C_9
REMARK                            x       y       z     vdW  Elec       q    Type
REMARK                         _______ _______ _______ _____ _____    ______ ____
ROOT
ATOM      1  C   UNL     1       2.878   3.925  16.867  0.00  0.00    +0.000 C 
ATOM      2  C   UNL     1       3.831   2.709  16.875  0.00  0.00    +0.000 C 
ATOM      3  C   UNL     1       4.442   2.515  18.268  0.00  0.00    +0.000 C 
ATOM      4  C   UNL     1       3.409   2.588  19.368  0.00  0.00    +0.000 A 
ATOM      5  C   UNL     1       3.781   2.246  20.680  0.00  0.00    +0.000 A 
ATOM      6  F   UNL     1       5.055   1.863  20.954  0.00  0.00    +0.000 F 
ATOM      7  C   UNL     1       2.845   2.297  21.714  0.00  0.00    +0.000 A 
ATOM      8  C   UNL     1       1.527   2.679  21.452  0.00  0.00    +0.000 A 
ATOM      9  F   UNL     1       0.625   2.732  22.460  0.00  0.00    +0.000 F 
ATOM     10  C   UNL     1       1.146   3.030  20.156  0.00  0.00    +0.000 A 
ATOM     11  C   UNL     1       2.082   3.012  19.110  0.00  0.00    +0.000 A 
ATOM     12  C   UNL     1       1.669   3.495  17.732  0.00  0.00    +0.000 C 
ENDROOT
BRANCH   1  18
ATOM     13  C   UNL     1       3.321   6.161  18.222  0.00  0.00    +0.000 A 
ATOM     14  C   UNL     1       4.348   7.086  18.216  0.00  0.00    +0.000 A 
ATOM     15  N   UNL     1       5.242   6.740  17.286  0.00  0.00    +0.000 N 
ATOM     16  C   UNL     1       4.775   5.612  16.729  0.00  0.00    +0.000 A 
ATOM     17  S   UNL     1       5.468   4.968  15.642  0.00  0.00    +0.000 S 
ATOM     18  N   UNL     1       3.595   5.183  17.287  0.00  0.00    +0.000 N 
ATOM     19  H   UNL     1       6.115   7.263  17.048  0.00  0.00    +0.000 HD
BRANCH  13  20
ATOM     20  C   UNL     1       2.145   6.369  19.153  0.00  0.00    +0.000 C 
BRANCH  20  21
ATOM     21  N   UNL     1       2.561   6.240  20.548  0.00  0.00    +0.000 NA
ATOM     22  H   UNL     1       3.327   5.529  20.603  0.00  0.00    +0.000 HD
ATOM     23  H   UNL     1       1.762   5.878  21.117  0.00  0.00    +0.000 HD
ENDBRANCH  20  21
ENDBRANCH  13  20
ENDBRANCH   1  18
TORSDOF 3
ENDMDL
MODEL 9
REMARK VINA RESULT:      -5.7      9.609     11.508
REMARK  Name = 
REMARK  3 active torsions:
REMARK  status: ('A' for Active; 'I' for Inactive)
REMARK    1  A    between atoms: N_1  and  C_2
REMARK    2  A    between atoms: C_2  and  C_3
REMARK    3  A    between atoms: N_8  and  C_9
REMARK                            x       y       z     vdW  Elec       q    Type
REMARK                         _______ _______ _______ _____ _____    ______ ____
ROOT
ATOM      1  C   UNL     1       9.219  14.302  21.923  0.00  0.00    +0.000 C 
ATOM      2  C   UNL     1       9.242  12.856  22.469  0.00  0.00    +0.000 C 
ATOM      3  C   UNL     1       9.039  11.850  21.330  0.00  0.00    +0.000 C 
ATOM      4  C   UNL     1       9.910  12.148  20.132  0.00  0.00    +0.000 A 
ATOM      5  C   UNL     1       9.976  11.213  19.084  0.00  0.00    +0.000 A 
ATOM      6  F   UNL     1       9.259  10.062  19.146  0.00  0.00    +0.000 F 
ATOM      7  C   UNL     1      10.779  11.460  17.969  0.00  0.00    +0.000 A 
ATOM      8  C   UNL     1      11.531  12.634  17.890  0.00  0.00    +0.000 A 
ATOM      9  F   UNL     1      12.305  12.870  16.803  0.00  0.00    +0.000 F 
ATOM     10  C   UNL     1      11.469  13.575  18.919  0.00  0.00    +0.000 A 
ATOM     11  C   UNL     1      10.645  13.355  20.033  0.00  0.00    +0.000 A 
ATOM     12  C   UNL     1      10.515  14.439  21.089  0.00  0.00    +0.000 C 
ENDROOT
BRANCH   1  18
ATOM     13  C   UNL     1       7.620  14.987  19.921  0.00  0.00    +0.000 A 
ATOM     14  C   UNL     1       6.247  15.081  19.793  0.00  0.00    +0.000 A 
ATOM     15  N   UNL     1       5.678  14.794  20.967  0.00  0.00    +0.000 N 
ATOM     16  C   UNL     1       6.689  14.521  21.808  0.00  0.00    +0.000 A 
ATOM     17  S   UNL     1       6.448  14.208  23.194  0.00  0.00    +0.000 S 
ATOM     18  N   UNL     1       7.923  14.595  21.210  0.00  0.00    +0.000 N 
ATOM     19  H   UNL     1       4.653  14.799  21.171  0.00  0.00    +0.000 HD
BRANCH  13  20
ATOM     20  C   UNL     1       8.497  15.328  18.735  0.00  0.00    +0.000 C 
BRANCH  20  21
ATOM     21  N   UNL     1       8.180  14.473  17.593  0.00  0.00    +0.000 NA
ATOM     22  H   UNL     1       7.485  14.969  16.988  0.00  0.00    +0.000 HD
ATOM     23  H   UNL     1       7.725  13.596  17.933  0.00  0.00    +0.000 HD
ENDBRANCH  20  21
ENDBRANCH  13  20
ENDBRANCH   1  18
TORSDOF 3
ENDMDL
