MODEL 1
REMARK VINA RESULT:      -8.7      0.000      0.000
REMARK  Name = 
REMARK  6 active torsions:
REMARK  status: ('A' for Active; 'I' for Inactive)
REMARK    1  A    between atoms: C_2  and  C_3
REMARK    2  A    between atoms: C_3  and  C_4
REMARK    3  A    between atoms: C_3  and  N_23
REMARK    4  A    between atoms: C_4  and  C_5
REMARK    5  A    between atoms: C_8  and  C_9
REMARK    6  A    between atoms: C_24  and  C_26
REMARK                            x       y       z     vdW  Elec       q    Type
REMARK                         _______ _______ _______ _____ _____    ______ ____
ROOT
ATOM      1  C   UNL     1      -0.099  10.910  21.950  0.00  0.00    +0.000 A 
ATOM      2  C   UNL     1      -0.524   9.646  22.366  0.00  0.00    +0.000 A 
ATOM      3  C   UNL     1       0.043   8.496  21.811  0.00  0.00    +0.000 A 
ATOM      4  C   UNL     1       1.043   8.571  20.824  0.00  0.00    +0.000 A 
ATOM      5  C   UNL     1       1.457   9.853  20.420  0.00  0.00    +0.000 A 
ATOM      6  C   UNL     1       0.894  10.994  20.978  0.00  0.00    +0.000 A 
ATOM      7  F   UNL     1       1.314  12.197  20.560  0.00  0.00    +0.000 F 
ENDROOT
BRANCH   4   8
ATOM      8  C   UNL     1       1.625   7.352  20.221  0.00  0.00    +0.000 A 
ATOM      9  C   UNL     1       2.417   7.412  19.059  0.00  0.00    +0.000 A 
ATOM     10  C   UNL     1       2.989   6.263  18.503  0.00  0.00    +0.000 A 
ATOM     11  C   UNL     1       2.802   5.027  19.122  0.00  0.00    +0.000 A 
ATOM     12  C   UNL     1       2.025   4.933  20.285  0.00  0.00    +0.000 A 
ATOM     13  C   UNL     1       1.423   6.086  20.804  0.00  0.00    +0.000 A 
ATOM     14  C   UNL     1       1.815   3.595  20.942  0.00  0.00    +0.000 C 
ATOM     15  C   UNL     1       3.042   2.717  20.716  0.00  0.00    +0.000 C 
ATOM     16  N   UNL     1       3.396   2.671  19.315  0.00  0.00    +0.000 N 
ATOM     17  C   UNL     1       3.441   3.811  18.547  0.00  0.00    +0.000 C 
ATOM     18  O   UNL     1       3.984   3.818  17.451  0.00  0.00    +0.000 OA
ATOM     19  H   UNL     1       3.947   1.901  18.955  0.00  0.00    +0.000 HD
ENDBRANCH   4   8
BRANCH   1  20
ATOM     20  C   UNL     1      -0.743  12.154  22.493  0.00  0.00    +0.000 C 
BRANCH  20  21
ATOM     21  C   UNL     1      -1.919  12.638  21.627  0.00  0.00    +0.000 C 
BRANCH  21  22
ATOM     22  N   UNL     1      -2.037  11.863  20.373  0.00  0.00    +0.000 N 
ATOM     23  C   UNL     1      -1.653  12.404  19.165  0.00  0.00    +0.000 C 
ATOM     24  O   UNL     1      -1.275  13.569  19.078  0.00  0.00    +0.000 OA
ATOM     25  H   UNL     1      -2.405  10.918  20.388  0.00  0.00    +0.000 HD
BRANCH  23  26
ATOM     26  C   UNL     1      -1.671  11.442  17.958  0.00  0.00    +0.000 C 
ATOM     27  N   UNL     1      -1.856   9.997  18.372  0.00  0.00    +0.000 NA
ATOM     28  C   UNL     1      -3.099   9.581  17.644  0.00  0.00    +0.000 C 
ATOM     29  C   UNL     1      -3.944  10.848  17.767  0.00  0.00    +0.000 C 
ATOM     30  C   UNL     1      -2.894  11.702  17.042  0.00  0.00    +0.000 C 
ATOM     31  C   UNL     1      -2.642  10.948  15.735  0.00  0.00    +0.000 C 
ATOM     32  C   UNL     1      -3.641  10.044  15.056  0.00  0.00    +0.000 C 
ATOM     33  C   UNL     1      -2.748   9.515  16.160  0.00  0.00    +0.000 C 
ATOM     34  H   UNL     1      -2.083   9.971  19.367  0.00  0.00    +0.000 HD
ENDBRANCH  23  26
ENDBRANCH  21  22
BRANCH  21  36
ATOM     35  N   UNL     1      -4.239  12.352  23.132  0.00  0.00    +0.000 NA
ATOM     36  C   UNL     1      -3.187  12.481  22.449  0.00  0.00    +0.000 C 
ENDBRANCH  21  36
ENDBRANCH  20  21
ENDBRANCH   1  20
TORSDOF 6
ENDMDL
MODEL 2
REMARK VINA RESULT:      -8.6      3.544      4.793
REMARK  Name = 
REMARK  6 active torsions:
REMARK  status: ('A' for Active; 'I' for Inactive)
REMARK    1  A    between atoms: C_2  and  C_3
REMARK    2  A    between atoms: C_3  and  C_4
REMARK    3  A    between atoms: C_3  and  N_23
REMARK    4  A    between atoms: C_4  and  C_5
REMARK    5  A    between atoms: C_8  and  C_9
REMARK    6  A    between atoms: C_24  and  C_26
REMARK                            x       y       z     vdW  Elec       q    Type
REMARK                         _______ _______ _______ _____ _____    ______ ____
ROOT
ATOM      1  C   UNL     1       0.304  10.448  19.721  0.00  0.00    +0.000 A 
ATOM      2  C   UNL     1       0.693  10.435  18.380  0.00  0.00    +0.000 A 
ATOM      3  C   UNL     1       1.443   9.368  17.877  0.00  0.00    +0.000 A 
ATOM      4  C   UNL     1       1.831   8.291  18.694  0.00  0.00    +0.000 A 
ATOM      5  C   UNL     1       1.428   8.324  20.041  0.00  0.00    +0.000 A 
ATOM      6  C   UNL     1       0.678   9.384  20.536  0.00  0.00    +0.000 A 
ATOM      7  F   UNL     1       0.320   9.379  21.829  0.00  0.00    +0.000 F 
ENDROOT
BRANCH   4   8
ATOM      8  C   UNL     1       2.645   7.175  18.165  0.00  0.00    +0.000 A 
ATOM      9  C   UNL     1       3.917   7.393  17.603  0.00  0.00    +0.000 A 
ATOM     10  C   UNL     1       4.698   6.335  17.126  0.00  0.00    +0.000 A 
ATOM     11  C   UNL     1       4.229   5.026  17.231  0.00  0.00    +0.000 A 
ATOM     12  C   UNL     1       2.969   4.772  17.792  0.00  0.00    +0.000 A 
ATOM     13  C   UNL     1       2.181   5.847  18.225  0.00  0.00    +0.000 A 
ATOM     14  C   UNL     1       2.461   3.359  17.891  0.00  0.00    +0.000 C 
ATOM     15  C   UNL     1       3.637   2.406  18.080  0.00  0.00    +0.000 C 
ATOM     16  N   UNL     1       4.654   2.630  17.077  0.00  0.00    +0.000 N 
ATOM     17  C   UNL     1       5.077   3.899  16.754  0.00  0.00    +0.000 C 
ATOM     18  O   UNL     1       6.101   4.083  16.111  0.00  0.00    +0.000 OA
ATOM     19  H   UNL     1       5.316   1.898  16.850  0.00  0.00    +0.000 HD
ENDBRANCH   4   8
BRANCH   1  20
ATOM     20  C   UNL     1      -0.451  11.617  20.290  0.00  0.00    +0.000 C 
BRANCH  20  21
ATOM     21  C   UNL     1       0.382  12.420  21.304  0.00  0.00    +0.000 C 
BRANCH  21  22
ATOM     22  N   UNL     1       0.924  13.662  20.713  0.00  0.00    +0.000 N 
ATOM     23  C   UNL     1       2.245  14.014  20.888  0.00  0.00    +0.000 C 
ATOM     24  O   UNL     1       2.993  13.353  21.602  0.00  0.00    +0.000 OA
ATOM     25  H   UNL     1       0.325  14.274  20.169  0.00  0.00    +0.000 HD
BRANCH  23  26
ATOM     26  C   UNL     1       2.728  15.243  20.089  0.00  0.00    +0.000 C 
ATOM     27  N   UNL     1       4.181  15.129  19.675  0.00  0.00    +0.000 NA
ATOM     28  C   UNL     1       4.129  15.238  18.181  0.00  0.00    +0.000 C 
ATOM     29  C   UNL     1       2.862  14.440  17.877  0.00  0.00    +0.000 C 
ATOM     30  C   UNL     1       1.988  15.368  18.733  0.00  0.00    +0.000 C 
ATOM     31  C   UNL     1       2.287  16.766  18.186  0.00  0.00    +0.000 C 
ATOM     32  C   UNL     1       2.743  17.061  16.779  0.00  0.00    +0.000 C 
ATOM     33  C   UNL     1       3.745  16.678  17.849  0.00  0.00    +0.000 C 
ATOM     34  H   UNL     1       4.505  14.184  19.884  0.00  0.00    +0.000 HD
ENDBRANCH  23  26
ENDBRANCH  21  22
BRANCH  21  36
ATOM     35  N   UNL     1      -1.279  13.043  23.445  0.00  0.00    +0.000 NA
ATOM     36  C   UNL     1      -0.525  12.760  22.474  0.00  0.00    +0.000 C 
ENDBRANCH  21  36
ENDBRANCH  20  21
ENDBRANCH   1  20
TORSDOF 6
ENDMDL
MODEL 3
REMARK VINA RESULT:      -8.6      3.320      4.600
REMARK  Name = 
REMARK  6 active torsions:
REMARK  status: ('A' for Active; 'I' for Inactive)
REMARK    1  A    between atoms: C_2  and  C_3
REMARK    2  A    between atoms: C_3  and  C_4
REMARK    3  A    between atoms: C_3  and  N_23
REMARK    4  A    between atoms: C_4  and  C_5
REMARK    5  A    between atoms: C_8  and  C_9
REMARK    6  A    between atoms: C_24  and  C_26
REMARK                            x       y       z     vdW  Elec       q    Type
REMARK                         _______ _______ _______ _____ _____    ______ ____
ROOT
ATOM      1  C   UNL     1       0.019  10.691  20.586  0.00  0.00    +0.000 A 
ATOM      2  C   UNL     1       0.009   9.654  21.521  0.00  0.00    +0.000 A 
ATOM      3  C   UNL     1       0.701   8.468  21.263  0.00  0.00    +0.000 A 
ATOM      4  C   UNL     1       1.414   8.277  20.066  0.00  0.00    +0.000 A 
ATOM      5  C   UNL     1       1.413   9.334  19.138  0.00  0.00    +0.000 A 
ATOM      6  C   UNL     1       0.728  10.515  19.401  0.00  0.00    +0.000 A 
ATOM      7  F   UNL     1       0.747  11.495  18.486  0.00  0.00    +0.000 F 
ENDROOT
BRANCH   4   8
ATOM      8  C   UNL     1       2.126   7.011  19.784  0.00  0.00    +0.000 A 
ATOM      9  C   UNL     1       1.949   5.872  20.591  0.00  0.00    +0.000 A 
ATOM     10  C   UNL     1       2.602   4.668  20.310  0.00  0.00    +0.000 A 
ATOM     11  C   UNL     1       3.429   4.572  19.191  0.00  0.00    +0.000 A 
ATOM     12  C   UNL     1       3.621   5.686  18.362  0.00  0.00    +0.000 A 
ATOM     13  C   UNL     1       2.994   6.898  18.682  0.00  0.00    +0.000 A 
ATOM     14  C   UNL     1       4.524   5.583  17.161  0.00  0.00    +0.000 C 
ATOM     15  C   UNL     1       4.477   4.162  16.609  0.00  0.00    +0.000 C 
ATOM     16  N   UNL     1       4.719   3.190  17.652  0.00  0.00    +0.000 N 
ATOM     17  C   UNL     1       4.095   3.279  18.875  0.00  0.00    +0.000 C 
ATOM     18  O   UNL     1       4.089   2.337  19.655  0.00  0.00    +0.000 OA
ATOM     19  H   UNL     1       5.049   2.262  17.417  0.00  0.00    +0.000 HD
ENDBRANCH   4   8
BRANCH   1  20
ATOM     20  C   UNL     1      -0.770  11.948  20.823  0.00  0.00    +0.000 C 
BRANCH  20  21
ATOM     21  C   UNL     1      -0.128  12.855  21.887  0.00  0.00    +0.000 C 
BRANCH  21  22
ATOM     22  N   UNL     1       0.561  14.014  21.283  0.00  0.00    +0.000 N 
ATOM     23  C   UNL     1       1.914  13.980  21.025  0.00  0.00    +0.000 C 
ATOM     24  O   UNL     1       2.604  13.021  21.359  0.00  0.00    +0.000 OA
ATOM     25  H   UNL     1       0.043  14.854  21.050  0.00  0.00    +0.000 HD
BRANCH  23  26
ATOM     26  C   UNL     1       2.485  15.184  20.246  0.00  0.00    +0.000 C 
ATOM     27  N   UNL     1       3.973  15.058  19.994  0.00  0.00    +0.000 NA
ATOM     28  C   UNL     1       4.083  15.121  18.501  0.00  0.00    +0.000 C 
ATOM     29  C   UNL     1       2.854  14.313  18.087  0.00  0.00    +0.000 C 
ATOM     30  C   UNL     1       1.895  15.267  18.815  0.00  0.00    +0.000 C 
ATOM     31  C   UNL     1       2.256  16.647  18.261  0.00  0.00    +0.000 C 
ATOM     32  C   UNL     1       2.862  16.899  16.902  0.00  0.00    +0.000 C 
ATOM     33  C   UNL     1       3.742  16.549  18.086  0.00  0.00    +0.000 C 
ATOM     34  H   UNL     1       4.270  14.120  20.267  0.00  0.00    +0.000 HD
ENDBRANCH  23  26
ENDBRANCH  21  22
BRANCH  21  36
ATOM     35  N   UNL     1      -2.161  13.739  23.566  0.00  0.00    +0.000 NA
ATOM     36  C   UNL     1      -1.239  13.338  22.805  0.00  0.00    +0.000 C 
ENDBRANCH  21  36
ENDBRANCH  20  21
ENDBRANCH   1  20
TORSDOF 6
ENDMDL
MODEL 4
REMARK VINA RESULT:      -8.5      3.351      4.693
REMARK  Name = 
REMARK  6 active torsions:
REMARK  status: ('A' for Active; 'I' for Inactive)
REMARK    1  A    between atoms: C_2  and  C_3
REMARK    2  A    between atoms: C_3  and  C_4
REMARK    3  A    between atoms: C_3  and  N_23
REMARK    4  A    between atoms: C_4  and  C_5
REMARK    5  A    between atoms: C_8  and  C_9
REMARK    6  A    between atoms: C_24  and  C_26
REMARK                            x       y       z     vdW  Elec       q    Type
REMARK                         _______ _______ _______ _____ _____    ______ ____
ROOT
ATOM      1  C   UNL     1      -0.174  10.725  20.525  0.00  0.00    +0.000 A 
ATOM      2  C   UNL     1       0.484  10.563  19.305  0.00  0.00    +0.000 A 
ATOM      3  C   UNL     1       1.215   9.399  19.050  0.00  0.00    +0.000 A 
ATOM      4  C   UNL     1       1.316   8.370  20.003  0.00  0.00    +0.000 A 
ATOM      5  C   UNL     1       0.645   8.553  21.225  0.00  0.00    +0.000 A 
ATOM      6  C   UNL     1      -0.085   9.709  21.473  0.00  0.00    +0.000 A 
ATOM      7  F   UNL     1      -0.705   9.846  22.655  0.00  0.00    +0.000 F 
ENDROOT
BRANCH   4   8
ATOM      8  C   UNL     1       2.110   7.149  19.740  0.00  0.00    +0.000 A 
ATOM      9  C   UNL     1       2.011   6.014  20.566  0.00  0.00    +0.000 A 
ATOM     10  C   UNL     1       2.742   4.852  20.303  0.00  0.00    +0.000 A 
ATOM     11  C   UNL     1       3.571   4.793  19.182  0.00  0.00    +0.000 A 
ATOM     12  C   UNL     1       3.688   5.903  18.335  0.00  0.00    +0.000 A 
ATOM     13  C   UNL     1       2.982   7.075  18.637  0.00  0.00    +0.000 A 
ATOM     14  C   UNL     1       4.593   5.840  17.134  0.00  0.00    +0.000 C 
ATOM     15  C   UNL     1       4.640   4.410  16.605  0.00  0.00    +0.000 C 
ATOM     16  N   UNL     1       4.947   3.474  17.663  0.00  0.00    +0.000 N 
ATOM     17  C   UNL     1       4.321   3.541  18.886  0.00  0.00    +0.000 C 
ATOM     18  O   UNL     1       4.379   2.614  19.682  0.00  0.00    +0.000 OA
ATOM     19  H   UNL     1       5.338   2.566  17.442  0.00  0.00    +0.000 HD
ENDBRANCH   4   8
BRANCH   1  20
ATOM     20  C   UNL     1      -0.913  11.996  20.837  0.00  0.00    +0.000 C 
BRANCH  20  21
ATOM     21  C   UNL     1      -0.199  12.848  21.901  0.00  0.00    +0.000 C 
BRANCH  21  22
ATOM     22  N   UNL     1       0.503  14.003  21.303  0.00  0.00    +0.000 N 
ATOM     23  C   UNL     1       1.852  13.949  21.027  0.00  0.00    +0.000 C 
ATOM     24  O   UNL     1       2.529  12.974  21.339  0.00  0.00    +0.000 OA
ATOM     25  H   UNL     1      -0.004  14.855  21.088  0.00  0.00    +0.000 HD
BRANCH  23  26
ATOM     26  C   UNL     1       2.433  15.154  20.256  0.00  0.00    +0.000 C 
ATOM     27  N   UNL     1       3.929  15.039  20.047  0.00  0.00    +0.000 NA
ATOM     28  C   UNL     1       4.080  15.094  18.557  0.00  0.00    +0.000 C 
ATOM     29  C   UNL     1       2.870  14.273  18.114  0.00  0.00    +0.000 C 
ATOM     30  C   UNL     1       1.883  15.223  18.809  0.00  0.00    +0.000 C 
ATOM     31  C   UNL     1       2.248  16.603  18.257  0.00  0.00    +0.000 C 
ATOM     32  C   UNL     1       2.889  16.852  16.914  0.00  0.00    +0.000 C 
ATOM     33  C   UNL     1       3.738  16.517  18.124  0.00  0.00    +0.000 C 
ATOM     34  H   UNL     1       4.226  14.105  20.334  0.00  0.00    +0.000 HD
ENDBRANCH  23  26
ENDBRANCH  21  22
BRANCH  21  36
ATOM     35  N   UNL     1      -2.131  13.743  23.690  0.00  0.00    +0.000 NA
ATOM     36  C   UNL     1      -1.255  13.338  22.878  0.00  0.00    +0.000 C 
ENDBRANCH  21  36
ENDBRANCH  20  21
ENDBRANCH   1  20
TORSDOF 6
ENDMDL
MODEL 5
REMARK VINA RESULT:      -8.5      3.469      4.640
REMARK  Name = 
REMARK  6 active torsions:
REMARK  status: ('A' for Active; 'I' for Inactive)
REMARK    1  A    between atoms: C_2  and  C_3
REMARK    2  A    between atoms: C_3  and  C_4
REMARK    3  A    between atoms: C_3  and  N_23
REMARK    4  A    between atoms: C_4  and  C_5
REMARK    5  A    between atoms: C_8  and  C_9
REMARK    6  A    between atoms: C_24  and  C_26
REMARK                            x       y       z     vdW  Elec       q    Type
REMARK                         _______ _______ _______ _____ _____    ______ ____
ROOT
ATOM      1  C   UNL     1       0.340  10.625  19.972  0.00  0.00    +0.000 A 
ATOM      2  C   UNL     1       0.485   9.434  20.687  0.00  0.00    +0.000 A 
ATOM      3  C   UNL     1       1.234   8.381  20.153  0.00  0.00    +0.000 A 
ATOM      4  C   UNL     1       1.851   8.481  18.894  0.00  0.00    +0.000 A 
ATOM      5  C   UNL     1       1.693   9.689  18.190  0.00  0.00    +0.000 A 
ATOM      6  C   UNL     1       0.952  10.736  18.727  0.00  0.00    +0.000 A 
ATOM      7  F   UNL     1       0.822  11.868  18.020  0.00  0.00    +0.000 F 
ENDROOT
BRANCH   4   8
ATOM      8  C   UNL     1       2.623   7.356  18.321  0.00  0.00    +0.000 A 
ATOM      9  C   UNL     1       3.803   7.573  17.584  0.00  0.00    +0.000 A 
ATOM     10  C   UNL     1       4.546   6.509  17.064  0.00  0.00    +0.000 A 
ATOM     11  C   UNL     1       4.136   5.196  17.299  0.00  0.00    +0.000 A 
ATOM     12  C   UNL     1       2.970   4.945  18.035  0.00  0.00    +0.000 A 
ATOM     13  C   UNL     1       2.212   6.023  18.511  0.00  0.00    +0.000 A 
ATOM     14  C   UNL     1       2.523   3.528  18.275  0.00  0.00    +0.000 C 
ATOM     15  C   UNL     1       3.743   2.616  18.356  0.00  0.00    +0.000 C 
ATOM     16  N   UNL     1       4.612   2.807  17.216  0.00  0.00    +0.000 N 
ATOM     17  C   UNL     1       4.949   4.065  16.774  0.00  0.00    +0.000 C 
ATOM     18  O   UNL     1       5.874   4.237  15.991  0.00  0.00    +0.000 OA
ATOM     19  H   UNL     1       5.261   2.079  16.942  0.00  0.00    +0.000 HD
ENDBRANCH   4   8
BRANCH   1  20
ATOM     20  C   UNL     1      -0.512  11.742  20.505  0.00  0.00    +0.000 C 
BRANCH  20  21
ATOM     21  C   UNL     1       0.225  12.599  21.549  0.00  0.00    +0.000 C 
BRANCH  21  22
ATOM     22  N   UNL     1       0.831  13.805  20.946  0.00  0.00    +0.000 N 
ATOM     23  C   UNL     1       2.196  13.991  20.948  0.00  0.00    +0.000 C 
ATOM     24  O   UNL     1       2.947  13.204  21.517  0.00  0.00    +0.000 OA
ATOM     25  H   UNL     1       0.243  14.515  20.522  0.00  0.00    +0.000 HD
BRANCH  23  26
ATOM     26  C   UNL     1       2.714  15.205  20.148  0.00  0.00    +0.000 C 
ATOM     27  N   UNL     1       4.159  15.043  19.723  0.00  0.00    +0.000 NA
ATOM     28  C   UNL     1       4.100  15.155  18.229  0.00  0.00    +0.000 C 
ATOM     29  C   UNL     1       2.805  14.401  17.934  0.00  0.00    +0.000 C 
ATOM     30  C   UNL     1       1.969  15.356  18.797  0.00  0.00    +0.000 C 
ATOM     31  C   UNL     1       2.311  16.744  18.251  0.00  0.00    +0.000 C 
ATOM     32  C   UNL     1       2.766  17.026  16.840  0.00  0.00    +0.000 C 
ATOM     33  C   UNL     1       3.763  16.607  17.902  0.00  0.00    +0.000 C 
ATOM     34  H   UNL     1       4.453  14.086  19.929  0.00  0.00    +0.000 HD
ENDBRANCH  23  26
ENDBRANCH  21  22
BRANCH  21  36
ATOM     35  N   UNL     1      -1.632  13.342  23.481  0.00  0.00    +0.000 NA
ATOM     36  C   UNL     1      -0.790  13.005  22.604  0.00  0.00    +0.000 C 
ENDBRANCH  21  36
ENDBRANCH  20  21
ENDBRANCH   1  20
TORSDOF 6
ENDMDL
MODEL 6
REMARK VINA RESULT:      -8.5      1.396      1.823
REMARK  Name = 
REMARK  6 active torsions:
REMARK  status: ('A' for Active; 'I' for Inactive)
REMARK    1  A    between atoms: C_2  and  C_3
REMARK    2  A    between atoms: C_3  and  C_4
REMARK    3  A    between atoms: C_3  and  N_23
REMARK    4  A    between atoms: C_4  and  C_5
REMARK    5  A    between atoms: C_8  and  C_9
REMARK    6  A    between atoms: C_24  and  C_26
REMARK                            x       y       z     vdW  Elec       q    Type
REMARK                         _______ _______ _______ _____ _____    ______ ____
ROOT
ATOM      1  C   UNL     1      -0.345  11.376  21.746  0.00  0.00    +0.000 A 
ATOM      2  C   UNL     1       0.260  11.499  20.494  0.00  0.00    +0.000 A 
ATOM      3  C   UNL     1       0.864  10.391  19.893  0.00  0.00    +0.000 A 
ATOM      4  C   UNL     1       0.889   9.135  20.524  0.00  0.00    +0.000 A 
ATOM      5  C   UNL     1       0.273   9.032  21.784  0.00  0.00    +0.000 A 
ATOM      6  C   UNL     1      -0.331  10.135  22.376  0.00  0.00    +0.000 A 
ATOM      7  F   UNL     1      -0.902   9.995  23.582  0.00  0.00    +0.000 F 
ENDROOT
BRANCH   4   8
ATOM      8  C   UNL     1       1.550   7.969  19.897  0.00  0.00    +0.000 A 
ATOM      9  C   UNL     1       2.292   8.095  18.708  0.00  0.00    +0.000 A 
ATOM     10  C   UNL     1       2.938   6.998  18.129  0.00  0.00    +0.000 A 
ATOM     11  C   UNL     1       2.877   5.750  18.750  0.00  0.00    +0.000 A 
ATOM     12  C   UNL     1       2.152   5.592  19.940  0.00  0.00    +0.000 A 
ATOM     13  C   UNL     1       1.475   6.691  20.483  0.00  0.00    +0.000 A 
ATOM     14  C   UNL     1       2.078   4.241  20.600  0.00  0.00    +0.000 C 
ATOM     15  C   UNL     1       3.365   3.469  20.328  0.00  0.00    +0.000 C 
ATOM     16  N   UNL     1       3.673   3.452  18.916  0.00  0.00    +0.000 N 
ATOM     17  C   UNL     1       3.595   4.592  18.150  0.00  0.00    +0.000 C 
ATOM     18  O   UNL     1       4.096   4.645  17.035  0.00  0.00    +0.000 OA
ATOM     19  H   UNL     1       4.273   2.731  18.533  0.00  0.00    +0.000 HD
ENDBRANCH   4   8
BRANCH   1  20
ATOM     20  C   UNL     1      -0.945  12.572  22.431  0.00  0.00    +0.000 C 
BRANCH  20  21
ATOM     21  C   UNL     1      -2.422  12.786  22.059  0.00  0.00    +0.000 C 
BRANCH  21  22
ATOM     22  N   UNL     1      -2.838  11.927  20.931  0.00  0.00    +0.000 N 
ATOM     23  C   UNL     1      -3.714  12.388  19.972  0.00  0.00    +0.000 C 
ATOM     24  O   UNL     1      -4.238  13.494  20.065  0.00  0.00    +0.000 OA
ATOM     25  H   UNL     1      -2.481  10.980  20.849  0.00  0.00    +0.000 HD
BRANCH  23  26
ATOM     26  C   UNL     1      -3.943  11.458  18.762  0.00  0.00    +0.000 C 
ATOM     27  N   UNL     1      -4.244  12.226  17.491  0.00  0.00    +0.000 NA
ATOM     28  C   UNL     1      -3.164  11.786  16.550  0.00  0.00    +0.000 C 
ATOM     29  C   UNL     1      -1.968  11.710  17.499  0.00  0.00    +0.000 C 
ATOM     30  C   UNL     1      -2.657  10.673  18.397  0.00  0.00    +0.000 C 
ATOM     31  C   UNL     1      -3.071   9.563  17.428  0.00  0.00    +0.000 C 
ATOM     32  C   UNL     1      -2.378   9.255  16.124  0.00  0.00    +0.000 C 
ATOM     33  C   UNL     1      -3.445  10.329  16.195  0.00  0.00    +0.000 C 
ATOM     34  H   UNL     1      -4.087  13.220  17.668  0.00  0.00    +0.000 HD
ENDBRANCH  23  26
ENDBRANCH  21  22
BRANCH  21  36
ATOM     35  N   UNL     1      -3.944  12.188  24.309  0.00  0.00    +0.000 NA
ATOM     36  C   UNL     1      -3.254  12.459  23.289  0.00  0.00    +0.000 C 
ENDBRANCH  21  36
ENDBRANCH  20  21
ENDBRANCH   1  20
TORSDOF 6
ENDMDL
MODEL 7
REMARK VINA RESULT:      -8.5      1.137      1.926
REMARK  Name = 
REMARK  6 active torsions:
REMARK  status: ('A' for Active; 'I' for Inactive)
REMARK    1  A    between atoms: C_2  and  C_3
REMARK    2  A    between atoms: C_3  and  C_4
REMARK    3  A    between atoms: C_3  and  N_23
REMARK    4  A    between atoms: C_4  and  C_5
REMARK    5  A    between atoms: C_8  and  C_9
REMARK    6  A    between atoms: C_24  and  C_26
REMARK                            x       y       z     vdW  Elec       q    Type
REMARK                         _______ _______ _______ _____ _____    ______ ____
ROOT
ATOM      1  C   UNL     1       0.104  10.705  21.668  0.00  0.00    +0.000 A 
ATOM      2  C   UNL     1       0.976  10.690  20.578  0.00  0.00    +0.000 A 
ATOM      3  C   UNL     1       1.522   9.483  20.132  0.00  0.00    +0.000 A 
ATOM      4  C   UNL     1       1.222   8.262  20.763  0.00  0.00    +0.000 A 
ATOM      5  C   UNL     1       0.341   8.299  21.858  0.00  0.00    +0.000 A 
ATOM      6  C   UNL     1      -0.204   9.501  22.295  0.00  0.00    +0.000 A 
ATOM      7  F   UNL     1      -1.035   9.493  23.348  0.00  0.00    +0.000 F 
ENDROOT
BRANCH   4   8
ATOM      8  C   UNL     1       1.821   6.989  20.304  0.00  0.00    +0.000 A 
ATOM      9  C   UNL     1       1.399   5.749  20.821  0.00  0.00    +0.000 A 
ATOM     10  C   UNL     1       1.947   4.544  20.370  0.00  0.00    +0.000 A 
ATOM     11  C   UNL     1       2.914   4.556  19.364  0.00  0.00    +0.000 A 
ATOM     12  C   UNL     1       3.351   5.773  18.823  0.00  0.00    +0.000 A 
ATOM     13  C   UNL     1       2.824   6.973  19.317  0.00  0.00    +0.000 A 
ATOM     14  C   UNL     1       4.404   5.782  17.747  0.00  0.00    +0.000 C 
ATOM     15  C   UNL     1       4.279   4.518  16.901  0.00  0.00    +0.000 C 
ATOM     16  N   UNL     1       4.253   3.336  17.733  0.00  0.00    +0.000 N 
ATOM     17  C   UNL     1       3.469   3.269  18.861  0.00  0.00    +0.000 C 
ATOM     18  O   UNL     1       3.242   2.202  19.415  0.00  0.00    +0.000 OA
ATOM     19  H   UNL     1       4.508   2.436  17.346  0.00  0.00    +0.000 HD
ENDBRANCH   4   8
BRANCH   1  20
ATOM     20  C   UNL     1      -0.444  12.001  22.196  0.00  0.00    +0.000 C 
BRANCH  20  21
ATOM     21  C   UNL     1      -1.651  12.506  21.386  0.00  0.00    +0.000 C 
BRANCH  21  22
ATOM     22  N   UNL     1      -1.857  11.718  20.152  0.00  0.00    +0.000 N 
ATOM     23  C   UNL     1      -1.578  12.252  18.913  0.00  0.00    +0.000 C 
ATOM     24  O   UNL     1      -1.225  13.421  18.787  0.00  0.00    +0.000 OA
ATOM     25  H   UNL     1      -2.210  10.768  20.205  0.00  0.00    +0.000 HD
BRANCH  23  26
ATOM     26  C   UNL     1      -1.679  11.279  17.719  0.00  0.00    +0.000 C 
ATOM     27  N   UNL     1      -2.014   9.866  18.151  0.00  0.00    +0.000 NA
ATOM     28  C   UNL     1      -3.283   9.566  17.412  0.00  0.00    +0.000 C 
ATOM     29  C   UNL     1      -3.997  10.913  17.506  0.00  0.00    +0.000 C 
ATOM     30  C   UNL     1      -2.858  11.647  16.783  0.00  0.00    +0.000 C 
ATOM     31  C   UNL     1      -2.668  10.851  15.490  0.00  0.00    +0.000 C 
ATOM     32  C   UNL     1      -3.745  10.041  14.811  0.00  0.00    +0.000 C 
ATOM     33  C   UNL     1      -2.923   9.442  15.934  0.00  0.00    +0.000 C 
ATOM     34  H   UNL     1      -2.253   9.878  19.144  0.00  0.00    +0.000 HD
ENDBRANCH  23  26
ENDBRANCH  21  22
BRANCH  21  36
ATOM     35  N   UNL     1      -3.895  12.307  23.016  0.00  0.00    +0.000 NA
ATOM     36  C   UNL     1      -2.877  12.397  22.277  0.00  0.00    +0.000 C 
ENDBRANCH  21  36
ENDBRANCH  20  21
ENDBRANCH   1  20
TORSDOF 6
ENDMDL
MODEL 8
REMARK VINA RESULT:      -8.4      3.285      4.721
REMARK  Name = 
REMARK  6 active torsions:
REMARK  status: ('A' for Active; 'I' for Inactive)
REMARK    1  A    between atoms: C_2  and  C_3
REMARK    2  A    between atoms: C_3  and  C_4
REMARK    3  A    between atoms: C_3  and  N_23
REMARK    4  A    between atoms: C_4  and  C_5
REMARK    5  A    between atoms: C_8  and  C_9
REMARK    6  A    between atoms: C_24  and  C_26
REMARK                            x       y       z     vdW  Elec       q    Type
REMARK                         _______ _______ _______ _____ _____    ______ ____
ROOT
ATOM      1  C   UNL     1      -0.484  10.580  19.365  0.00  0.00    +0.000 A 
ATOM      2  C   UNL     1       0.075  10.347  18.107  0.00  0.00    +0.000 A 
ATOM      3  C   UNL     1       1.036   9.346  17.940  0.00  0.00    +0.000 A 
ATOM      4  C   UNL     1       1.472   8.556  19.018  0.00  0.00    +0.000 A 
ATOM      5  C   UNL     1       0.897   8.807  20.277  0.00  0.00    +0.000 A 
ATOM      6  C   UNL     1      -0.063   9.800  20.439  0.00  0.00    +0.000 A 
ATOM      7  F   UNL     1      -0.582  10.010  21.657  0.00  0.00    +0.000 F 
ENDROOT
BRANCH   4   8
ATOM      8  C   UNL     1       2.507   7.513  18.844  0.00  0.00    +0.000 A 
ATOM      9  C   UNL     1       2.673   6.477  19.781  0.00  0.00    +0.000 A 
ATOM     10  C   UNL     1       3.634   5.477  19.603  0.00  0.00    +0.000 A 
ATOM     11  C   UNL     1       4.434   5.479  18.460  0.00  0.00    +0.000 A 
ATOM     12  C   UNL     1       4.289   6.493  17.502  0.00  0.00    +0.000 A 
ATOM     13  C   UNL     1       3.352   7.512  17.717  0.00  0.00    +0.000 A 
ATOM     14  C   UNL     1       5.163   6.499  16.276  0.00  0.00    +0.000 C 
ATOM     15  C   UNL     1       5.509   5.065  15.890  0.00  0.00    +0.000 C 
ATOM     16  N   UNL     1       6.033   4.334  17.021  0.00  0.00    +0.000 N 
ATOM     17  C   UNL     1       5.432   4.393  18.256  0.00  0.00    +0.000 C 
ATOM     18  O   UNL     1       5.706   3.589  19.137  0.00  0.00    +0.000 OA
ATOM     19  H   UNL     1       6.608   3.513  16.874  0.00  0.00    +0.000 HD
ENDBRANCH   4   8
BRANCH   1  20
ATOM     20  C   UNL     1      -1.473  11.692  19.573  0.00  0.00    +0.000 C 
BRANCH  20  21
ATOM     21  C   UNL     1      -1.131  12.567  20.791  0.00  0.00    +0.000 C 
BRANCH  21  22
ATOM     22  N   UNL     1      -0.187  13.651  20.446  0.00  0.00    +0.000 N 
ATOM     23  C   UNL     1       1.144  13.571  20.794  0.00  0.00    +0.000 C 
ATOM     24  O   UNL     1       1.573  12.639  21.468  0.00  0.00    +0.000 OA
ATOM     25  H   UNL     1      -0.510  14.472  19.946  0.00  0.00    +0.000 HD
BRANCH  23  26
ATOM     26  C   UNL     1       2.057  14.684  20.237  0.00  0.00    +0.000 C 
ATOM     27  N   UNL     1       3.498  14.237  20.102  0.00  0.00    +0.000 NA
ATOM     28  C   UNL     1       3.792  14.436  18.646  0.00  0.00    +0.000 C 
ATOM     29  C   UNL     1       2.469  13.994  18.021  0.00  0.00    +0.000 C 
ATOM     30  C   UNL     1       1.672  15.061  18.784  0.00  0.00    +0.000 C 
ATOM     31  C   UNL     1       2.395  16.369  18.454  0.00  0.00    +0.000 C 
ATOM     32  C   UNL     1       3.196  16.618  17.200  0.00  0.00    +0.000 C 
ATOM     33  C   UNL     1       3.831  15.941  18.398  0.00  0.00    +0.000 C 
ATOM     34  H   UNL     1       3.543  13.230  20.270  0.00  0.00    +0.000 HD
ENDBRANCH  23  26
ENDBRANCH  21  22
BRANCH  21  36
ATOM     35  N   UNL     1      -3.510  13.656  21.733  0.00  0.00    +0.000 NA
ATOM     36  C   UNL     1      -2.431  13.162  21.306  0.00  0.00    +0.000 C 
ENDBRANCH  21  36
ENDBRANCH  20  21
ENDBRANCH   1  20
TORSDOF 6
ENDMDL
MODEL 9
REMARK VINA RESULT:      -8.4      3.475      4.881
REMARK  Name = 
REMARK  6 active torsions:
REMARK  status: ('A' for Active; 'I' for Inactive)
REMARK    1  A    between atoms: C_2  and  C_3
REMARK    2  A    between atoms: C_3  and  C_4
REMARK    3  A    between atoms: C_3  and  N_23
REMARK    4  A    between atoms: C_4  and  C_5
REMARK    5  A    between atoms: C_8  and  C_9
REMARK    6  A    between atoms: C_24  and  C_26
REMARK                            x       y       z     vdW  Elec       q    Type
REMARK                         _______ _______ _______ _____ _____    ______ ____
ROOT
ATOM      1  C   UNL     1       0.566   9.395  19.660  0.00  0.00    +0.000 A 
ATOM      2  C   UNL     1       0.904   9.686  18.337  0.00  0.00    +0.000 A 
ATOM      3  C   UNL     1       1.910   8.960  17.693  0.00  0.00    +0.000 A 
ATOM      4  C   UNL     1       2.611   7.932  18.347  0.00  0.00    +0.000 A 
ATOM      5  C   UNL     1       2.254   7.654  19.680  0.00  0.00    +0.000 A 
ATOM      6  C   UNL     1       1.250   8.374  20.315  0.00  0.00    +0.000 A 
ATOM      7  F   UNL     1       0.945   8.081  21.588  0.00  0.00    +0.000 F 
ENDROOT
BRANCH   4   8
ATOM      8  C   UNL     1       3.692   7.181  17.671  0.00  0.00    +0.000 A 
ATOM      9  C   UNL     1       4.015   7.412  16.321  0.00  0.00    +0.000 A 
ATOM     10  C   UNL     1       5.053   6.720  15.689  0.00  0.00    +0.000 A 
ATOM     11  C   UNL     1       5.812   5.799  16.410  0.00  0.00    +0.000 A 
ATOM     12  C   UNL     1       5.522   5.551  17.759  0.00  0.00    +0.000 A 
ATOM     13  C   UNL     1       4.450   6.219  18.365  0.00  0.00    +0.000 A 
ATOM     14  C   UNL     1       6.336   4.546  18.530  0.00  0.00    +0.000 C 
ATOM     15  C   UNL     1       7.763   4.526  17.993  0.00  0.00    +0.000 C 
ATOM     16  N   UNL     1       7.776   4.362  16.557  0.00  0.00    +0.000 N 
ATOM     17  C   UNL     1       6.939   5.091  15.743  0.00  0.00    +0.000 C 
ATOM     18  O   UNL     1       7.121   5.151  14.535  0.00  0.00    +0.000 OA
ATOM     19  H   UNL     1       8.600   4.000  16.093  0.00  0.00    +0.000 HD
ENDBRANCH   4   8
BRANCH   1  20
ATOM     20  C   UNL     1      -0.470  10.206  20.385  0.00  0.00    +0.000 C 
BRANCH  20  21
ATOM     21  C   UNL     1       0.126  11.444  21.077  0.00  0.00    +0.000 C 
BRANCH  21  22
ATOM     22  N   UNL     1       0.027  12.651  20.231  0.00  0.00    +0.000 N 
ATOM     23  C   UNL     1       1.125  13.454  20.007  0.00  0.00    +0.000 C 
ATOM     24  O   UNL     1       2.197  13.238  20.564  0.00  0.00    +0.000 OA
ATOM     25  H   UNL     1      -0.857  12.906  19.802  0.00  0.00    +0.000 HD
BRANCH  23  26
ATOM     26  C   UNL     1       0.935  14.589  18.978  0.00  0.00    +0.000 C 
ATOM     27  N   UNL     1      -0.526  14.873  18.695  0.00  0.00    +0.000 NA
ATOM     28  C   UNL     1      -0.677  16.320  19.054  0.00  0.00    +0.000 C 
ATOM     29  C   UNL     1       0.209  16.404  20.295  0.00  0.00    +0.000 C 
ATOM     30  C   UNL     1       1.454  15.943  19.523  0.00  0.00    +0.000 C 
ATOM     31  C   UNL     1       1.528  16.905  18.335  0.00  0.00    +0.000 C 
ATOM     32  C   UNL     1       0.974  18.308  18.326  0.00  0.00    +0.000 C 
ATOM     33  C   UNL     1       0.083  17.125  18.004  0.00  0.00    +0.000 C 
ATOM     34  H   UNL     1      -1.095  14.349  19.362  0.00  0.00    +0.000 HD
ENDBRANCH  23  26
ENDBRANCH  21  22
BRANCH  21  36
ATOM     35  N   UNL     1      -1.278  11.835  23.445  0.00  0.00    +0.000 NA
ATOM     36  C   UNL     1      -0.641  11.658  22.371  0.00  0.00    +0.000 C 
ENDBRANCH  21  36
ENDBRANCH  20  21
ENDBRANCH   1  20
TORSDOF 6
ENDMDL
