MODEL 1
REMARK VINA RESULT:      -5.3      0.000      0.000
REMARK  Name = 
REMARK  3 active torsions:
REMARK  status: ('A' for Active; 'I' for Inactive)
REMARK    1  A    between atoms: C_2  and  O_4
REMARK    2  A    between atoms: O_4  and  C_5
REMARK    3  A    between atoms: C_5  and  C_8
REMARK                            x       y       z     vdW  Elec       q    Type
REMARK                         _______ _______ _______ _____ _____    ______ ____
ROOT
ATOM      1  C   UNL     1       6.916   5.209  16.471  0.00  0.00    +0.000 C 
ATOM      2  F   UNL     1       7.750   4.272  17.000  0.00  0.00    +0.000 F 
ATOM      3 CL   UNL     1       5.490   5.364  17.550  0.00  0.00    +0.000 Cl
ENDROOT
BRANCH   1   4
ATOM      4  C   UNL     1       6.496   4.764  15.032  0.00  0.00    +0.000 C 
ATOM      5  F   UNL     1       6.275   3.432  14.948  0.00  0.00    +0.000 F 
ATOM      6  F   UNL     1       5.347   5.378  14.642  0.00  0.00    +0.000 F 
ATOM      7  F   UNL     1       7.426   5.062  14.090  0.00  0.00    +0.000 F 
ENDBRANCH   1   4
BRANCH   1   8
ATOM      8  O   UNL     1       7.619   6.454  16.429  0.00  0.00    +0.000 OA
BRANCH   8  10
ATOM      9  F   UNL     1       8.246   6.713  18.579  0.00  0.00    +0.000 F 
ATOM     10  C   UNL     1       7.462   7.211  17.600  0.00  0.00    +0.000 C 
ATOM     11  F   UNL     1       7.945   8.447  17.323  0.00  0.00    +0.000 F 
ENDBRANCH   8  10
ENDBRANCH   1   8
TORSDOF 3
ENDMDL
MODEL 2
REMARK VINA RESULT:      -5.2      1.236      3.799
REMARK  Name = 
REMARK  3 active torsions:
REMARK  status: ('A' for Active; 'I' for Inactive)
REMARK    1  A    between atoms: C_2  and  O_4
REMARK    2  A    between atoms: O_4  and  C_5
REMARK    3  A    between atoms: C_5  and  C_8
REMARK                            x       y       z     vdW  Elec       q    Type
REMARK                         _______ _______ _______ _____ _____    ______ ____
ROOT
ATOM      1  C   UNL     1       7.163   6.190  16.960  0.00  0.00    +0.000 C 
ATOM      2  F   UNL     1       7.831   7.367  17.111  0.00  0.00    +0.000 F 
ATOM      3 CL   UNL     1       5.407   6.549  16.876  0.00  0.00    +0.000 Cl
ENDROOT
BRANCH   1   4
ATOM      4  C   UNL     1       7.496   5.256  18.169  0.00  0.00    +0.000 C 
ATOM      5  F   UNL     1       8.251   4.193  17.806  0.00  0.00    +0.000 F 
ATOM      6  F   UNL     1       8.192   5.922  19.129  0.00  0.00    +0.000 F 
ATOM      7  F   UNL     1       6.391   4.756  18.777  0.00  0.00    +0.000 F 
ENDBRANCH   1   4
BRANCH   1   8
ATOM      8  O   UNL     1       7.587   5.595  15.731  0.00  0.00    +0.000 OA
BRANCH   8  10
ATOM      9  F   UNL     1       6.841   4.924  13.711  0.00  0.00    +0.000 F 
ATOM     10  C   UNL     1       6.536   4.990  15.024  0.00  0.00    +0.000 C 
ATOM     11  F   UNL     1       6.470   3.709  15.461  0.00  0.00    +0.000 F 
ENDBRANCH   8  10
ENDBRANCH   1   8
TORSDOF 3
ENDMDL
MODEL 3
REMARK VINA RESULT:      -5.2      1.255      3.793
REMARK  Name = 
REMARK  3 active torsions:
REMARK  status: ('A' for Active; 'I' for Inactive)
REMARK    1  A    between atoms: C_2  and  O_4
REMARK    2  A    between atoms: O_4  and  C_5
REMARK    3  A    between atoms: C_5  and  C_8
REMARK                            x       y       z     vdW  Elec       q    Type
REMARK                         _______ _______ _______ _____ _____    ______ ____
ROOT
ATOM      1  C   UNL     1       7.173   6.218  16.994  0.00  0.00    +0.000 C 
ATOM      2  F   UNL     1       7.851   7.392  17.118  0.00  0.00    +0.000 F 
ATOM      3 CL   UNL     1       5.418   6.588  16.919  0.00  0.00    +0.000 Cl
ENDROOT
BRANCH   1   4
ATOM      4  C   UNL     1       7.511   5.303  18.216  0.00  0.00    +0.000 C 
ATOM      5  F   UNL     1       6.401   4.819  18.821  0.00  0.00    +0.000 F 
ATOM      6  F   UNL     1       8.250   4.227  17.836  0.00  0.00    +0.000 F 
ATOM      7  F   UNL     1       8.229   5.939  19.176  0.00  0.00    +0.000 F 
ENDBRANCH   1   4
BRANCH   1   8
ATOM      8  O   UNL     1       7.582   5.598  15.771  0.00  0.00    +0.000 OA
BRANCH   8  10
ATOM      9  F   UNL     1       6.800   4.941  13.761  0.00  0.00    +0.000 F 
ATOM     10  C   UNL     1       6.518   4.999  15.079  0.00  0.00    +0.000 C 
ATOM     11  F   UNL     1       6.457   3.715  15.508  0.00  0.00    +0.000 F 
ENDBRANCH   8  10
ENDBRANCH   1   8
TORSDOF 3
ENDMDL
MODEL 4
REMARK VINA RESULT:      -5.0      0.783      1.141
REMARK  Name = 
REMARK  3 active torsions:
REMARK  status: ('A' for Active; 'I' for Inactive)
REMARK    1  A    between atoms: C_2  and  O_4
REMARK    2  A    between atoms: O_4  and  C_5
REMARK    3  A    between atoms: C_5  and  C_8
REMARK                            x       y       z     vdW  Elec       q    Type
REMARK                         _______ _______ _______ _____ _____    ______ ____
ROOT
ATOM      1  C   UNL     1       6.929   5.147  16.999  0.00  0.00    +0.000 C 
ATOM      2  F   UNL     1       7.911   4.225  17.193  0.00  0.00    +0.000 F 
ATOM      3 CL   UNL     1       5.986   5.292  18.518  0.00  0.00    +0.000 Cl
ENDROOT
BRANCH   1   4
ATOM      4  C   UNL     1       6.025   4.688  15.808  0.00  0.00    +0.000 C 
ATOM      5  F   UNL     1       4.711   4.677  16.132  0.00  0.00    +0.000 F 
ATOM      6  F   UNL     1       6.159   5.517  14.739  0.00  0.00    +0.000 F 
ATOM      7  F   UNL     1       6.324   3.441  15.363  0.00  0.00    +0.000 F 
ENDBRANCH   1   4
BRANCH   1   8
ATOM      8  O   UNL     1       7.552   6.401  16.703  0.00  0.00    +0.000 OA
BRANCH   8  10
ATOM      9  F   UNL     1       8.495   7.092  18.631  0.00  0.00    +0.000 F 
ATOM     10  C   UNL     1       7.480   7.311  17.769  0.00  0.00    +0.000 C 
ATOM     11  F   UNL     1       7.697   8.539  17.237  0.00  0.00    +0.000 F 
ENDBRANCH   8  10
ENDBRANCH   1   8
TORSDOF 3
ENDMDL
MODEL 5
REMARK VINA RESULT:      -5.0      6.061      6.644
REMARK  Name = 
REMARK  3 active torsions:
REMARK  status: ('A' for Active; 'I' for Inactive)
REMARK    1  A    between atoms: C_2  and  O_4
REMARK    2  A    between atoms: O_4  and  C_5
REMARK    3  A    between atoms: C_5  and  C_8
REMARK                            x       y       z     vdW  Elec       q    Type
REMARK                         _______ _______ _______ _____ _____    ______ ____
ROOT
ATOM      1  C   UNL     1       2.790   2.921  18.968  0.00  0.00    +0.000 C 
ATOM      2  F   UNL     1       3.686   3.546  19.780  0.00  0.00    +0.000 F 
ATOM      3 CL   UNL     1       3.556   1.431  18.328  0.00  0.00    +0.000 Cl
ENDROOT
BRANCH   1   4
ATOM      4  C   UNL     1       2.383   3.894  17.813  0.00  0.00    +0.000 C 
ATOM      5  F   UNL     1       2.865   5.145  17.999  0.00  0.00    +0.000 F 
ATOM      6  F   UNL     1       2.861   3.464  16.615  0.00  0.00    +0.000 F 
ATOM      7  F   UNL     1       1.040   4.015  17.666  0.00  0.00    +0.000 F 
ENDBRANCH   1   4
BRANCH   1   8
ATOM      8  O   UNL     1       1.649   2.570  19.756  0.00  0.00    +0.000 OA
BRANCH   8  10
ATOM      9  F   UNL     1       0.595   4.365  20.623  0.00  0.00    +0.000 F 
ATOM     10  C   UNL     1       1.490   3.388  20.884  0.00  0.00    +0.000 C 
ATOM     11  F   UNL     1       0.930   2.612  21.844  0.00  0.00    +0.000 F 
ENDBRANCH   8  10
ENDBRANCH   1   8
TORSDOF 3
ENDMDL
MODEL 6
REMARK VINA RESULT:      -5.0      5.866      6.559
REMARK  Name = 
REMARK  3 active torsions:
REMARK  status: ('A' for Active; 'I' for Inactive)
REMARK    1  A    between atoms: C_2  and  O_4
REMARK    2  A    between atoms: O_4  and  C_5
REMARK    3  A    between atoms: C_5  and  C_8
REMARK                            x       y       z     vdW  Elec       q    Type
REMARK                         _______ _______ _______ _____ _____    ______ ____
ROOT
ATOM      1  C   UNL     1       1.364   3.084  19.091  0.00  0.00    +0.000 C 
ATOM      2  F   UNL     1       0.295   2.341  18.691  0.00  0.00    +0.000 F 
ATOM      3 CL   UNL     1       0.842   4.138  20.445  0.00  0.00    +0.000 Cl
ENDROOT
BRANCH   1   4
ATOM      4  C   UNL     1       1.880   3.927  17.879  0.00  0.00    +0.000 C 
ATOM      5  F   UNL     1       2.668   4.958  18.265  0.00  0.00    +0.000 F 
ATOM      6  F   UNL     1       2.620   3.166  17.029  0.00  0.00    +0.000 F 
ATOM      7  F   UNL     1       0.878   4.463  17.137  0.00  0.00    +0.000 F 
ENDBRANCH   1   4
BRANCH   1   8
ATOM      8  O   UNL     1       2.380   2.187  19.549  0.00  0.00    +0.000 OA
BRANCH   8  10
ATOM      9  F   UNL     1       3.158   2.270  21.664  0.00  0.00    +0.000 F 
ATOM     10  C   UNL     1       3.290   2.795  20.428  0.00  0.00    +0.000 C 
ATOM     11  F   UNL     1       4.527   2.442  20.000  0.00  0.00    +0.000 F 
ENDBRANCH   8  10
ENDBRANCH   1   8
TORSDOF 3
ENDMDL
MODEL 7
REMARK VINA RESULT:      -5.0      6.251      7.025
REMARK  Name = 
REMARK  3 active torsions:
REMARK  status: ('A' for Active; 'I' for Inactive)
REMARK    1  A    between atoms: C_2  and  O_4
REMARK    2  A    between atoms: O_4  and  C_5
REMARK    3  A    between atoms: C_5  and  C_8
REMARK                            x       y       z     vdW  Elec       q    Type
REMARK                         _______ _______ _______ _____ _____    ______ ____
ROOT
ATOM      1  C   UNL     1       2.122   2.831  19.618  0.00  0.00    +0.000 C 
ATOM      2  F   UNL     1       1.650   1.557  19.530  0.00  0.00    +0.000 F 
ATOM      3 CL   UNL     1       3.905   2.758  19.803  0.00  0.00    +0.000 Cl
ENDROOT
BRANCH   1   4
ATOM      4  C   UNL     1       1.450   3.541  20.838  0.00  0.00    +0.000 C 
ATOM      5  F   UNL     1       2.308   4.352  21.500  0.00  0.00    +0.000 F 
ATOM      6  F   UNL     1       0.404   4.315  20.444  0.00  0.00    +0.000 F 
ATOM      7  F   UNL     1       0.956   2.670  21.755  0.00  0.00    +0.000 F 
ENDBRANCH   1   4
BRANCH   1   8
ATOM      8  O   UNL     1       1.796   3.508  18.400  0.00  0.00    +0.000 OA
BRANCH   8  10
ATOM      9  F   UNL     1       3.356   4.226  16.938  0.00  0.00    +0.000 F 
ATOM     10  C   UNL     1       2.706   4.528  18.082  0.00  0.00    +0.000 C 
ATOM     11  F   UNL     1       1.965   5.631  17.814  0.00  0.00    +0.000 F 
ENDBRANCH   8  10
ENDBRANCH   1   8
TORSDOF 3
ENDMDL
MODEL 8
REMARK VINA RESULT:      -5.0      5.999      6.479
REMARK  Name = 
REMARK  3 active torsions:
REMARK  status: ('A' for Active; 'I' for Inactive)
REMARK    1  A    between atoms: C_2  and  O_4
REMARK    2  A    between atoms: O_4  and  C_5
REMARK    3  A    between atoms: C_5  and  C_8
REMARK                            x       y       z     vdW  Elec       q    Type
REMARK                         _______ _______ _______ _____ _____    ______ ____
ROOT
ATOM      1  C   UNL     1       2.217   2.688  18.793  0.00  0.00    +0.000 C 
ATOM      2  F   UNL     1       2.939   1.620  18.353  0.00  0.00    +0.000 F 
ATOM      3 CL   UNL     1       0.483   2.229  18.799  0.00  0.00    +0.000 Cl
ENDROOT
BRANCH   1   4
ATOM      4  C   UNL     1       2.481   3.905  17.847  0.00  0.00    +0.000 C 
ATOM      5  F   UNL     1       3.311   4.819  18.402  0.00  0.00    +0.000 F 
ATOM      6  F   UNL     1       3.058   3.508  16.682  0.00  0.00    +0.000 F 
ATOM      7  F   UNL     1       1.348   4.569  17.505  0.00  0.00    +0.000 F 
ENDBRANCH   1   4
BRANCH   1   8
ATOM      8  O   UNL     1       2.637   2.986  20.127  0.00  0.00    +0.000 OA
BRANCH   8  10
ATOM      9  F   UNL     1       1.391   2.691  21.984  0.00  0.00    +0.000 F 
ATOM     10  C   UNL     1       1.601   3.499  20.924  0.00  0.00    +0.000 C 
ATOM     11  F   UNL     1       2.054   4.673  21.429  0.00  0.00    +0.000 F 
ENDBRANCH   8  10
ENDBRANCH   1   8
TORSDOF 3
ENDMDL
MODEL 9
REMARK VINA RESULT:      -4.9      5.837      6.402
REMARK  Name = 
REMARK  3 active torsions:
REMARK  status: ('A' for Active; 'I' for Inactive)
REMARK    1  A    between atoms: C_2  and  O_4
REMARK    2  A    between atoms: O_4  and  C_5
REMARK    3  A    between atoms: C_5  and  C_8
REMARK                            x       y       z     vdW  Elec       q    Type
REMARK                         _______ _______ _______ _____ _____    ______ ____
ROOT
ATOM      1  C   UNL     1       2.903   3.572  18.853  0.00  0.00    +0.000 C 
ATOM      2  F   UNL     1       4.259   3.455  18.822  0.00  0.00    +0.000 F 
ATOM      3 CL   UNL     1       2.193   2.084  18.145  0.00  0.00    +0.000 Cl
ENDROOT
BRANCH   1   4
ATOM      4  C   UNL     1       2.483   4.844  18.046  0.00  0.00    +0.000 C 
ATOM      5  F   UNL     1       3.415   5.207  17.134  0.00  0.00    +0.000 F 
ATOM      6  F   UNL     1       1.326   4.634  17.362  0.00  0.00    +0.000 F 
ATOM      7  F   UNL     1       2.269   5.929  18.833  0.00  0.00    +0.000 F 
ENDBRANCH   1   4
BRANCH   1   8
ATOM      8  O   UNL     1       2.500   3.689  20.221  0.00  0.00    +0.000 OA
BRANCH   8  10
ATOM      9  F   UNL     1       1.133   2.707  21.722  0.00  0.00    +0.000 F 
ATOM     10  C   UNL     1       1.216   3.175  20.458  0.00  0.00    +0.000 C 
ATOM     11  F   UNL     1       0.365   4.227  20.390  0.00  0.00    +0.000 F 
ENDBRANCH   8  10
ENDBRANCH   1   8
TORSDOF 3
ENDMDL
