MODEL 1
REMARK VINA RESULT:      -7.3      0.000      0.000
REMARK  Name = 
REMARK  8 active torsions:
REMARK  status: ('A' for Active; 'I' for Inactive)
REMARK    1  A    between atoms: C_1  and  C_2
REMARK    2  A    between atoms: C_2  and  C_3
REMARK    3  A    between atoms: C_3  and  C_4
REMARK    4  A    between atoms: C_4  and  C_21
REMARK    5  A    between atoms: N_5  and  N_6
REMARK    6  A    between atoms: C_7  and  C_9
REMARK    7  A    between atoms: C_12  and  O_13
REMARK    8  A    between atoms: O_13  and  C_14
REMARK                            x       y       z     vdW  Elec       q    Type
REMARK                         _______ _______ _______ _____ _____    ______ ____
ROOT
ATOM      1  N   UNL     1       2.280   7.399  19.464  0.00  0.00    +0.000 N 
ATOM      2  C   UNL     1       2.336   6.013  19.508  0.00  0.00    +0.000 C 
ATOM      3  O   UNL     1       1.684   5.281  20.244  0.00  0.00    +0.000 OA
ATOM      4  H   UNL     1       2.773   7.889  18.732  0.00  0.00    +0.000 HD
ENDROOT
BRANCH   2   5
ATOM      5  C   UNL     1       3.260   5.422  18.499  0.00  0.00    +0.000 A 
ATOM      6  C   UNL     1       3.969   6.255  17.625  0.00  0.00    +0.000 A 
ATOM      7  C   UNL     1       4.792   5.714  16.638  0.00  0.00    +0.000 A 
ATOM      8  C   UNL     1       4.960   4.333  16.534  0.00  0.00    +0.000 A 
ATOM      9  C   UNL     1       4.267   3.495  17.419  0.00  0.00    +0.000 A 
ATOM     10  C   UNL     1       3.425   4.035  18.405  0.00  0.00    +0.000 A 
BRANCH   8  11
ATOM     11  O   UNL     1       5.763   3.721  15.609  0.00  0.00    +0.000 OA
BRANCH  11  12
ATOM     12  C   UNL     1       6.014   4.455  14.407  0.00  0.00    +0.000 C 
ATOM     13  C   UNL     1       7.462   4.929  14.322  0.00  0.00    +0.000 C 
ATOM     14  C   UNL     1       7.710   5.133  12.839  0.00  0.00    +0.000 C 
ATOM     15  C   UNL     1       6.794   4.145  12.123  0.00  0.00    +0.000 C 
ATOM     16  C   UNL     1       5.870   3.552  13.184  0.00  0.00    +0.000 C 
ENDBRANCH  11  12
ENDBRANCH   8  11
ENDBRANCH   2   5
BRANCH   1  18
ATOM     17  C   UNL     1       0.956   9.203  20.009  0.00  0.00    +0.000 C 
ATOM     18  N   UNL     1       1.587   8.122  20.387  0.00  0.00    +0.000 NA
BRANCH  17  19
ATOM     19  C   UNL     1       0.254   9.956  21.051  0.00  0.00    +0.000 A 
ATOM     20  C   UNL     1       0.171   9.646  22.399  0.00  0.00    +0.000 A 
ATOM     21  C   UNL     1      -0.636  10.564  23.132  0.00  0.00    +0.000 A 
ATOM     22  C   UNL     1      -1.115  11.575  22.333  0.00  0.00    +0.000 A 
ATOM     23  S   UNL     1      -0.615  11.395  20.713  0.00  0.00    +0.000 S 
ENDBRANCH  17  19
BRANCH  17  24
ATOM     24  C   UNL     1       0.817   9.645  18.544  0.00  0.00    +0.000 C 
BRANCH  24  26
ATOM     25  C   UNL     1       2.167  11.817  18.332  0.00  0.00    +0.000 C 
ATOM     26  C   UNL     1       2.017  10.362  17.926  0.00  0.00    +0.000 C 
ENDBRANCH  24  26
ENDBRANCH  17  24
ENDBRANCH   1  18
TORSDOF 7
ENDMDL
MODEL 2
REMARK VINA RESULT:      -7.2      0.791      1.059
REMARK  Name = 
REMARK  8 active torsions:
REMARK  status: ('A' for Active; 'I' for Inactive)
REMARK    1  A    between atoms: C_1  and  C_2
REMARK    2  A    between atoms: C_2  and  C_3
REMARK    3  A    between atoms: C_3  and  C_4
REMARK    4  A    between atoms: C_4  and  C_21
REMARK    5  A    between atoms: N_5  and  N_6
REMARK    6  A    between atoms: C_7  and  C_9
REMARK    7  A    between atoms: C_12  and  O_13
REMARK    8  A    between atoms: O_13  and  C_14
REMARK                            x       y       z     vdW  Elec       q    Type
REMARK                         _______ _______ _______ _____ _____    ______ ____
ROOT
ATOM      1  N   UNL     1       2.155   7.658  19.413  0.00  0.00    +0.000 N 
ATOM      2  C   UNL     1       2.293   6.292  19.617  0.00  0.00    +0.000 C 
ATOM      3  O   UNL     1       1.767   5.631  20.505  0.00  0.00    +0.000 OA
ATOM      4  H   UNL     1       2.537   8.072  18.576  0.00  0.00    +0.000 HD
ENDROOT
BRANCH   2   5
ATOM      5  C   UNL     1       3.134   5.619  18.587  0.00  0.00    +0.000 A 
ATOM      6  C   UNL     1       4.072   6.357  17.856  0.00  0.00    +0.000 A 
ATOM      7  C   UNL     1       4.824   5.753  16.849  0.00  0.00    +0.000 A 
ATOM      8  C   UNL     1       4.689   4.390  16.584  0.00  0.00    +0.000 A 
ATOM      9  C   UNL     1       3.764   3.642  17.326  0.00  0.00    +0.000 A 
ATOM     10  C   UNL     1       2.993   4.249  18.331  0.00  0.00    +0.000 A 
BRANCH   8  11
ATOM     11  O   UNL     1       5.400   3.715  15.629  0.00  0.00    +0.000 OA
BRANCH  11  12
ATOM     12  C   UNL     1       5.788   4.471  14.478  0.00  0.00    +0.000 C 
ATOM     13  C   UNL     1       7.257   4.883  14.536  0.00  0.00    +0.000 C 
ATOM     14  C   UNL     1       7.643   5.119  13.088  0.00  0.00    +0.000 C 
ATOM     15  C   UNL     1       6.755   4.193  12.263  0.00  0.00    +0.000 C 
ATOM     16  C   UNL     1       5.716   3.611  13.219  0.00  0.00    +0.000 C 
ENDBRANCH  11  12
ENDBRANCH   8  11
ENDBRANCH   2   5
BRANCH   1  18
ATOM     17  C   UNL     1       0.926   9.544  19.897  0.00  0.00    +0.000 C 
ATOM     18  N   UNL     1       1.526   8.461  20.316  0.00  0.00    +0.000 NA
BRANCH  17  19
ATOM     19  C   UNL     1       0.294  10.384  20.917  0.00  0.00    +0.000 A 
ATOM     20  C   UNL     1      -0.425   9.963  22.024  0.00  0.00    +0.000 A 
ATOM     21  C   UNL     1      -0.951  11.044  22.790  0.00  0.00    +0.000 A 
ATOM     22  C   UNL     1      -0.586  12.264  22.272  0.00  0.00    +0.000 A 
ATOM     23  S   UNL     1       0.358  12.097  20.862  0.00  0.00    +0.000 S 
ENDBRANCH  17  19
BRANCH  17  24
ATOM     24  C   UNL     1       0.750   9.907  18.414  0.00  0.00    +0.000 C 
BRANCH  24  26
ATOM     25  C   UNL     1      -1.572  10.848  17.861  0.00  0.00    +0.000 C 
ATOM     26  C   UNL     1      -0.629   9.660  17.805  0.00  0.00    +0.000 C 
ENDBRANCH  24  26
ENDBRANCH  17  24
ENDBRANCH   1  18
TORSDOF 7
ENDMDL
MODEL 3
REMARK VINA RESULT:      -7.2      3.416     10.605
REMARK  Name = 
REMARK  8 active torsions:
REMARK  status: ('A' for Active; 'I' for Inactive)
REMARK    1  A    between atoms: C_1  and  C_2
REMARK    2  A    between atoms: C_2  and  C_3
REMARK    3  A    between atoms: C_3  and  C_4
REMARK    4  A    between atoms: C_4  and  C_21
REMARK    5  A    between atoms: N_5  and  N_6
REMARK    6  A    between atoms: C_7  and  C_9
REMARK    7  A    between atoms: C_12  and  O_13
REMARK    8  A    between atoms: O_13  and  C_14
REMARK                            x       y       z     vdW  Elec       q    Type
REMARK                         _______ _______ _______ _____ _____    ______ ____
ROOT
ATOM      1  N   UNL     1       1.596   8.106  20.130  0.00  0.00    +0.000 N 
ATOM      2  C   UNL     1       0.983   9.266  19.677  0.00  0.00    +0.000 C 
ATOM      3  O   UNL     1       0.970   9.678  18.523  0.00  0.00    +0.000 OA
ATOM      4  H   UNL     1       1.437   7.803  21.080  0.00  0.00    +0.000 HD
ENDROOT
BRANCH   2   5
ATOM      5  C   UNL     1       0.245  10.003  20.740  0.00  0.00    +0.000 A 
ATOM      6  C   UNL     1       0.140   9.461  22.026  0.00  0.00    +0.000 A 
ATOM      7  C   UNL     1      -0.597  10.111  23.015  0.00  0.00    +0.000 A 
ATOM      8  C   UNL     1      -1.205  11.339  22.753  0.00  0.00    +0.000 A 
ATOM      9  C   UNL     1      -1.088  11.896  21.472  0.00  0.00    +0.000 A 
ATOM     10  C   UNL     1      -0.360  11.237  20.469  0.00  0.00    +0.000 A 
BRANCH   8  11
ATOM     11  O   UNL     1      -1.930  12.052  23.670  0.00  0.00    +0.000 OA
BRANCH  11  12
ATOM     12  C   UNL     1      -3.243  12.450  23.267  0.00  0.00    +0.000 C 
ATOM     13  C   UNL     1      -4.273  12.217  24.369  0.00  0.00    +0.000 C 
ATOM     14  C   UNL     1      -5.400  13.178  24.048  0.00  0.00    +0.000 C 
ATOM     15  C   UNL     1      -4.751  14.359  23.332  0.00  0.00    +0.000 C 
ATOM     16  C   UNL     1      -3.304  13.960  23.046  0.00  0.00    +0.000 C 
ENDBRANCH  11  12
ENDBRANCH   8  11
ENDBRANCH   2   5
BRANCH   1  18
ATOM     17  C   UNL     1       2.634   6.112  19.631  0.00  0.00    +0.000 C 
ATOM     18  N   UNL     1       2.416   7.365  19.334  0.00  0.00    +0.000 NA
BRANCH  17  19
ATOM     19  C   UNL     1       3.549   5.375  18.756  0.00  0.00    +0.000 A 
ATOM     20  C   UNL     1       3.247   4.762  17.551  0.00  0.00    +0.000 A 
ATOM     21  C   UNL     1       4.362   4.085  16.977  0.00  0.00    +0.000 A 
ATOM     22  C   UNL     1       5.497   4.232  17.737  0.00  0.00    +0.000 A 
ATOM     23  S   UNL     1       5.206   5.156  19.140  0.00  0.00    +0.000 S 
ENDBRANCH  17  19
BRANCH  17  24
ATOM     24  C   UNL     1       1.901   5.358  20.752  0.00  0.00    +0.000 C 
BRANCH  24  26
ATOM     25  C   UNL     1       1.307   2.898  21.176  0.00  0.00    +0.000 C 
ATOM     26  C   UNL     1       1.076   4.140  20.336  0.00  0.00    +0.000 C 
ENDBRANCH  24  26
ENDBRANCH  17  24
ENDBRANCH   1  18
TORSDOF 7
ENDMDL
MODEL 4
REMARK VINA RESULT:      -7.2      2.967     10.117
REMARK  Name = 
REMARK  8 active torsions:
REMARK  status: ('A' for Active; 'I' for Inactive)
REMARK    1  A    between atoms: C_1  and  C_2
REMARK    2  A    between atoms: C_2  and  C_3
REMARK    3  A    between atoms: C_3  and  C_4
REMARK    4  A    between atoms: C_4  and  C_21
REMARK    5  A    between atoms: N_5  and  N_6
REMARK    6  A    between atoms: C_7  and  C_9
REMARK    7  A    between atoms: C_12  and  O_13
REMARK    8  A    between atoms: O_13  and  C_14
REMARK                            x       y       z     vdW  Elec       q    Type
REMARK                         _______ _______ _______ _____ _____    ______ ____
ROOT
ATOM      1  N   UNL     1       2.425   7.783  18.854  0.00  0.00    +0.000 N 
ATOM      2  C   UNL     1       1.691   8.920  18.540  0.00  0.00    +0.000 C 
ATOM      3  O   UNL     1       1.596   9.444  17.437  0.00  0.00    +0.000 OA
ATOM      4  H   UNL     1       2.330   7.373  19.771  0.00  0.00    +0.000 HD
ENDROOT
BRANCH   2   5
ATOM      5  C   UNL     1       0.928   9.471  19.695  0.00  0.00    +0.000 A 
ATOM      6  C   UNL     1       0.096  10.583  19.519  0.00  0.00    +0.000 A 
ATOM      7  C   UNL     1      -0.578  11.145  20.603  0.00  0.00    +0.000 A 
ATOM      8  C   UNL     1      -0.472  10.581  21.874  0.00  0.00    +0.000 A 
ATOM      9  C   UNL     1       0.346   9.457  22.052  0.00  0.00    +0.000 A 
ATOM     10  C   UNL     1       1.039   8.896  20.967  0.00  0.00    +0.000 A 
BRANCH   8  11
ATOM     11  O   UNL     1      -1.114  11.057  22.986  0.00  0.00    +0.000 OA
BRANCH  11  12
ATOM     12  C   UNL     1      -1.944  12.206  22.793  0.00  0.00    +0.000 C 
ATOM     13  C   UNL     1      -3.221  12.133  23.626  0.00  0.00    +0.000 C 
ATOM     14  C   UNL     1      -3.660  13.577  23.778  0.00  0.00    +0.000 C 
ATOM     15  C   UNL     1      -2.382  14.409  23.728  0.00  0.00    +0.000 C 
ATOM     16  C   UNL     1      -1.255  13.463  23.318  0.00  0.00    +0.000 C 
ENDBRANCH  11  12
ENDBRANCH   8  11
ENDBRANCH   2   5
BRANCH   1  18
ATOM     17  C   UNL     1       3.403   5.909  17.942  0.00  0.00    +0.000 C 
ATOM     18  N   UNL     1       3.280   7.210  17.962  0.00  0.00    +0.000 NA
BRANCH  17  19
ATOM     19  C   UNL     1       4.361   5.351  16.984  0.00  0.00    +0.000 A 
ATOM     20  C   UNL     1       4.707   4.020  16.822  0.00  0.00    +0.000 A 
ATOM     21  C   UNL     1       5.712   3.823  15.831  0.00  0.00    +0.000 A 
ATOM     22  C   UNL     1       6.078   5.004  15.231  0.00  0.00    +0.000 A 
ATOM     23  S   UNL     1       5.233   6.335  15.882  0.00  0.00    +0.000 S 
ENDBRANCH  17  19
BRANCH  17  24
ATOM     24  C   UNL     1       2.528   4.953  18.767  0.00  0.00    +0.000 C 
BRANCH  24  26
ATOM     25  C   UNL     1       1.514   2.634  18.342  0.00  0.00    +0.000 C 
ATOM     26  C   UNL     1       1.512   4.111  17.995  0.00  0.00    +0.000 C 
ENDBRANCH  24  26
ENDBRANCH  17  24
ENDBRANCH   1  18
TORSDOF 7
ENDMDL
MODEL 5
REMARK VINA RESULT:      -7.1      3.016     10.065
REMARK  Name = 
REMARK  8 active torsions:
REMARK  status: ('A' for Active; 'I' for Inactive)
REMARK    1  A    between atoms: C_1  and  C_2
REMARK    2  A    between atoms: C_2  and  C_3
REMARK    3  A    between atoms: C_3  and  C_4
REMARK    4  A    between atoms: C_4  and  C_21
REMARK    5  A    between atoms: N_5  and  N_6
REMARK    6  A    between atoms: C_7  and  C_9
REMARK    7  A    between atoms: C_12  and  O_13
REMARK    8  A    between atoms: O_13  and  C_14
REMARK                            x       y       z     vdW  Elec       q    Type
REMARK                         _______ _______ _______ _____ _____    ______ ____
ROOT
ATOM      1  N   UNL     1       2.506   7.673  18.957  0.00  0.00    +0.000 N 
ATOM      2  C   UNL     1       1.731   8.785  18.657  0.00  0.00    +0.000 C 
ATOM      3  O   UNL     1       1.537   9.259  17.544  0.00  0.00    +0.000 OA
ATOM      4  H   UNL     1       2.494   7.302  19.895  0.00  0.00    +0.000 HD
ENDROOT
BRANCH   2   5
ATOM      5  C   UNL     1       1.057   9.378  19.846  0.00  0.00    +0.000 A 
ATOM      6  C   UNL     1       1.173   8.762  21.098  0.00  0.00    +0.000 A 
ATOM      7  C   UNL     1       0.500   9.272  22.207  0.00  0.00    +0.000 A 
ATOM      8  C   UNL     1      -0.265  10.434  22.099  0.00  0.00    +0.000 A 
ATOM      9  C   UNL     1      -0.371  11.065  20.852  0.00  0.00    +0.000 A 
ATOM     10  C   UNL     1       0.293  10.546  19.729  0.00  0.00    +0.000 A 
BRANCH   8  11
ATOM     11  O   UNL     1      -0.941  11.012  23.140  0.00  0.00    +0.000 OA
BRANCH  11  12
ATOM     12  C   UNL     1      -1.776  12.126  22.812  0.00  0.00    +0.000 C 
ATOM     13  C   UNL     1      -3.102  12.088  23.567  0.00  0.00    +0.000 C 
ATOM     14  C   UNL     1      -3.572  13.529  23.584  0.00  0.00    +0.000 C 
ATOM     15  C   UNL     1      -2.308  14.382  23.551  0.00  0.00    +0.000 C 
ATOM     16  C   UNL     1      -1.142  13.432  23.284  0.00  0.00    +0.000 C 
ENDBRANCH  11  12
ENDBRANCH   8  11
ENDBRANCH   2   5
BRANCH   1  18
ATOM     17  C   UNL     1       3.897   5.951  18.321  0.00  0.00    +0.000 C 
ATOM     18  N   UNL     1       3.294   7.072  18.022  0.00  0.00    +0.000 NA
BRANCH  17  19
ATOM     19  C   UNL     1       4.755   5.367  17.288  0.00  0.00    +0.000 A 
ATOM     20  C   UNL     1       4.528   4.208  16.565  0.00  0.00    +0.000 A 
ATOM     21  C   UNL     1       5.591   3.893  15.670  0.00  0.00    +0.000 A 
ATOM     22  C   UNL     1       6.585   4.842  15.702  0.00  0.00    +0.000 A 
ATOM     23  S   UNL     1       6.243   6.082  16.822  0.00  0.00    +0.000 S 
ENDBRANCH  17  19
BRANCH  17  24
ATOM     24  C   UNL     1       3.659   5.172  19.624  0.00  0.00    +0.000 C 
BRANCH  24  26
ATOM     25  C   UNL     1       1.334   4.590  20.542  0.00  0.00    +0.000 C 
ATOM     26  C   UNL     1       2.485   4.193  19.636  0.00  0.00    +0.000 C 
ENDBRANCH  24  26
ENDBRANCH  17  24
ENDBRANCH   1  18
TORSDOF 7
ENDMDL
MODEL 6
REMARK VINA RESULT:      -7.1      5.693      8.009
REMARK  Name = 
REMARK  8 active torsions:
REMARK  status: ('A' for Active; 'I' for Inactive)
REMARK    1  A    between atoms: C_1  and  C_2
REMARK    2  A    between atoms: C_2  and  C_3
REMARK    3  A    between atoms: C_3  and  C_4
REMARK    4  A    between atoms: C_4  and  C_21
REMARK    5  A    between atoms: N_5  and  N_6
REMARK    6  A    between atoms: C_7  and  C_9
REMARK    7  A    between atoms: C_12  and  O_13
REMARK    8  A    between atoms: O_13  and  C_14
REMARK                            x       y       z     vdW  Elec       q    Type
REMARK                         _______ _______ _______ _____ _____    ______ ____
ROOT
ATOM      1  N   UNL     1       7.915   8.681  18.173  0.00  0.00    +0.000 N 
ATOM      2  C   UNL     1       7.680   7.577  17.364  0.00  0.00    +0.000 C 
ATOM      3  O   UNL     1       8.161   7.371  16.256  0.00  0.00    +0.000 OA
ATOM      4  H   UNL     1       7.560   8.685  19.117  0.00  0.00    +0.000 HD
ENDROOT
BRANCH   2   5
ATOM      5  C   UNL     1       6.789   6.560  17.991  0.00  0.00    +0.000 A 
ATOM      6  C   UNL     1       7.280   5.726  19.002  0.00  0.00    +0.000 A 
ATOM      7  C   UNL     1       6.476   4.731  19.556  0.00  0.00    +0.000 A 
ATOM      8  C   UNL     1       5.151   4.580  19.145  0.00  0.00    +0.000 A 
ATOM      9  C   UNL     1       4.649   5.425  18.146  0.00  0.00    +0.000 A 
ATOM     10  C   UNL     1       5.460   6.418  17.574  0.00  0.00    +0.000 A 
BRANCH   8  11
ATOM     11  O   UNL     1       4.288   3.644  19.650  0.00  0.00    +0.000 OA
BRANCH  11  12
ATOM     12  C   UNL     1       2.916   3.779  19.271  0.00  0.00    +0.000 C 
ATOM     13  C   UNL     1       2.354   2.483  18.694  0.00  0.00    +0.000 C 
ATOM     14  C   UNL     1       0.855   2.593  18.900  0.00  0.00    +0.000 C 
ATOM     15  C   UNL     1       0.667   3.459  20.141  0.00  0.00    +0.000 C 
ATOM     16  C   UNL     1       2.040   4.025  20.497  0.00  0.00    +0.000 C 
ENDBRANCH  11  12
ENDBRANCH   8  11
ENDBRANCH   2   5
BRANCH   1  18
ATOM     17  C   UNL     1       9.158  10.574  18.591  0.00  0.00    +0.000 C 
ATOM     18  N   UNL     1       8.603   9.768  17.725  0.00  0.00    +0.000 NA
BRANCH  17  19
ATOM     19  C   UNL     1       9.858  11.742  18.053  0.00  0.00    +0.000 A 
ATOM     20  C   UNL     1      11.167  11.803  17.605  0.00  0.00    +0.000 A 
ATOM     21  C   UNL     1      11.552  13.112  17.190  0.00  0.00    +0.000 A 
ATOM     22  C   UNL     1      10.515  14.007  17.292  0.00  0.00    +0.000 A 
ATOM     23  S   UNL     1       9.104  13.276  17.909  0.00  0.00    +0.000 S 
ENDBRANCH  17  19
BRANCH  17  24
ATOM     24  C   UNL     1       9.217  10.297  20.102  0.00  0.00    +0.000 C 
BRANCH  24  26
ATOM     25  C   UNL     1       8.713  12.096  21.862  0.00  0.00    +0.000 C 
ATOM     26  C   UNL     1       9.754  11.423  20.986  0.00  0.00    +0.000 C 
ENDBRANCH  24  26
ENDBRANCH  17  24
ENDBRANCH   1  18
TORSDOF 7
ENDMDL
MODEL 7
REMARK VINA RESULT:      -7.1      0.933      1.452
REMARK  Name = 
REMARK  8 active torsions:
REMARK  status: ('A' for Active; 'I' for Inactive)
REMARK    1  A    between atoms: C_1  and  C_2
REMARK    2  A    between atoms: C_2  and  C_3
REMARK    3  A    between atoms: C_3  and  C_4
REMARK    4  A    between atoms: C_4  and  C_21
REMARK    5  A    between atoms: N_5  and  N_6
REMARK    6  A    between atoms: C_7  and  C_9
REMARK    7  A    between atoms: C_12  and  O_13
REMARK    8  A    between atoms: O_13  and  C_14
REMARK                            x       y       z     vdW  Elec       q    Type
REMARK                         _______ _______ _______ _____ _____    ______ ____
ROOT
ATOM      1  N   UNL     1       2.435   7.719  19.325  0.00  0.00    +0.000 N 
ATOM      2  C   UNL     1       2.612   6.343  19.282  0.00  0.00    +0.000 C 
ATOM      3  O   UNL     1       1.968   5.506  19.902  0.00  0.00    +0.000 OA
ATOM      4  H   UNL     1       2.944   8.303  18.677  0.00  0.00    +0.000 HD
ENDROOT
BRANCH   2   5
ATOM      5  C   UNL     1       3.671   5.910  18.326  0.00  0.00    +0.000 A 
ATOM      6  C   UNL     1       4.239   4.636  18.439  0.00  0.00    +0.000 A 
ATOM      7  C   UNL     1       5.271   4.240  17.590  0.00  0.00    +0.000 A 
ATOM      8  C   UNL     1       5.724   5.090  16.580  0.00  0.00    +0.000 A 
ATOM      9  C   UNL     1       5.146   6.360  16.451  0.00  0.00    +0.000 A 
ATOM     10  C   UNL     1       4.117   6.770  17.314  0.00  0.00    +0.000 A 
BRANCH   8  11
ATOM     11  O   UNL     1       6.718   4.773  15.693  0.00  0.00    +0.000 OA
BRANCH  11  12
ATOM     12  C   UNL     1       6.380   4.865  14.306  0.00  0.00    +0.000 C 
ATOM     13  C   UNL     1       7.621   4.938  13.421  0.00  0.00    +0.000 C 
ATOM     14  C   UNL     1       7.150   4.447  12.065  0.00  0.00    +0.000 C 
ATOM     15  C   UNL     1       6.011   3.472  12.346  0.00  0.00    +0.000 C 
ATOM     16  C   UNL     1       5.687   3.589  13.834  0.00  0.00    +0.000 C 
ENDBRANCH  11  12
ENDBRANCH   8  11
ENDBRANCH   2   5
BRANCH   1  18
ATOM     17  C   UNL     1       0.986   9.415  19.896  0.00  0.00    +0.000 C 
ATOM     18  N   UNL     1       1.601   8.310  20.225  0.00  0.00    +0.000 NA
BRANCH  17  19
ATOM     19  C   UNL     1       0.126  10.021  20.916  0.00  0.00    +0.000 A 
ATOM     20  C   UNL     1      -0.725  11.103  20.761  0.00  0.00    +0.000 A 
ATOM     21  C   UNL     1      -1.382  11.472  21.971  0.00  0.00    +0.000 A 
ATOM     22  C   UNL     1      -1.047  10.637  23.010  0.00  0.00    +0.000 A 
ATOM     23  S   UNL     1       0.068   9.441  22.529  0.00  0.00    +0.000 S 
ENDBRANCH  17  19
BRANCH  17  24
ATOM     24  C   UNL     1       1.023  10.029  18.488  0.00  0.00    +0.000 C 
BRANCH  24  26
ATOM     25  C   UNL     1       1.873  12.450  18.545  0.00  0.00    +0.000 C 
ATOM     26  C   UNL     1       2.164  11.003  18.192  0.00  0.00    +0.000 C 
ENDBRANCH  24  26
ENDBRANCH  17  24
ENDBRANCH   1  18
TORSDOF 7
ENDMDL
MODEL 8
REMARK VINA RESULT:      -7.1      3.480     10.568
REMARK  Name = 
REMARK  8 active torsions:
REMARK  status: ('A' for Active; 'I' for Inactive)
REMARK    1  A    between atoms: C_1  and  C_2
REMARK    2  A    between atoms: C_2  and  C_3
REMARK    3  A    between atoms: C_3  and  C_4
REMARK    4  A    between atoms: C_4  and  C_21
REMARK    5  A    between atoms: N_5  and  N_6
REMARK    6  A    between atoms: C_7  and  C_9
REMARK    7  A    between atoms: C_12  and  O_13
REMARK    8  A    between atoms: O_13  and  C_14
REMARK                            x       y       z     vdW  Elec       q    Type
REMARK                         _______ _______ _______ _____ _____    ______ ____
ROOT
ATOM      1  N   UNL     1       1.604   8.154  20.103  0.00  0.00    +0.000 N 
ATOM      2  C   UNL     1       1.036   9.320  19.606  0.00  0.00    +0.000 C 
ATOM      3  O   UNL     1       1.008   9.673  18.433  0.00  0.00    +0.000 OA
ATOM      4  H   UNL     1       1.460   7.910  21.071  0.00  0.00    +0.000 HD
ENDROOT
BRANCH   2   5
ATOM      5  C   UNL     1       0.369  10.147  20.650  0.00  0.00    +0.000 A 
ATOM      6  C   UNL     1       0.085  11.495  20.402  0.00  0.00    +0.000 A 
ATOM      7  C   UNL     1      -0.485  12.296  21.390  0.00  0.00    +0.000 A 
ATOM      8  C   UNL     1      -0.828  11.756  22.630  0.00  0.00    +0.000 A 
ATOM      9  C   UNL     1      -0.562  10.402  22.878  0.00  0.00    +0.000 A 
ATOM     10  C   UNL     1       0.026   9.595  21.891  0.00  0.00    +0.000 A 
BRANCH   8  11
ATOM     11  O   UNL     1      -1.408  12.465  23.647  0.00  0.00    +0.000 OA
BRANCH  11  12
ATOM     12  C   UNL     1      -2.443  13.377  23.271  0.00  0.00    +0.000 C 
ATOM     13  C   UNL     1      -3.809  12.699  23.216  0.00  0.00    +0.000 C 
ATOM     14  C   UNL     1      -4.804  13.829  23.397  0.00  0.00    +0.000 C 
ATOM     15  C   UNL     1      -4.092  14.880  24.242  0.00  0.00    +0.000 C 
ATOM     16  C   UNL     1      -2.630  14.451  24.341  0.00  0.00    +0.000 C 
ENDBRANCH  11  12
ENDBRANCH   8  11
ENDBRANCH   2   5
BRANCH   1  18
ATOM     17  C   UNL     1       2.464   6.069  19.638  0.00  0.00    +0.000 C 
ATOM     18  N   UNL     1       2.362   7.333  19.324  0.00  0.00    +0.000 NA
BRANCH  17  19
ATOM     19  C   UNL     1       3.317   5.242  18.782  0.00  0.00    +0.000 A 
ATOM     20  C   UNL     1       2.954   4.593  17.613  0.00  0.00    +0.000 A 
ATOM     21  C   UNL     1       4.016   3.827  17.050  0.00  0.00    +0.000 A 
ATOM     22  C   UNL     1       5.175   3.944  17.780  0.00  0.00    +0.000 A 
ATOM     23  S   UNL     1       4.967   4.946  19.144  0.00  0.00    +0.000 S 
ENDBRANCH  17  19
BRANCH  17  24
ATOM     24  C   UNL     1       1.656   5.399  20.762  0.00  0.00    +0.000 C 
BRANCH  24  26
ATOM     25  C   UNL     1       1.810   2.929  21.442  0.00  0.00    +0.000 C 
ATOM     26  C   UNL     1       1.197   3.962  20.514  0.00  0.00    +0.000 C 
ENDBRANCH  24  26
ENDBRANCH  17  24
ENDBRANCH   1  18
TORSDOF 7
ENDMDL
MODEL 9
REMARK VINA RESULT:      -7.1      3.141     10.113
REMARK  Name = 
REMARK  8 active torsions:
REMARK  status: ('A' for Active; 'I' for Inactive)
REMARK    1  A    between atoms: C_1  and  C_2
REMARK    2  A    between atoms: C_2  and  C_3
REMARK    3  A    between atoms: C_3  and  C_4
REMARK    4  A    between atoms: C_4  and  C_21
REMARK    5  A    between atoms: N_5  and  N_6
REMARK    6  A    between atoms: C_7  and  C_9
REMARK    7  A    between atoms: C_12  and  O_13
REMARK    8  A    between atoms: O_13  and  C_14
REMARK                            x       y       z     vdW  Elec       q    Type
REMARK                         _______ _______ _______ _____ _____    ______ ____
ROOT
ATOM      1  N   UNL     1       2.197   7.754  18.741  0.00  0.00    +0.000 N 
ATOM      2  C   UNL     1       1.660   9.016  18.521  0.00  0.00    +0.000 C 
ATOM      3  O   UNL     1       1.708   9.655  17.477  0.00  0.00    +0.000 OA
ATOM      4  H   UNL     1       1.989   7.274  19.604  0.00  0.00    +0.000 HD
ENDROOT
BRANCH   2   5
ATOM      5  C   UNL     1       0.923   9.561  19.695  0.00  0.00    +0.000 A 
ATOM      6  C   UNL     1       0.109  10.691  19.550  0.00  0.00    +0.000 A 
ATOM      7  C   UNL     1      -0.539  11.246  20.652  0.00  0.00    +0.000 A 
ATOM      8  C   UNL     1      -0.427  10.657  21.912  0.00  0.00    +0.000 A 
ATOM      9  C   UNL     1       0.372   9.515  22.059  0.00  0.00    +0.000 A 
ATOM     10  C   UNL     1       1.040   8.961  20.956  0.00  0.00    +0.000 A 
BRANCH   8  11
ATOM     11  O   UNL     1      -1.045  11.126  23.040  0.00  0.00    +0.000 OA
BRANCH  11  12
ATOM     12  C   UNL     1      -1.922  12.242  22.864  0.00  0.00    +0.000 C 
ATOM     13  C   UNL     1      -3.190  12.109  23.702  0.00  0.00    +0.000 C 
ATOM     14  C   UNL     1      -3.686  13.532  23.872  0.00  0.00    +0.000 C 
ATOM     15  C   UNL     1      -2.443  14.416  23.825  0.00  0.00    +0.000 C 
ATOM     16  C   UNL     1      -1.281  13.520  23.400  0.00  0.00    +0.000 C 
ENDBRANCH  11  12
ENDBRANCH   8  11
ENDBRANCH   2   5
BRANCH   1  18
ATOM     17  C   UNL     1       3.727   6.121  18.199  0.00  0.00    +0.000 C 
ATOM     18  N   UNL     1       3.007   7.147  17.829  0.00  0.00    +0.000 NA
BRANCH  17  19
ATOM     19  C   UNL     1       4.602   5.529  17.184  0.00  0.00    +0.000 A 
ATOM     20  C   UNL     1       5.159   6.161  16.084  0.00  0.00    +0.000 A 
ATOM     21  C   UNL     1       5.923   5.280  15.265  0.00  0.00    +0.000 A 
ATOM     22  C   UNL     1       5.965   4.007  15.781  0.00  0.00    +0.000 A 
ATOM     23  S   UNL     1       5.067   3.879  17.225  0.00  0.00    +0.000 S 
ENDBRANCH  17  19
BRANCH  17  24
ATOM     24  C   UNL     1       3.614   5.447  19.575  0.00  0.00    +0.000 C 
BRANCH  24  26
ATOM     25  C   UNL     1       1.344   4.818  20.594  0.00  0.00    +0.000 C 
ATOM     26  C   UNL     1       2.521   4.391  19.735  0.00  0.00    +0.000 C 
ENDBRANCH  24  26
ENDBRANCH  17  24
ENDBRANCH   1  18
TORSDOF 7
ENDMDL
