MODEL 1
REMARK VINA RESULT:      -7.1      0.000      0.000
REMARK  Name = 
REMARK  6 active torsions:
REMARK  status: ('A' for Active; 'I' for Inactive)
REMARK    1  A    between atoms: C_1  and  N_2
REMARK    2  A    between atoms: C_3  and  C_4
REMARK    3  A    between atoms: C_11  and  C_12
REMARK    4  A    between atoms: N_21  and  C_22
REMARK    5  A    between atoms: C_22  and  C_23
REMARK    6  A    between atoms: C_23  and  O_25
REMARK                            x       y       z     vdW  Elec       q    Type
REMARK                         _______ _______ _______ _____ _____    ______ ____
ROOT
ATOM      1  C   UNL     1      -5.942  12.360  19.062  0.00  0.00    +0.000 C 
ATOM      2  N   UNL     1      -4.505  12.225  19.223  0.00  0.00    +0.000 N 
ATOM      3  C   UNL     1      -3.690  12.781  20.203  0.00  0.00    +0.000 A 
ATOM      4  C   UNL     1      -2.380  12.321  19.943  0.00  0.00    +0.000 A 
ATOM      5  C   UNL     1      -2.447  11.480  18.772  0.00  0.00    +0.000 A 
ATOM      6  C   UNL     1      -1.501  10.725  18.039  0.00  0.00    +0.000 A 
ATOM      7  C   UNL     1      -1.899   9.993  16.913  0.00  0.00    +0.000 A 
ATOM      8  C   UNL     1      -3.224  10.000  16.502  0.00  0.00    +0.000 A 
ATOM      9  C   UNL     1      -4.181  10.725  17.211  0.00  0.00    +0.000 A 
ATOM     10  C   UNL     1      -3.769  11.452  18.344  0.00  0.00    +0.000 A 
ENDROOT
BRANCH   4  11
ATOM     11  C   UNL     1      -1.150  12.633  20.750  0.00  0.00    +0.000 C 
ATOM     12  C   UNL     1      -0.781  14.074  20.516  0.00  0.00    +0.000 A 
ATOM     13  C   UNL     1      -0.579  14.782  19.340  0.00  0.00    +0.000 A 
ATOM     14  C   UNL     1      -0.247  16.139  19.430  0.00  0.00    +0.000 A 
ATOM     15  C   UNL     1      -0.095  16.771  20.676  0.00  0.00    +0.000 A 
ATOM     16  C   UNL     1      -0.282  16.057  21.860  0.00  0.00    +0.000 A 
ATOM     17  C   UNL     1      -0.629  14.726  21.742  0.00  0.00    +0.000 A 
ATOM     18  C   UNL     1      -0.932  13.768  22.808  0.00  0.00    +0.000 C 
ATOM     19  O   UNL     1      -0.790  13.975  23.998  0.00  0.00    +0.000 OA
ATOM     20  N   UNL     1      -1.329  12.594  22.200  0.00  0.00    +0.000 N 
BRANCH  20  21
ATOM     21  C   UNL     1      -1.662  11.376  22.935  0.00  0.00    +0.000 C 
BRANCH  21  22
ATOM     22  C   UNL     1      -0.544  10.340  22.957  0.00  0.00    +0.000 C 
ATOM     23  O   UNL     1       0.610  10.579  22.622  0.00  0.00    +0.000 OA
BRANCH  22  24
ATOM     24  O   UNL     1      -0.947   9.089  23.285  0.00  0.00    +0.000 OA
ATOM     25  H   UNL     1      -0.952   8.964  24.255  0.00  0.00    +0.000 HD
ENDBRANCH  22  24
ENDBRANCH  21  22
ENDBRANCH  20  21
ENDBRANCH   4  11
BRANCH   3  26
ATOM     26  C   UNL     1      -4.183  13.671  21.286  0.00  0.00    +0.000 A 
ATOM     27  C   UNL     1      -4.156  15.071  21.153  0.00  0.00    +0.000 A 
ATOM     28  C   UNL     1      -4.660  15.906  22.158  0.00  0.00    +0.000 A 
ATOM     29  C   UNL     1      -5.138  15.351  23.335  0.00  0.00    +0.000 A 
ATOM     30  F   UNL     1      -5.589  16.149  24.311  0.00  0.00    +0.000 F 
ATOM     31  C   UNL     1      -5.147  13.976  23.513  0.00  0.00    +0.000 A 
ATOM     32  C   UNL     1      -4.706  13.142  22.478  0.00  0.00    +0.000 A 
ENDBRANCH   3  26
TORSDOF 5
ENDMDL
MODEL 2
REMARK VINA RESULT:      -7.0      1.943      4.668
REMARK  Name = 
REMARK  6 active torsions:
REMARK  status: ('A' for Active; 'I' for Inactive)
REMARK    1  A    between atoms: C_1  and  N_2
REMARK    2  A    between atoms: C_3  and  C_4
REMARK    3  A    between atoms: C_11  and  C_12
REMARK    4  A    between atoms: N_21  and  C_22
REMARK    5  A    between atoms: C_22  and  C_23
REMARK    6  A    between atoms: C_23  and  O_25
REMARK                            x       y       z     vdW  Elec       q    Type
REMARK                         _______ _______ _______ _____ _____    ______ ____
ROOT
ATOM      1  C   UNL     1      -2.181  16.376  21.762  0.00  0.00    +0.000 C 
ATOM      2  N   UNL     1      -1.638  15.170  21.163  0.00  0.00    +0.000 N 
ATOM      3  C   UNL     1      -2.076  13.859  21.313  0.00  0.00    +0.000 A 
ATOM      4  C   UNL     1      -1.243  13.062  20.499  0.00  0.00    +0.000 A 
ATOM      5  C   UNL     1      -0.290  13.945  19.868  0.00  0.00    +0.000 A 
ATOM      6  C   UNL     1       0.769  13.766  18.947  0.00  0.00    +0.000 A 
ATOM      7  C   UNL     1       1.527  14.862  18.519  0.00  0.00    +0.000 A 
ATOM      8  C   UNL     1       1.251  16.137  18.991  0.00  0.00    +0.000 A 
ATOM      9  C   UNL     1       0.206  16.346  19.891  0.00  0.00    +0.000 A 
ATOM     10  C   UNL     1      -0.553  15.237  20.309  0.00  0.00    +0.000 A 
ENDROOT
BRANCH   4  11
ATOM     11  C   UNL     1      -1.342  11.573  20.307  0.00  0.00    +0.000 C 
ATOM     12  C   UNL     1      -2.076  11.309  19.019  0.00  0.00    +0.000 A 
ATOM     13  C   UNL     1      -3.300  11.771  18.559  0.00  0.00    +0.000 A 
ATOM     14  C   UNL     1      -3.735  11.356  17.295  0.00  0.00    +0.000 A 
ATOM     15  C   UNL     1      -2.969  10.472  16.514  0.00  0.00    +0.000 A 
ATOM     16  C   UNL     1      -1.745   9.992  16.983  0.00  0.00    +0.000 A 
ATOM     17  C   UNL     1      -1.331  10.434  18.224  0.00  0.00    +0.000 A 
ATOM     18  C   UNL     1      -0.081  10.134  18.925  0.00  0.00    +0.000 C 
ATOM     19  O   UNL     1       0.747   9.320  18.564  0.00  0.00    +0.000 OA
ATOM     20  N   UNL     1      -0.071  10.889  20.081  0.00  0.00    +0.000 N 
BRANCH  20  21
ATOM     21  C   UNL     1       0.993  10.821  21.080  0.00  0.00    +0.000 C 
BRANCH  21  22
ATOM     22  C   UNL     1       0.835   9.678  22.077  0.00  0.00    +0.000 C 
ATOM     23  O   UNL     1       1.123   8.514  21.826  0.00  0.00    +0.000 OA
BRANCH  22  24
ATOM     24  O   UNL     1       0.252  10.033  23.247  0.00  0.00    +0.000 OA
ATOM     25  H   UNL     1      -0.595   9.562  23.375  0.00  0.00    +0.000 HD
ENDBRANCH  22  24
ENDBRANCH  21  22
ENDBRANCH  20  21
ENDBRANCH   4  11
BRANCH   3  26
ATOM     26  C   UNL     1      -3.218  13.458  22.176  0.00  0.00    +0.000 A 
ATOM     27  C   UNL     1      -3.024  13.077  23.516  0.00  0.00    +0.000 A 
ATOM     28  C   UNL     1      -4.107  12.741  24.339  0.00  0.00    +0.000 A 
ATOM     29  C   UNL     1      -5.389  12.721  23.811  0.00  0.00    +0.000 A 
ATOM     30  F   UNL     1      -6.421  12.367  24.588  0.00  0.00    +0.000 F 
ATOM     31  C   UNL     1      -5.611  13.058  22.486  0.00  0.00    +0.000 A 
ATOM     32  C   UNL     1      -4.535  13.460  21.685  0.00  0.00    +0.000 A 
ENDBRANCH   3  26
TORSDOF 5
ENDMDL
MODEL 3
REMARK VINA RESULT:      -7.0      2.005      4.629
REMARK  Name = 
REMARK  6 active torsions:
REMARK  status: ('A' for Active; 'I' for Inactive)
REMARK    1  A    between atoms: C_1  and  N_2
REMARK    2  A    between atoms: C_3  and  C_4
REMARK    3  A    between atoms: C_11  and  C_12
REMARK    4  A    between atoms: N_21  and  C_22
REMARK    5  A    between atoms: C_22  and  C_23
REMARK    6  A    between atoms: C_23  and  O_25
REMARK                            x       y       z     vdW  Elec       q    Type
REMARK                         _______ _______ _______ _____ _____    ______ ____
ROOT
ATOM      1  C   UNL     1      -2.183  16.371  21.700  0.00  0.00    +0.000 C 
ATOM      2  N   UNL     1      -1.634  15.146  21.145  0.00  0.00    +0.000 N 
ATOM      3  C   UNL     1      -2.093  13.843  21.308  0.00  0.00    +0.000 A 
ATOM      4  C   UNL     1      -1.243  13.019  20.539  0.00  0.00    +0.000 A 
ATOM      5  C   UNL     1      -0.261  13.878  19.920  0.00  0.00    +0.000 A 
ATOM      6  C   UNL     1       0.825  13.667  19.038  0.00  0.00    +0.000 A 
ATOM      7  C   UNL     1       1.610  14.746  18.611  0.00  0.00    +0.000 A 
ATOM      8  C   UNL     1       1.333  16.034  19.047  0.00  0.00    +0.000 A 
ATOM      9  C   UNL     1       0.263  16.274  19.908  0.00  0.00    +0.000 A 
ATOM     10  C   UNL     1      -0.522  15.182  20.325  0.00  0.00    +0.000 A 
ENDROOT
BRANCH   4  11
ATOM     11  C   UNL     1      -1.354  11.529  20.376  0.00  0.00    +0.000 C 
ATOM     12  C   UNL     1      -2.013  11.244  19.053  0.00  0.00    +0.000 A 
ATOM     13  C   UNL     1      -3.200  11.712  18.508  0.00  0.00    +0.000 A 
ATOM     14  C   UNL     1      -3.564  11.272  17.230  0.00  0.00    +0.000 A 
ATOM     15  C   UNL     1      -2.766  10.359  16.518  0.00  0.00    +0.000 A 
ATOM     16  C   UNL     1      -1.581   9.874  17.072  0.00  0.00    +0.000 A 
ATOM     17  C   UNL     1      -1.236  10.340  18.325  0.00  0.00    +0.000 A 
ATOM     18  C   UNL     1      -0.034  10.039  19.106  0.00  0.00    +0.000 C 
ATOM     19  O   UNL     1       0.801   9.205  18.815  0.00  0.00    +0.000 OA
ATOM     20  N   UNL     1      -0.082  10.821  20.243  0.00  0.00    +0.000 N 
BRANCH  20  21
ATOM     21  C   UNL     1       0.918  10.762  21.307  0.00  0.00    +0.000 C 
BRANCH  21  22
ATOM     22  C   UNL     1       0.835   9.507  22.168  0.00  0.00    +0.000 C 
ATOM     23  O   UNL     1       0.065   9.382  23.112  0.00  0.00    +0.000 OA
BRANCH  22  24
ATOM     24  O   UNL     1       1.758   8.562  21.870  0.00  0.00    +0.000 OA
ATOM     25  H   UNL     1       2.110   8.144  22.681  0.00  0.00    +0.000 HD
ENDBRANCH  22  24
ENDBRANCH  21  22
ENDBRANCH  20  21
ENDBRANCH   4  11
BRANCH   3  26
ATOM     26  C   UNL     1      -3.267  13.475  22.143  0.00  0.00    +0.000 A 
ATOM     27  C   UNL     1      -4.562  13.413  21.598  0.00  0.00    +0.000 A 
ATOM     28  C   UNL     1      -5.659  13.024  22.377  0.00  0.00    +0.000 A 
ATOM     29  C   UNL     1      -5.482  12.755  23.726  0.00  0.00    +0.000 A 
ATOM     30  F   UNL     1      -6.535  12.417  24.480  0.00  0.00    +0.000 F 
ATOM     31  C   UNL     1      -4.224  12.840  24.302  0.00  0.00    +0.000 A 
ATOM     32  C   UNL     1      -3.119  13.162  23.505  0.00  0.00    +0.000 A 
ENDBRANCH   3  26
TORSDOF 5
ENDMDL
MODEL 4
REMARK VINA RESULT:      -6.9      2.502      4.286
REMARK  Name = 
REMARK  6 active torsions:
REMARK  status: ('A' for Active; 'I' for Inactive)
REMARK    1  A    between atoms: C_1  and  N_2
REMARK    2  A    between atoms: C_3  and  C_4
REMARK    3  A    between atoms: C_11  and  C_12
REMARK    4  A    between atoms: N_21  and  C_22
REMARK    5  A    between atoms: C_22  and  C_23
REMARK    6  A    between atoms: C_23  and  O_25
REMARK                            x       y       z     vdW  Elec       q    Type
REMARK                         _______ _______ _______ _____ _____    ______ ____
ROOT
ATOM      1  C   UNL     1      -5.714  12.649  20.055  0.00  0.00    +0.000 C 
ATOM      2  N   UNL     1      -4.328  12.383  19.714  0.00  0.00    +0.000 N 
ATOM      3  C   UNL     1      -3.190  12.622  20.477  0.00  0.00    +0.000 A 
ATOM      4  C   UNL     1      -2.093  12.156  19.719  0.00  0.00    +0.000 A 
ATOM      5  C   UNL     1      -2.620  11.640  18.478  0.00  0.00    +0.000 A 
ATOM      6  C   UNL     1      -2.049  11.032  17.336  0.00  0.00    +0.000 A 
ATOM      7  C   UNL     1      -2.860  10.633  16.266  0.00  0.00    +0.000 A 
ATOM      8  C   UNL     1      -4.233  10.829  16.312  0.00  0.00    +0.000 A 
ATOM      9  C   UNL     1      -4.826  11.417  17.430  0.00  0.00    +0.000 A 
ATOM     10  C   UNL     1      -4.000  11.808  18.500  0.00  0.00    +0.000 A 
ENDROOT
BRANCH   4  11
ATOM     11  C   UNL     1      -0.649  12.174  20.137  0.00  0.00    +0.000 C 
ATOM     12  C   UNL     1      -0.265  10.786  20.576  0.00  0.00    +0.000 A 
ATOM     13  C   UNL     1      -0.851   9.928  21.495  0.00  0.00    +0.000 A 
ATOM     14  C   UNL     1      -0.269   8.671  21.697  0.00  0.00    +0.000 A 
ATOM     15  C   UNL     1       0.896   8.288  21.008  0.00  0.00    +0.000 A 
ATOM     16  C   UNL     1       1.497   9.156  20.096  0.00  0.00    +0.000 A 
ATOM     17  C   UNL     1       0.890  10.381  19.902  0.00  0.00    +0.000 A 
ATOM     18  C   UNL     1       1.275  11.448  18.976  0.00  0.00    +0.000 C 
ATOM     19  O   UNL     1       2.295  11.470  18.315  0.00  0.00    +0.000 OA
ATOM     20  N   UNL     1       0.307  12.430  19.061  0.00  0.00    +0.000 N 
BRANCH  20  21
ATOM     21  C   UNL     1       0.369  13.691  18.325  0.00  0.00    +0.000 C 
BRANCH  21  22
ATOM     22  C   UNL     1       1.421  14.662  18.848  0.00  0.00    +0.000 C 
ATOM     23  O   UNL     1       1.202  15.498  19.715  0.00  0.00    +0.000 OA
BRANCH  22  24
ATOM     24  O   UNL     1       2.609  14.599  18.201  0.00  0.00    +0.000 OA
ATOM     25  H   UNL     1       3.347  14.478  18.831  0.00  0.00    +0.000 HD
ENDBRANCH  22  24
ENDBRANCH  21  22
ENDBRANCH  20  21
ENDBRANCH   4  11
BRANCH   3  26
ATOM     26  C   UNL     1      -3.211  13.244  21.827  0.00  0.00    +0.000 A 
ATOM     27  C   UNL     1      -3.437  12.476  22.984  0.00  0.00    +0.000 A 
ATOM     28  C   UNL     1      -3.414  13.058  24.257  0.00  0.00    +0.000 A 
ATOM     29  C   UNL     1      -3.228  14.426  24.383  0.00  0.00    +0.000 A 
ATOM     30  F   UNL     1      -3.240  14.989  25.598  0.00  0.00    +0.000 F 
ATOM     31  C   UNL     1      -3.036  15.217  23.262  0.00  0.00    +0.000 A 
ATOM     32  C   UNL     1      -2.991  14.622  21.995  0.00  0.00    +0.000 A 
ENDBRANCH   3  26
TORSDOF 5
ENDMDL
MODEL 5
REMARK VINA RESULT:      -6.9      1.761      4.508
REMARK  Name = 
REMARK  6 active torsions:
REMARK  status: ('A' for Active; 'I' for Inactive)
REMARK    1  A    between atoms: C_1  and  N_2
REMARK    2  A    between atoms: C_3  and  C_4
REMARK    3  A    between atoms: C_11  and  C_12
REMARK    4  A    between atoms: N_21  and  C_22
REMARK    5  A    between atoms: C_22  and  C_23
REMARK    6  A    between atoms: C_23  and  O_25
REMARK                            x       y       z     vdW  Elec       q    Type
REMARK                         _______ _______ _______ _____ _____    ______ ____
ROOT
ATOM      1  C   UNL     1      -3.180  16.467  21.319  0.00  0.00    +0.000 C 
ATOM      2  N   UNL     1      -2.505  15.268  20.856  0.00  0.00    +0.000 N 
ATOM      3  C   UNL     1      -2.896  13.942  21.013  0.00  0.00    +0.000 A 
ATOM      4  C   UNL     1      -1.925  13.157  20.353  0.00  0.00    +0.000 A 
ATOM      5  C   UNL     1      -0.943  14.063  19.807  0.00  0.00    +0.000 A 
ATOM      6  C   UNL     1       0.235  13.902  19.039  0.00  0.00    +0.000 A 
ATOM      7  C   UNL     1       0.990  15.019  18.658  0.00  0.00    +0.000 A 
ATOM      8  C   UNL     1       0.592  16.296  19.027  0.00  0.00    +0.000 A 
ATOM      9  C   UNL     1      -0.570  16.487  19.774  0.00  0.00    +0.000 A 
ATOM     10  C   UNL     1      -1.322  15.357  20.146  0.00  0.00    +0.000 A 
ENDROOT
BRANCH   4  11
ATOM     11  C   UNL     1      -1.927  11.659  20.225  0.00  0.00    +0.000 C 
ATOM     12  C   UNL     1      -2.388  11.302  18.836  0.00  0.00    +0.000 A 
ATOM     13  C   UNL     1      -3.518  11.684  18.127  0.00  0.00    +0.000 A 
ATOM     14  C   UNL     1      -3.683  11.192  16.827  0.00  0.00    +0.000 A 
ATOM     15  C   UNL     1      -2.747  10.313  16.254  0.00  0.00    +0.000 A 
ATOM     16  C   UNL     1      -1.619   9.915  16.973  0.00  0.00    +0.000 A 
ATOM     17  C   UNL     1      -1.470  10.431  18.245  0.00  0.00    +0.000 A 
ATOM     18  C   UNL     1      -0.367  10.224  19.186  0.00  0.00    +0.000 C 
ATOM     19  O   UNL     1       0.547   9.436  19.033  0.00  0.00    +0.000 OA
ATOM     20  N   UNL     1      -0.610  11.028  20.281  0.00  0.00    +0.000 N 
BRANCH  20  21
ATOM     21  C   UNL     1       0.243  11.056  21.468  0.00  0.00    +0.000 C 
BRANCH  21  22
ATOM     22  C   UNL     1      -0.406  10.463  22.712  0.00  0.00    +0.000 C 
ATOM     23  O   UNL     1      -0.386   9.270  22.985  0.00  0.00    +0.000 OA
BRANCH  22  24
ATOM     24  O   UNL     1      -1.104  11.354  23.457  0.00  0.00    +0.000 OA
ATOM     25  H   UNL     1      -1.816  10.911  23.961  0.00  0.00    +0.000 HD
ENDBRANCH  22  24
ENDBRANCH  21  22
ENDBRANCH  20  21
ENDBRANCH   4  11
BRANCH   3  26
ATOM     26  C   UNL     1      -4.120  13.518  21.741  0.00  0.00    +0.000 A 
ATOM     27  C   UNL     1      -5.307  13.203  21.056  0.00  0.00    +0.000 A 
ATOM     28  C   UNL     1      -6.446  12.762  21.743  0.00  0.00    +0.000 A 
ATOM     29  C   UNL     1      -6.429  12.695  23.128  0.00  0.00    +0.000 A 
ATOM     30  F   UNL     1      -7.528  12.307  23.787  0.00  0.00    +0.000 F 
ATOM     31  C   UNL     1      -5.286  13.031  23.836  0.00  0.00    +0.000 A 
ATOM     32  C   UNL     1      -4.128  13.405  23.142  0.00  0.00    +0.000 A 
ENDBRANCH   3  26
TORSDOF 5
ENDMDL
MODEL 6
REMARK VINA RESULT:      -6.7      3.840      6.758
REMARK  Name = 
REMARK  6 active torsions:
REMARK  status: ('A' for Active; 'I' for Inactive)
REMARK    1  A    between atoms: C_1  and  N_2
REMARK    2  A    between atoms: C_3  and  C_4
REMARK    3  A    between atoms: C_11  and  C_12
REMARK    4  A    between atoms: N_21  and  C_22
REMARK    5  A    between atoms: C_22  and  C_23
REMARK    6  A    between atoms: C_23  and  O_25
REMARK                            x       y       z     vdW  Elec       q    Type
REMARK                         _______ _______ _______ _____ _____    ______ ____
ROOT
ATOM      1  C   UNL     1       3.075  13.066  18.401  0.00  0.00    +0.000 C 
ATOM      2  N   UNL     1       1.678  13.096  18.796  0.00  0.00    +0.000 N 
ATOM      3  C   UNL     1       0.847  12.027  19.112  0.00  0.00    +0.000 A 
ATOM      4  C   UNL     1      -0.403  12.581  19.466  0.00  0.00    +0.000 A 
ATOM      5  C   UNL     1      -0.286  14.014  19.341  0.00  0.00    +0.000 A 
ATOM      6  C   UNL     1      -1.160  15.103  19.566  0.00  0.00    +0.000 A 
ATOM      7  C   UNL     1      -0.727  16.416  19.343  0.00  0.00    +0.000 A 
ATOM      8  C   UNL     1       0.564  16.666  18.899  0.00  0.00    +0.000 A 
ATOM      9  C   UNL     1       1.452  15.614  18.679  0.00  0.00    +0.000 A 
ATOM     10  C   UNL     1       1.006  14.299  18.912  0.00  0.00    +0.000 A 
ENDROOT
BRANCH   4  11
ATOM     11  C   UNL     1      -1.621  11.820  19.912  0.00  0.00    +0.000 C 
ATOM     12  C   UNL     1      -2.035  12.338  21.264  0.00  0.00    +0.000 A 
ATOM     13  C   UNL     1      -1.312  12.496  22.437  0.00  0.00    +0.000 A 
ATOM     14  C   UNL     1      -1.969  13.018  23.558  0.00  0.00    +0.000 A 
ATOM     15  C   UNL     1      -3.334  13.352  23.513  0.00  0.00    +0.000 A 
ATOM     16  C   UNL     1      -4.066  13.178  22.338  0.00  0.00    +0.000 A 
ATOM     17  C   UNL     1      -3.389  12.681  21.243  0.00  0.00    +0.000 A 
ATOM     18  C   UNL     1      -3.896  12.452  19.888  0.00  0.00    +0.000 C 
ATOM     19  O   UNL     1      -5.060  12.544  19.550  0.00  0.00    +0.000 OA
ATOM     20  N   UNL     1      -2.824  12.051  19.115  0.00  0.00    +0.000 N 
BRANCH  20  21
ATOM     21  C   UNL     1      -2.941  11.671  17.709  0.00  0.00    +0.000 C 
BRANCH  21  22
ATOM     22  C   UNL     1      -2.675  10.194  17.442  0.00  0.00    +0.000 C 
ATOM     23  O   UNL     1      -3.429   9.295  17.791  0.00  0.00    +0.000 OA
BRANCH  22  24
ATOM     24  O   UNL     1      -1.475   9.936  16.868  0.00  0.00    +0.000 OA
ATOM     25  H   UNL     1      -0.843  10.664  17.031  0.00  0.00    +0.000 HD
ENDBRANCH  22  24
ENDBRANCH  21  22
ENDBRANCH  20  21
ENDBRANCH   4  11
BRANCH   3  26
ATOM     26  C   UNL     1       1.273  10.603  19.070  0.00  0.00    +0.000 A 
ATOM     27  C   UNL     1       1.168   9.774  20.201  0.00  0.00    +0.000 A 
ATOM     28  C   UNL     1       1.531   8.422  20.146  0.00  0.00    +0.000 A 
ATOM     29  C   UNL     1       2.064   7.902  18.976  0.00  0.00    +0.000 A 
ATOM     30  F   UNL     1       2.443   6.619  18.932  0.00  0.00    +0.000 F 
ATOM     31  C   UNL     1       2.213   8.701  17.853  0.00  0.00    +0.000 A 
ATOM     32  C   UNL     1       1.785  10.033  17.892  0.00  0.00    +0.000 A 
ENDBRANCH   3  26
TORSDOF 5
ENDMDL
MODEL 7
REMARK VINA RESULT:      -6.6      1.961      3.768
REMARK  Name = 
REMARK  6 active torsions:
REMARK  status: ('A' for Active; 'I' for Inactive)
REMARK    1  A    between atoms: C_1  and  N_2
REMARK    2  A    between atoms: C_3  and  C_4
REMARK    3  A    between atoms: C_11  and  C_12
REMARK    4  A    between atoms: N_21  and  C_22
REMARK    5  A    between atoms: C_22  and  C_23
REMARK    6  A    between atoms: C_23  and  O_25
REMARK                            x       y       z     vdW  Elec       q    Type
REMARK                         _______ _______ _______ _____ _____    ______ ____
ROOT
ATOM      1  C   UNL     1      -6.049  12.744  20.000  0.00  0.00    +0.000 C 
ATOM      2  N   UNL     1      -4.617  12.561  19.847  0.00  0.00    +0.000 N 
ATOM      3  C   UNL     1      -3.593  13.051  20.651  0.00  0.00    +0.000 A 
ATOM      4  C   UNL     1      -2.385  12.565  20.104  0.00  0.00    +0.000 A 
ATOM      5  C   UNL     1      -2.728  11.777  18.944  0.00  0.00    +0.000 A 
ATOM      6  C   UNL     1      -1.987  11.027  18.001  0.00  0.00    +0.000 A 
ATOM      7  C   UNL     1      -2.641  10.356  16.959  0.00  0.00    +0.000 A 
ATOM      8  C   UNL     1      -4.022  10.418  16.839  0.00  0.00    +0.000 A 
ATOM      9  C   UNL     1      -4.780  11.140  17.760  0.00  0.00    +0.000 A 
ATOM     10  C   UNL     1      -4.112  11.805  18.805  0.00  0.00    +0.000 A 
ENDROOT
BRANCH   4  11
ATOM     11  C   UNL     1      -1.002  12.806  20.641  0.00  0.00    +0.000 C 
ATOM     12  C   UNL     1      -0.572  11.584  21.409  0.00  0.00    +0.000 A 
ATOM     13  C   UNL     1      -1.195  10.888  22.434  0.00  0.00    +0.000 A 
ATOM     14  C   UNL     1      -0.551   9.762  22.961  0.00  0.00    +0.000 A 
ATOM     15  C   UNL     1       0.708   9.354  22.486  0.00  0.00    +0.000 A 
ATOM     16  C   UNL     1       1.344  10.063  21.467  0.00  0.00    +0.000 A 
ATOM     17  C   UNL     1       0.677  11.157  20.952  0.00  0.00    +0.000 A 
ATOM     18  C   UNL     1       1.087  12.036  19.855  0.00  0.00    +0.000 C 
ATOM     19  O   UNL     1       2.171  12.013  19.304  0.00  0.00    +0.000 OA
ATOM     20  N   UNL     1       0.048  12.918  19.631  0.00  0.00    +0.000 N 
BRANCH  20  21
ATOM     21  C   UNL     1       0.102  13.996  18.646  0.00  0.00    +0.000 C 
BRANCH  21  22
ATOM     22  C   UNL     1       0.001  15.392  19.248  0.00  0.00    +0.000 C 
ATOM     23  O   UNL     1       0.856  15.882  19.974  0.00  0.00    +0.000 OA
BRANCH  22  24
ATOM     24  O   UNL     1      -1.171  16.025  18.999  0.00  0.00    +0.000 OA
ATOM     25  H   UNL     1      -1.234  16.860  19.503  0.00  0.00    +0.000 HD
ENDBRANCH  22  24
ENDBRANCH  21  22
ENDBRANCH  20  21
ENDBRANCH   4  11
BRANCH   3  26
ATOM     26  C   UNL     1      -3.813  13.908  21.845  0.00  0.00    +0.000 A 
ATOM     27  C   UNL     1      -3.893  15.308  21.737  0.00  0.00    +0.000 A 
ATOM     28  C   UNL     1      -4.142  16.110  22.858  0.00  0.00    +0.000 A 
ATOM     29  C   UNL     1      -4.251  15.523  24.111  0.00  0.00    +0.000 A 
ATOM     30  F   UNL     1      -4.456  16.291  25.188  0.00  0.00    +0.000 F 
ATOM     31  C   UNL     1      -4.143  14.149  24.257  0.00  0.00    +0.000 A 
ATOM     32  C   UNL     1      -3.963  13.345  23.125  0.00  0.00    +0.000 A 
ENDBRANCH   3  26
TORSDOF 5
ENDMDL
MODEL 8
REMARK VINA RESULT:      -6.6      3.793      6.646
REMARK  Name = 
REMARK  6 active torsions:
REMARK  status: ('A' for Active; 'I' for Inactive)
REMARK    1  A    between atoms: C_1  and  N_2
REMARK    2  A    between atoms: C_3  and  C_4
REMARK    3  A    between atoms: C_11  and  C_12
REMARK    4  A    between atoms: N_21  and  C_22
REMARK    5  A    between atoms: C_22  and  C_23
REMARK    6  A    between atoms: C_23  and  O_25
REMARK                            x       y       z     vdW  Elec       q    Type
REMARK                         _______ _______ _______ _____ _____    ______ ____
ROOT
ATOM      1  C   UNL     1       2.996  13.010  18.513  0.00  0.00    +0.000 C 
ATOM      2  N   UNL     1       1.594  13.054  18.890  0.00  0.00    +0.000 N 
ATOM      3  C   UNL     1       0.754  11.995  19.216  0.00  0.00    +0.000 A 
ATOM      4  C   UNL     1      -0.497  12.562  19.544  0.00  0.00    +0.000 A 
ATOM      5  C   UNL     1      -0.372  13.992  19.393  0.00  0.00    +0.000 A 
ATOM      6  C   UNL     1      -1.243  15.090  19.586  0.00  0.00    +0.000 A 
ATOM      7  C   UNL     1      -0.801  16.396  19.343  0.00  0.00    +0.000 A 
ATOM      8  C   UNL     1       0.497  16.631  18.911  0.00  0.00    +0.000 A 
ATOM      9  C   UNL     1       1.382  15.570  18.723  0.00  0.00    +0.000 A 
ATOM     10  C   UNL     1       0.927  14.262  18.975  0.00  0.00    +0.000 A 
ENDROOT
BRANCH   4  11
ATOM     11  C   UNL     1      -1.725  11.816  19.988  0.00  0.00    +0.000 C 
ATOM     12  C   UNL     1      -2.158  12.368  21.321  0.00  0.00    +0.000 A 
ATOM     13  C   UNL     1      -1.454  12.552  22.502  0.00  0.00    +0.000 A 
ATOM     14  C   UNL     1      -2.127  13.103  23.599  0.00  0.00    +0.000 A 
ATOM     15  C   UNL     1      -3.490  13.441  23.523  0.00  0.00    +0.000 A 
ATOM     16  C   UNL     1      -4.204  13.240  22.342  0.00  0.00    +0.000 A 
ATOM     17  C   UNL     1      -3.511  12.714  21.270  0.00  0.00    +0.000 A 
ATOM     18  C   UNL     1      -3.997  12.453  19.913  0.00  0.00    +0.000 C 
ATOM     19  O   UNL     1      -5.156  12.540  19.554  0.00  0.00    +0.000 OA
ATOM     20  N   UNL     1      -2.915  12.031  19.167  0.00  0.00    +0.000 N 
BRANCH  20  21
ATOM     21  C   UNL     1      -3.010  11.616  17.769  0.00  0.00    +0.000 C 
BRANCH  21  22
ATOM     22  C   UNL     1      -2.605  10.168  17.523  0.00  0.00    +0.000 C 
ATOM     23  O   UNL     1      -1.531   9.837  17.035  0.00  0.00    +0.000 OA
BRANCH  22  24
ATOM     24  O   UNL     1      -3.574   9.262  17.796  0.00  0.00    +0.000 OA
ATOM     25  H   UNL     1      -3.660   8.609  17.072  0.00  0.00    +0.000 HD
ENDBRANCH  22  24
ENDBRANCH  21  22
ENDBRANCH  20  21
ENDBRANCH   4  11
BRANCH   3  26
ATOM     26  C   UNL     1       1.173  10.569  19.207  0.00  0.00    +0.000 A 
ATOM     27  C   UNL     1       1.679   9.962  18.043  0.00  0.00    +0.000 A 
ATOM     28  C   UNL     1       2.113   8.631  18.049  0.00  0.00    +0.000 A 
ATOM     29  C   UNL     1       1.985   7.872  19.203  0.00  0.00    +0.000 A 
ATOM     30  F   UNL     1       2.367   6.589  19.200  0.00  0.00    +0.000 F 
ATOM     31  C   UNL     1       1.459   8.430  20.358  0.00  0.00    +0.000 A 
ATOM     32  C   UNL     1       1.090   9.781  20.368  0.00  0.00    +0.000 A 
ENDBRANCH   3  26
TORSDOF 5
ENDMDL
MODEL 9
REMARK VINA RESULT:      -6.6      2.319      4.248
REMARK  Name = 
REMARK  6 active torsions:
REMARK  status: ('A' for Active; 'I' for Inactive)
REMARK    1  A    between atoms: C_1  and  N_2
REMARK    2  A    between atoms: C_3  and  C_4
REMARK    3  A    between atoms: C_11  and  C_12
REMARK    4  A    between atoms: N_21  and  C_22
REMARK    5  A    between atoms: C_22  and  C_23
REMARK    6  A    between atoms: C_23  and  O_25
REMARK                            x       y       z     vdW  Elec       q    Type
REMARK                         _______ _______ _______ _____ _____    ______ ____
ROOT
ATOM      1  C   UNL     1      -5.933  13.931  21.428  0.00  0.00    +0.000 C 
ATOM      2  N   UNL     1      -4.647  13.458  20.947  0.00  0.00    +0.000 N 
ATOM      3  C   UNL     1      -3.382  13.723  21.461  0.00  0.00    +0.000 A 
ATOM      4  C   UNL     1      -2.466  13.002  20.664  0.00  0.00    +0.000 A 
ATOM      5  C   UNL     1      -3.231  12.307  19.656  0.00  0.00    +0.000 A 
ATOM      6  C   UNL     1      -2.907  11.426  18.598  0.00  0.00    +0.000 A 
ATOM      7  C   UNL     1      -3.914  10.909  17.773  0.00  0.00    +0.000 A 
ATOM      8  C   UNL     1      -5.242  11.254  17.983  0.00  0.00    +0.000 A 
ATOM      9  C   UNL     1      -5.593  12.112  19.025  0.00  0.00    +0.000 A 
ATOM     10  C   UNL     1      -4.572  12.621  19.850  0.00  0.00    +0.000 A 
ENDROOT
BRANCH   4  11
ATOM     11  C   UNL     1      -0.974  12.951  20.845  0.00  0.00    +0.000 C 
ATOM     12  C   UNL     1      -0.628  11.677  21.569  0.00  0.00    +0.000 A 
ATOM     13  C   UNL     1      -1.111  11.145  22.756  0.00  0.00    +0.000 A 
ATOM     14  C   UNL     1      -0.601   9.916  23.190  0.00  0.00    +0.000 A 
ATOM     15  C   UNL     1       0.395   9.241  22.462  0.00  0.00    +0.000 A 
ATOM     16  C   UNL     1       0.894   9.783  21.277  0.00  0.00    +0.000 A 
ATOM     17  C   UNL     1       0.359  10.986  20.861  0.00  0.00    +0.000 A 
ATOM     18  C   UNL     1       0.659  11.742  19.643  0.00  0.00    +0.000 C 
ATOM     19  O   UNL     1       1.549  11.480  18.857  0.00  0.00    +0.000 OA
ATOM     20  N   UNL     1      -0.201  12.821  19.611  0.00  0.00    +0.000 N 
BRANCH  20  21
ATOM     21  C   UNL     1      -0.171  13.848  18.572  0.00  0.00    +0.000 C 
BRANCH  21  22
ATOM     22  C   UNL     1       0.144  15.246  19.091  0.00  0.00    +0.000 C 
ATOM     23  O   UNL     1      -0.704  16.113  19.263  0.00  0.00    +0.000 OA
BRANCH  22  24
ATOM     24  O   UNL     1       1.464  15.497  19.258  0.00  0.00    +0.000 OA
ATOM     25  H   UNL     1       1.970  14.667  19.361  0.00  0.00    +0.000 HD
ENDBRANCH  22  24
ENDBRANCH  21  22
ENDBRANCH  20  21
ENDBRANCH   4  11
BRANCH   3  26
ATOM     26  C   UNL     1      -3.129  14.601  22.634  0.00  0.00    +0.000 A 
ATOM     27  C   UNL     1      -3.181  14.100  23.947  0.00  0.00    +0.000 A 
ATOM     28  C   UNL     1      -2.900  14.920  25.048  0.00  0.00    +0.000 A 
ATOM     29  C   UNL     1      -2.629  16.266  24.849  0.00  0.00    +0.000 A 
ATOM     30  F   UNL     1      -2.395  17.058  25.903  0.00  0.00    +0.000 F 
ATOM     31  C   UNL     1      -2.604  16.798  23.570  0.00  0.00    +0.000 A 
ATOM     32  C   UNL     1      -2.817  15.961  22.468  0.00  0.00    +0.000 A 
ENDBRANCH   3  26
TORSDOF 5
ENDMDL
