MODEL 1
REMARK VINA RESULT:      -8.1      0.000      0.000
REMARK  Name = 
REMARK  9 active torsions:
REMARK  status: ('A' for Active; 'I' for Inactive)
REMARK    1  A    between atoms: C_1  and  C_2
REMARK    2  A    between atoms: C_5  and  C_6
REMARK    3  A    between atoms: N_7  and  C_8
REMARK    4  A    between atoms: C_8  and  C_9
REMARK    5  A    between atoms: C_9  and  C_10
REMARK    6  A    between atoms: C_10  and  O_11
REMARK    7  A    between atoms: O_11  and  C_12
REMARK    8  A    between atoms: C_15  and  C_16
REMARK    9  A    between atoms: C_19  and  C_20
REMARK                            x       y       z     vdW  Elec       q    Type
REMARK                         _______ _______ _______ _____ _____    ______ ____
ROOT
ATOM      1  C   UNL     1       2.335   7.881  18.254  0.00  0.00    +0.000 A 
ATOM      2  C   UNL     1       1.707   9.034  17.787  0.00  0.00    +0.000 A 
ATOM      3  C   UNL     1       0.936   9.814  18.640  0.00  0.00    +0.000 A 
ATOM      4  C   UNL     1       0.744   9.461  19.984  0.00  0.00    +0.000 A 
ATOM      5  C   UNL     1       1.391   8.300  20.442  0.00  0.00    +0.000 A 
ATOM      6  C   UNL     1       2.188   7.523  19.589  0.00  0.00    +0.000 A 
ENDROOT
BRANCH   4   7
ATOM      7  C   UNL     1      -0.123  10.287  20.848  0.00  0.00    +0.000 A 
ATOM      8  C   UNL     1      -0.899  11.335  20.313  0.00  0.00    +0.000 A 
ATOM      9  C   UNL     1      -1.713  12.129  21.121  0.00  0.00    +0.000 A 
ATOM     10  C   UNL     1      -1.791  11.875  22.492  0.00  0.00    +0.000 A 
ATOM     11  C   UNL     1      -1.055  10.822  23.037  0.00  0.00    +0.000 A 
ATOM     12  C   UNL     1      -0.210  10.058  22.230  0.00  0.00    +0.000 A 
BRANCH  10  13
ATOM     13  C   UNL     1      -2.773  12.633  23.304  0.00  0.00    +0.000 C 
ATOM     14  O   UNL     1      -3.938  12.238  23.312  0.00  0.00    +0.000 OA
ATOM     15  N   UNL     1      -2.343  13.716  24.053  0.00  0.00    +0.000 N 
ATOM     16  C   UNL     1      -3.222  14.319  25.034  0.00  0.00    +0.000 C 
ATOM     17  C   UNL     1      -2.946  15.805  24.926  0.00  0.00    +0.000 C 
ATOM     18  C   UNL     1      -1.475  15.871  24.540  0.00  0.00    +0.000 C 
ATOM     19  C   UNL     1      -1.241  14.609  23.715  0.00  0.00    +0.000 C 
ENDBRANCH  10  13
ENDBRANCH   4   7
BRANCH   1  20
ATOM     20  O   UNL     1       3.105   7.047  17.480  0.00  0.00    +0.000 OA
BRANCH  20  21
ATOM     21  C   UNL     1       4.460   6.928  17.926  0.00  0.00    +0.000 C 
BRANCH  21  22
ATOM     22  C   UNL     1       4.831   5.465  18.079  0.00  0.00    +0.000 C 
BRANCH  22  23
ATOM     23  C   UNL     1       4.399   4.906  19.441  0.00  0.00    +0.000 C 
BRANCH  23  30
ATOM     24  C   UNL     1       3.578   1.561  17.951  0.00  0.00    +0.000 C 
ATOM     25  C   UNL     1       3.570   3.094  18.052  0.00  0.00    +0.000 C 
ATOM     26  C   UNL     1       2.217   3.666  17.629  0.00  0.00    +0.000 C 
ATOM     27  C   UNL     1       1.472   3.948  18.927  0.00  0.00    +0.000 C 
ATOM     28  C   UNL     1       2.410   3.482  20.038  0.00  0.00    +0.000 C 
ATOM     29  C   UNL     1       2.100   4.163  21.364  0.00  0.00    +0.000 C 
ATOM     30  N   UNL     1       3.769   3.564  19.452  0.00  0.00    +0.000 NA
ENDBRANCH  23  30
ENDBRANCH  22  23
ENDBRANCH  21  22
ENDBRANCH  20  21
ENDBRANCH   1  20
TORSDOF 7
ENDMDL
MODEL 2
REMARK VINA RESULT:      -8.0      2.031      3.401
REMARK  Name = 
REMARK  9 active torsions:
REMARK  status: ('A' for Active; 'I' for Inactive)
REMARK    1  A    between atoms: C_1  and  C_2
REMARK    2  A    between atoms: C_5  and  C_6
REMARK    3  A    between atoms: N_7  and  C_8
REMARK    4  A    between atoms: C_8  and  C_9
REMARK    5  A    between atoms: C_9  and  C_10
REMARK    6  A    between atoms: C_10  and  O_11
REMARK    7  A    between atoms: O_11  and  C_12
REMARK    8  A    between atoms: C_15  and  C_16
REMARK    9  A    between atoms: C_19  and  C_20
REMARK                            x       y       z     vdW  Elec       q    Type
REMARK                         _______ _______ _______ _____ _____    ______ ____
ROOT
ATOM      1  C   UNL     1       2.368   6.107  19.298  0.00  0.00    +0.000 A 
ATOM      2  C   UNL     1       2.414   7.360  18.688  0.00  0.00    +0.000 A 
ATOM      3  C   UNL     1       1.858   8.471  19.312  0.00  0.00    +0.000 A 
ATOM      4  C   UNL     1       1.217   8.370  20.555  0.00  0.00    +0.000 A 
ATOM      5  C   UNL     1       1.188   7.102  21.162  0.00  0.00    +0.000 A 
ATOM      6  C   UNL     1       1.766   5.983  20.545  0.00  0.00    +0.000 A 
ENDROOT
BRANCH   4   7
ATOM      7  C   UNL     1       0.595   9.563  21.164  0.00  0.00    +0.000 A 
ATOM      8  C   UNL     1       0.698  10.830  20.554  0.00  0.00    +0.000 A 
ATOM      9  C   UNL     1       0.123  11.965  21.127  0.00  0.00    +0.000 A 
ATOM     10  C   UNL     1      -0.594  11.856  22.319  0.00  0.00    +0.000 A 
ATOM     11  C   UNL     1      -0.735  10.604  22.923  0.00  0.00    +0.000 A 
ATOM     12  C   UNL     1      -0.122   9.480  22.367  0.00  0.00    +0.000 A 
BRANCH  10  13
ATOM     13  C   UNL     1      -1.320  13.044  22.827  0.00  0.00    +0.000 C 
ATOM     14  O   UNL     1      -0.833  13.651  23.779  0.00  0.00    +0.000 OA
ATOM     15  N   UNL     1      -2.483  13.452  22.193  0.00  0.00    +0.000 N 
ATOM     16  C   UNL     1      -3.075  14.735  22.511  0.00  0.00    +0.000 C 
ATOM     17  C   UNL     1      -4.569  14.479  22.484  0.00  0.00    +0.000 C 
ATOM     18  C   UNL     1      -4.729  13.396  21.428  0.00  0.00    +0.000 C 
ATOM     19  C   UNL     1      -3.439  12.586  21.513  0.00  0.00    +0.000 C 
ENDBRANCH  10  13
ENDBRANCH   4   7
BRANCH   1  20
ATOM     20  O   UNL     1       2.880   4.957  18.750  0.00  0.00    +0.000 OA
BRANCH  20  21
ATOM     21  C   UNL     1       3.534   4.105  19.697  0.00  0.00    +0.000 C 
BRANCH  21  22
ATOM     22  C   UNL     1       4.887   3.674  19.162  0.00  0.00    +0.000 C 
BRANCH  22  23
ATOM     23  C   UNL     1       5.010   3.927  17.654  0.00  0.00    +0.000 C 
BRANCH  23  30
ATOM     24  C   UNL     1       7.478   6.743  17.906  0.00  0.00    +0.000 C 
ATOM     25  C   UNL     1       6.092   6.100  17.746  0.00  0.00    +0.000 C 
ATOM     26  C   UNL     1       5.238   6.877  16.744  0.00  0.00    +0.000 C 
ATOM     27  C   UNL     1       5.339   6.101  15.437  0.00  0.00    +0.000 C 
ATOM     28  C   UNL     1       6.284   4.939  15.732  0.00  0.00    +0.000 C 
ATOM     29  C   UNL     1       6.082   3.783  14.761  0.00  0.00    +0.000 C 
ATOM     30  N   UNL     1       6.177   4.718  17.194  0.00  0.00    +0.000 NA
ENDBRANCH  23  30
ENDBRANCH  22  23
ENDBRANCH  21  22
ENDBRANCH  20  21
ENDBRANCH   1  20
TORSDOF 7
ENDMDL
MODEL 3
REMARK VINA RESULT:      -7.9      2.642     11.108
REMARK  Name = 
REMARK  9 active torsions:
REMARK  status: ('A' for Active; 'I' for Inactive)
REMARK    1  A    between atoms: C_1  and  C_2
REMARK    2  A    between atoms: C_5  and  C_6
REMARK    3  A    between atoms: N_7  and  C_8
REMARK    4  A    between atoms: C_8  and  C_9
REMARK    5  A    between atoms: C_9  and  C_10
REMARK    6  A    between atoms: C_10  and  O_11
REMARK    7  A    between atoms: O_11  and  C_12
REMARK    8  A    between atoms: C_15  and  C_16
REMARK    9  A    between atoms: C_19  and  C_20
REMARK                            x       y       z     vdW  Elec       q    Type
REMARK                         _______ _______ _______ _____ _____    ______ ____
ROOT
ATOM      1  C   UNL     1      -0.738  10.716  22.528  0.00  0.00    +0.000 A 
ATOM      2  C   UNL     1      -0.001   9.664  23.071  0.00  0.00    +0.000 A 
ATOM      3  C   UNL     1       0.753   8.833  22.252  0.00  0.00    +0.000 A 
ATOM      4  C   UNL     1       0.783   9.004  20.861  0.00  0.00    +0.000 A 
ATOM      5  C   UNL     1       0.042  10.075  20.329  0.00  0.00    +0.000 A 
ATOM      6  C   UNL     1      -0.703  10.928  21.155  0.00  0.00    +0.000 A 
ENDROOT
BRANCH   4   7
ATOM      7  C   UNL     1       1.557   8.071  20.018  0.00  0.00    +0.000 A 
ATOM      8  C   UNL     1       1.871   6.772  20.468  0.00  0.00    +0.000 A 
ATOM      9  C   UNL     1       2.610   5.886  19.683  0.00  0.00    +0.000 A 
ATOM     10  C   UNL     1       3.035   6.271  18.412  0.00  0.00    +0.000 A 
ATOM     11  C   UNL     1       2.709   7.542  17.934  0.00  0.00    +0.000 A 
ATOM     12  C   UNL     1       2.004   8.439  18.739  0.00  0.00    +0.000 A 
BRANCH  10  13
ATOM     13  C   UNL     1       3.688   5.264  17.541  0.00  0.00    +0.000 C 
ATOM     14  O   UNL     1       3.082   4.217  17.319  0.00  0.00    +0.000 OA
ATOM     15  N   UNL     1       4.921   5.551  16.976  0.00  0.00    +0.000 N 
ATOM     16  C   UNL     1       5.464   4.699  15.940  0.00  0.00    +0.000 C 
ATOM     17  C   UNL     1       6.950   4.644  16.235  0.00  0.00    +0.000 C 
ATOM     18  C   UNL     1       7.246   6.008  16.842  0.00  0.00    +0.000 C 
ATOM     19  C   UNL     1       5.958   6.393  17.563  0.00  0.00    +0.000 C 
ENDBRANCH  10  13
ENDBRANCH   4   7
BRANCH   1  20
ATOM     20  O   UNL     1      -1.518  11.577  23.260  0.00  0.00    +0.000 OA
BRANCH  20  21
ATOM     21  C   UNL     1      -2.233  12.529  22.465  0.00  0.00    +0.000 C 
BRANCH  21  22
ATOM     22  C   UNL     1      -3.599  12.791  23.070  0.00  0.00    +0.000 C 
BRANCH  22  23
ATOM     23  C   UNL     1      -4.717  12.672  22.026  0.00  0.00    +0.000 C 
BRANCH  23  30
ATOM     24  C   UNL     1      -6.764  15.279  23.784  0.00  0.00    +0.000 C 
ATOM     25  C   UNL     1      -6.134  13.894  23.574  0.00  0.00    +0.000 C 
ATOM     26  C   UNL     1      -7.091  12.783  24.008  0.00  0.00    +0.000 C 
ATOM     27  C   UNL     1      -7.734  12.276  22.724  0.00  0.00    +0.000 C 
ATOM     28  C   UNL     1      -7.154  13.148  21.613  0.00  0.00    +0.000 C 
ATOM     29  C   UNL     1      -7.239  12.465  20.255  0.00  0.00    +0.000 C 
ATOM     30  N   UNL     1      -5.851  13.620  22.136  0.00  0.00    +0.000 NA
ENDBRANCH  23  30
ENDBRANCH  22  23
ENDBRANCH  21  22
ENDBRANCH  20  21
ENDBRANCH   1  20
TORSDOF 7
ENDMDL
MODEL 4
REMARK VINA RESULT:      -7.9      1.230      1.839
REMARK  Name = 
REMARK  9 active torsions:
REMARK  status: ('A' for Active; 'I' for Inactive)
REMARK    1  A    between atoms: C_1  and  C_2
REMARK    2  A    between atoms: C_5  and  C_6
REMARK    3  A    between atoms: N_7  and  C_8
REMARK    4  A    between atoms: C_8  and  C_9
REMARK    5  A    between atoms: C_9  and  C_10
REMARK    6  A    between atoms: C_10  and  O_11
REMARK    7  A    between atoms: O_11  and  C_12
REMARK    8  A    between atoms: C_15  and  C_16
REMARK    9  A    between atoms: C_19  and  C_20
REMARK                            x       y       z     vdW  Elec       q    Type
REMARK                         _______ _______ _______ _____ _____    ______ ____
ROOT
ATOM      1  C   UNL     1       2.413   7.684  18.407  0.00  0.00    +0.000 A 
ATOM      2  C   UNL     1       1.936   8.863  17.837  0.00  0.00    +0.000 A 
ATOM      3  C   UNL     1       1.216   9.776  18.600  0.00  0.00    +0.000 A 
ATOM      4  C   UNL     1       0.926   9.536  19.950  0.00  0.00    +0.000 A 
ATOM      5  C   UNL     1       1.422   8.346  20.513  0.00  0.00    +0.000 A 
ATOM      6  C   UNL     1       2.166   7.434  19.751  0.00  0.00    +0.000 A 
ENDROOT
BRANCH   4   7
ATOM      7  C   UNL     1       0.116  10.505  20.715  0.00  0.00    +0.000 A 
ATOM      8  C   UNL     1      -0.272  10.241  22.045  0.00  0.00    +0.000 A 
ATOM      9  C   UNL     1      -1.046  11.145  22.773  0.00  0.00    +0.000 A 
ATOM     10  C   UNL     1      -1.433  12.354  22.194  0.00  0.00    +0.000 A 
ATOM     11  C   UNL     1      -1.033  12.649  20.889  0.00  0.00    +0.000 A 
ATOM     12  C   UNL     1      -0.294  11.723  20.151  0.00  0.00    +0.000 A 
BRANCH  10  13
ATOM     13  C   UNL     1      -2.126  13.360  23.034  0.00  0.00    +0.000 C 
ATOM     14  O   UNL     1      -1.476  13.913  23.920  0.00  0.00    +0.000 OA
ATOM     15  N   UNL     1      -3.450  13.672  22.767  0.00  0.00    +0.000 N 
ATOM     16  C   UNL     1      -4.072  14.812  23.407  0.00  0.00    +0.000 C 
ATOM     17  C   UNL     1      -5.486  14.353  23.703  0.00  0.00    +0.000 C 
ATOM     18  C   UNL     1      -5.797  13.390  22.567  0.00  0.00    +0.000 C 
ATOM     19  C   UNL     1      -4.451  12.765  22.217  0.00  0.00    +0.000 C 
ENDBRANCH  10  13
ENDBRANCH   4   7
BRANCH   1  20
ATOM     20  O   UNL     1       3.121   6.723  17.727  0.00  0.00    +0.000 OA
BRANCH  20  21
ATOM     21  C   UNL     1       4.481   6.595  18.154  0.00  0.00    +0.000 C 
BRANCH  21  22
ATOM     22  C   UNL     1       4.821   5.134  18.378  0.00  0.00    +0.000 C 
BRANCH  22  23
ATOM     23  C   UNL     1       4.110   4.566  19.612  0.00  0.00    +0.000 C 
BRANCH  23  30
ATOM     24  C   UNL     1       2.647   1.768  17.583  0.00  0.00    +0.000 C 
ATOM     25  C   UNL     1       2.809   3.217  18.067  0.00  0.00    +0.000 C 
ATOM     26  C   UNL     1       1.454   3.920  18.159  0.00  0.00    +0.000 C 
ATOM     27  C   UNL     1       1.068   3.864  19.631  0.00  0.00    +0.000 C 
ATOM     28  C   UNL     1       2.194   3.091  20.313  0.00  0.00    +0.000 C 
ATOM     29  C   UNL     1       2.272   3.398  21.802  0.00  0.00    +0.000 C 
ATOM     30  N   UNL     1       3.377   3.288  19.443  0.00  0.00    +0.000 NA
ENDBRANCH  23  30
ENDBRANCH  22  23
ENDBRANCH  21  22
ENDBRANCH  20  21
ENDBRANCH   1  20
TORSDOF 7
ENDMDL
MODEL 5
REMARK VINA RESULT:      -7.8      1.851      3.270
REMARK  Name = 
REMARK  9 active torsions:
REMARK  status: ('A' for Active; 'I' for Inactive)
REMARK    1  A    between atoms: C_1  and  C_2
REMARK    2  A    between atoms: C_5  and  C_6
REMARK    3  A    between atoms: N_7  and  C_8
REMARK    4  A    between atoms: C_8  and  C_9
REMARK    5  A    between atoms: C_9  and  C_10
REMARK    6  A    between atoms: C_10  and  O_11
REMARK    7  A    between atoms: O_11  and  C_12
REMARK    8  A    between atoms: C_15  and  C_16
REMARK    9  A    between atoms: C_19  and  C_20
REMARK                            x       y       z     vdW  Elec       q    Type
REMARK                         _______ _______ _______ _____ _____    ______ ____
ROOT
ATOM      1  C   UNL     1       2.332   7.070  18.721  0.00  0.00    +0.000 A 
ATOM      2  C   UNL     1       1.987   8.270  18.099  0.00  0.00    +0.000 A 
ATOM      3  C   UNL     1       1.379   9.290  18.820  0.00  0.00    +0.000 A 
ATOM      4  C   UNL     1       1.072   9.145  20.180  0.00  0.00    +0.000 A 
ATOM      5  C   UNL     1       1.435   7.934  20.796  0.00  0.00    +0.000 A 
ATOM      6  C   UNL     1       2.067   6.910  20.076  0.00  0.00    +0.000 A 
ENDROOT
BRANCH   4   7
ATOM      7  C   UNL     1       0.381  10.233  20.902  0.00  0.00    +0.000 A 
ATOM      8  C   UNL     1      -0.238  10.003  22.147  0.00  0.00    +0.000 A 
ATOM      9  C   UNL     1      -0.903  11.020  22.832  0.00  0.00    +0.000 A 
ATOM     10  C   UNL     1      -0.945  12.308  22.296  0.00  0.00    +0.000 A 
ATOM     11  C   UNL     1      -0.312  12.565  21.078  0.00  0.00    +0.000 A 
ATOM     12  C   UNL     1       0.317  11.533  20.378  0.00  0.00    +0.000 A 
BRANCH  10  13
ATOM     13  C   UNL     1      -1.526  13.403  23.109  0.00  0.00    +0.000 C 
ATOM     14  O   UNL     1      -0.797  13.956  23.931  0.00  0.00    +0.000 OA
ATOM     15  N   UNL     1      -2.837  13.791  22.887  0.00  0.00    +0.000 N 
ATOM     16  C   UNL     1      -3.350  15.004  23.489  0.00  0.00    +0.000 C 
ATOM     17  C   UNL     1      -4.775  14.661  23.877  0.00  0.00    +0.000 C 
ATOM     18  C   UNL     1      -5.206  13.662  22.813  0.00  0.00    +0.000 C 
ATOM     19  C   UNL     1      -3.923  12.928  22.436  0.00  0.00    +0.000 C 
ENDBRANCH  10  13
ENDBRANCH   4   7
BRANCH   1  20
ATOM     20  O   UNL     1       2.923   6.007  18.085  0.00  0.00    +0.000 OA
BRANCH  20  21
ATOM     21  C   UNL     1       2.730   4.753  18.748  0.00  0.00    +0.000 C 
BRANCH  21  22
ATOM     22  C   UNL     1       4.044   4.002  18.837  0.00  0.00    +0.000 C 
BRANCH  22  23
ATOM     23  C   UNL     1       4.737   3.902  17.472  0.00  0.00    +0.000 C 
BRANCH  23  30
ATOM     24  C   UNL     1       7.789   5.662  18.763  0.00  0.00    +0.000 C 
ATOM     25  C   UNL     1       6.348   5.547  18.244  0.00  0.00    +0.000 C 
ATOM     26  C   UNL     1       5.995   6.727  17.338  0.00  0.00    +0.000 C 
ATOM     27  C   UNL     1       6.155   6.207  15.915  0.00  0.00    +0.000 C 
ATOM     28  C   UNL     1       6.637   4.766  16.066  0.00  0.00    +0.000 C 
ATOM     29  C   UNL     1       6.332   3.934  14.828  0.00  0.00    +0.000 C 
ATOM     30  N   UNL     1       6.152   4.336  17.398  0.00  0.00    +0.000 NA
ENDBRANCH  23  30
ENDBRANCH  22  23
ENDBRANCH  21  22
ENDBRANCH  20  21
ENDBRANCH   1  20
TORSDOF 7
ENDMDL
MODEL 6
REMARK VINA RESULT:      -7.8      6.452      8.599
REMARK  Name = 
REMARK  9 active torsions:
REMARK  status: ('A' for Active; 'I' for Inactive)
REMARK    1  A    between atoms: C_1  and  C_2
REMARK    2  A    between atoms: C_5  and  C_6
REMARK    3  A    between atoms: N_7  and  C_8
REMARK    4  A    between atoms: C_8  and  C_9
REMARK    5  A    between atoms: C_9  and  C_10
REMARK    6  A    between atoms: C_10  and  O_11
REMARK    7  A    between atoms: O_11  and  C_12
REMARK    8  A    between atoms: C_15  and  C_16
REMARK    9  A    between atoms: C_19  and  C_20
REMARK                            x       y       z     vdW  Elec       q    Type
REMARK                         _______ _______ _______ _____ _____    ______ ____
ROOT
ATOM      1  C   UNL     1       7.186   5.815  17.879  0.00  0.00    +0.000 A 
ATOM      2  C   UNL     1       8.043   6.106  18.940  0.00  0.00    +0.000 A 
ATOM      3  C   UNL     1       8.503   7.401  19.143  0.00  0.00    +0.000 A 
ATOM      4  C   UNL     1       8.145   8.449  18.283  0.00  0.00    +0.000 A 
ATOM      5  C   UNL     1       7.274   8.142  17.223  0.00  0.00    +0.000 A 
ATOM      6  C   UNL     1       6.791   6.840  17.029  0.00  0.00    +0.000 A 
ENDROOT
BRANCH   4   7
ATOM      7  C   UNL     1       8.694   9.803  18.500  0.00  0.00    +0.000 A 
ATOM      8  C   UNL     1       8.393  10.861  17.619  0.00  0.00    +0.000 A 
ATOM      9  C   UNL     1       8.914  12.141  17.809  0.00  0.00    +0.000 A 
ATOM     10  C   UNL     1       9.736  12.402  18.907  0.00  0.00    +0.000 A 
ATOM     11  C   UNL     1      10.021  11.375  19.809  0.00  0.00    +0.000 A 
ATOM     12  C   UNL     1       9.530  10.087  19.591  0.00  0.00    +0.000 A 
BRANCH  10  13
ATOM     13  C   UNL     1      10.155  13.800  19.170  0.00  0.00    +0.000 C 
ATOM     14  O   UNL     1      11.359  14.031  19.263  0.00  0.00    +0.000 OA
ATOM     15  N   UNL     1       9.191  14.792  19.256  0.00  0.00    +0.000 N 
ATOM     16  C   UNL     1       9.581  16.187  19.269  0.00  0.00    +0.000 C 
ATOM     17  C   UNL     1       8.626  16.837  20.251  0.00  0.00    +0.000 C 
ATOM     18  C   UNL     1       7.347  16.026  20.099  0.00  0.00    +0.000 C 
ATOM     19  C   UNL     1       7.825  14.623  19.739  0.00  0.00    +0.000 C 
ENDBRANCH  10  13
ENDBRANCH   4   7
BRANCH   1  20
ATOM     20  O   UNL     1       6.694   4.564  17.598  0.00  0.00    +0.000 OA
BRANCH  20  21
ATOM     21  C   UNL     1       6.395   4.356  16.214  0.00  0.00    +0.000 C 
BRANCH  21  22
ATOM     22  C   UNL     1       4.981   3.828  16.059  0.00  0.00    +0.000 C 
BRANCH  22  23
ATOM     23  C   UNL     1       4.280   3.672  17.414  0.00  0.00    +0.000 C 
BRANCH  23  30
ATOM     24  C   UNL     1       2.539   6.932  18.065  0.00  0.00    +0.000 C 
ATOM     25  C   UNL     1       3.494   5.766  18.361  0.00  0.00    +0.000 C 
ATOM     26  C   UNL     1       3.482   5.410  19.848  0.00  0.00    +0.000 C 
ATOM     27  C   UNL     1       2.563   4.201  19.968  0.00  0.00    +0.000 C 
ATOM     28  C   UNL     1       2.051   3.944  18.553  0.00  0.00    +0.000 C 
ATOM     29  C   UNL     1       1.585   2.505  18.371  0.00  0.00    +0.000 C 
ATOM     30  N   UNL     1       3.086   4.516  17.660  0.00  0.00    +0.000 NA
ENDBRANCH  23  30
ENDBRANCH  22  23
ENDBRANCH  21  22
ENDBRANCH  20  21
ENDBRANCH   1  20
TORSDOF 7
ENDMDL
MODEL 7
REMARK VINA RESULT:      -7.7      6.350      8.504
REMARK  Name = 
REMARK  9 active torsions:
REMARK  status: ('A' for Active; 'I' for Inactive)
REMARK    1  A    between atoms: C_1  and  C_2
REMARK    2  A    between atoms: C_5  and  C_6
REMARK    3  A    between atoms: N_7  and  C_8
REMARK    4  A    between atoms: C_8  and  C_9
REMARK    5  A    between atoms: C_9  and  C_10
REMARK    6  A    between atoms: C_10  and  O_11
REMARK    7  A    between atoms: O_11  and  C_12
REMARK    8  A    between atoms: C_15  and  C_16
REMARK    9  A    between atoms: C_19  and  C_20
REMARK                            x       y       z     vdW  Elec       q    Type
REMARK                         _______ _______ _______ _____ _____    ______ ____
ROOT
ATOM      1  C   UNL     1       6.811   5.684  17.742  0.00  0.00    +0.000 A 
ATOM      2  C   UNL     1       7.824   5.894  18.676  0.00  0.00    +0.000 A 
ATOM      3  C   UNL     1       8.348   7.165  18.877  0.00  0.00    +0.000 A 
ATOM      4  C   UNL     1       7.897   8.269  18.140  0.00  0.00    +0.000 A 
ATOM      5  C   UNL     1       6.868   8.043  17.208  0.00  0.00    +0.000 A 
ATOM      6  C   UNL     1       6.323   6.765  17.018  0.00  0.00    +0.000 A 
ENDROOT
BRANCH   4   7
ATOM      7  C   UNL     1       8.511   9.596  18.346  0.00  0.00    +0.000 A 
ATOM      8  C   UNL     1       8.190  10.685  17.511  0.00  0.00    +0.000 A 
ATOM      9  C   UNL     1       8.773  11.941  17.691  0.00  0.00    +0.000 A 
ATOM     10  C   UNL     1       9.679  12.144  18.732  0.00  0.00    +0.000 A 
ATOM     11  C   UNL     1       9.988  11.086  19.590  0.00  0.00    +0.000 A 
ATOM     12  C   UNL     1       9.433   9.823  19.380  0.00  0.00    +0.000 A 
BRANCH  10  13
ATOM     13  C   UNL     1      10.170  13.519  18.994  0.00  0.00    +0.000 C 
ATOM     14  O   UNL     1      11.334  13.780  18.696  0.00  0.00    +0.000 OA
ATOM     15  N   UNL     1       9.298  14.462  19.516  0.00  0.00    +0.000 N 
ATOM     16  C   UNL     1       9.676  15.860  19.555  0.00  0.00    +0.000 C 
ATOM     17  C   UNL     1       9.119  16.365  20.870  0.00  0.00    +0.000 C 
ATOM     18  C   UNL     1       7.861  15.532  21.072  0.00  0.00    +0.000 C 
ATOM     19  C   UNL     1       8.180  14.194  20.413  0.00  0.00    +0.000 C 
ENDBRANCH  10  13
ENDBRANCH   4   7
BRANCH   1  20
ATOM     20  O   UNL     1       6.245   4.463  17.470  0.00  0.00    +0.000 OA
BRANCH  20  21
ATOM     21  C   UNL     1       5.037   4.540  16.706  0.00  0.00    +0.000 C 
BRANCH  21  22
ATOM     22  C   UNL     1       4.099   3.414  17.097  0.00  0.00    +0.000 C 
BRANCH  22  23
ATOM     23  C   UNL     1       2.921   3.920  17.939  0.00  0.00    +0.000 C 
BRANCH  23  30
ATOM     24  C   UNL     1       3.054   2.442  21.385  0.00  0.00    +0.000 C 
ATOM     25  C   UNL     1       2.401   2.851  20.057  0.00  0.00    +0.000 C 
ATOM     26  C   UNL     1       0.974   3.355  20.278  0.00  0.00    +0.000 C 
ATOM     27  C   UNL     1       1.076   4.875  20.269  0.00  0.00    +0.000 C 
ATOM     28  C   UNL     1       2.561   5.178  20.090  0.00  0.00    +0.000 C 
ATOM     29  C   UNL     1       2.791   6.570  19.519  0.00  0.00    +0.000 C 
ATOM     30  N   UNL     1       3.116   3.985  19.407  0.00  0.00    +0.000 NA
ENDBRANCH  23  30
ENDBRANCH  22  23
ENDBRANCH  21  22
ENDBRANCH  20  21
ENDBRANCH   1  20
TORSDOF 7
ENDMDL
MODEL 8
REMARK VINA RESULT:      -7.7      0.782      1.803
REMARK  Name = 
REMARK  9 active torsions:
REMARK  status: ('A' for Active; 'I' for Inactive)
REMARK    1  A    between atoms: C_1  and  C_2
REMARK    2  A    between atoms: C_5  and  C_6
REMARK    3  A    between atoms: N_7  and  C_8
REMARK    4  A    between atoms: C_8  and  C_9
REMARK    5  A    between atoms: C_9  and  C_10
REMARK    6  A    between atoms: C_10  and  O_11
REMARK    7  A    between atoms: O_11  and  C_12
REMARK    8  A    between atoms: C_15  and  C_16
REMARK    9  A    between atoms: C_19  and  C_20
REMARK                            x       y       z     vdW  Elec       q    Type
REMARK                         _______ _______ _______ _____ _____    ______ ____
ROOT
ATOM      1  C   UNL     1       2.410   8.009  18.301  0.00  0.00    +0.000 A 
ATOM      2  C   UNL     1       2.144   7.637  19.618  0.00  0.00    +0.000 A 
ATOM      3  C   UNL     1       1.270   8.382  20.400  0.00  0.00    +0.000 A 
ATOM      4  C   UNL     1       0.645   9.536  19.906  0.00  0.00    +0.000 A 
ATOM      5  C   UNL     1       0.916   9.893  18.573  0.00  0.00    +0.000 A 
ATOM      6  C   UNL     1       1.782   9.131  17.775  0.00  0.00    +0.000 A 
ENDROOT
BRANCH   4   7
ATOM      7  C   UNL     1      -0.240  10.330  20.782  0.00  0.00    +0.000 A 
ATOM      8  C   UNL     1      -0.263  10.120  22.176  0.00  0.00    +0.000 A 
ATOM      9  C   UNL     1      -1.103  10.858  23.012  0.00  0.00    +0.000 A 
ATOM     10  C   UNL     1      -1.928  11.845  22.473  0.00  0.00    +0.000 A 
ATOM     11  C   UNL     1      -1.898  12.090  21.098  0.00  0.00    +0.000 A 
ATOM     12  C   UNL     1      -1.086  11.321  20.262  0.00  0.00    +0.000 A 
BRANCH  10  13
ATOM     13  C   UNL     1      -2.699  12.714  23.394  0.00  0.00    +0.000 C 
ATOM     14  O   UNL     1      -3.855  12.390  23.657  0.00  0.00    +0.000 OA
ATOM     15  N   UNL     1      -2.083  13.822  23.956  0.00  0.00    +0.000 N 
ATOM     16  C   UNL     1      -2.725  14.543  25.035  0.00  0.00    +0.000 C 
ATOM     17  C   UNL     1      -2.412  15.999  24.756  0.00  0.00    +0.000 C 
ATOM     18  C   UNL     1      -1.044  15.951  24.091  0.00  0.00    +0.000 C 
ATOM     19  C   UNL     1      -1.030  14.623  23.341  0.00  0.00    +0.000 C 
ENDBRANCH  10  13
ENDBRANCH   4   7
BRANCH   1  20
ATOM     20  O   UNL     1       3.267   7.340  17.463  0.00  0.00    +0.000 OA
BRANCH  20  21
ATOM     21  C   UNL     1       4.419   6.801  18.120  0.00  0.00    +0.000 C 
BRANCH  21  22
ATOM     22  C   UNL     1       4.441   5.291  17.980  0.00  0.00    +0.000 C 
BRANCH  22  23
ATOM     23  C   UNL     1       4.056   4.592  19.290  0.00  0.00    +0.000 C 
BRANCH  23  30
ATOM     24  C   UNL     1       0.750   2.967  18.575  0.00  0.00    +0.000 C 
ATOM     25  C   UNL     1       1.727   3.901  19.304  0.00  0.00    +0.000 C 
ATOM     26  C   UNL     1       1.437   3.938  20.804  0.00  0.00    +0.000 C 
ATOM     27  C   UNL     1       2.449   2.992  21.437  0.00  0.00    +0.000 C 
ATOM     28  C   UNL     1       3.247   2.418  20.269  0.00  0.00    +0.000 C 
ATOM     29  C   UNL     1       4.611   1.906  20.711  0.00  0.00    +0.000 C 
ATOM     30  N   UNL     1       3.137   3.432  19.194  0.00  0.00    +0.000 NA
ENDBRANCH  23  30
ENDBRANCH  22  23
ENDBRANCH  21  22
ENDBRANCH  20  21
ENDBRANCH   1  20
TORSDOF 7
ENDMDL
MODEL 9
REMARK VINA RESULT:      -7.6      2.123      3.488
REMARK  Name = 
REMARK  9 active torsions:
REMARK  status: ('A' for Active; 'I' for Inactive)
REMARK    1  A    between atoms: C_1  and  C_2
REMARK    2  A    between atoms: C_5  and  C_6
REMARK    3  A    between atoms: N_7  and  C_8
REMARK    4  A    between atoms: C_8  and  C_9
REMARK    5  A    between atoms: C_9  and  C_10
REMARK    6  A    between atoms: C_10  and  O_11
REMARK    7  A    between atoms: O_11  and  C_12
REMARK    8  A    between atoms: C_15  and  C_16
REMARK    9  A    between atoms: C_19  and  C_20
REMARK                            x       y       z     vdW  Elec       q    Type
REMARK                         _______ _______ _______ _____ _____    ______ ____
ROOT
ATOM      1  C   UNL     1       2.364   5.973  19.673  0.00  0.00    +0.000 A 
ATOM      2  C   UNL     1       1.629   5.940  20.856  0.00  0.00    +0.000 A 
ATOM      3  C   UNL     1       0.995   7.084  21.328  0.00  0.00    +0.000 A 
ATOM      4  C   UNL     1       1.090   8.307  20.649  0.00  0.00    +0.000 A 
ATOM      5  C   UNL     1       1.828   8.322  19.452  0.00  0.00    +0.000 A 
ATOM      6  C   UNL     1       2.450   7.165  18.963  0.00  0.00    +0.000 A 
ENDROOT
BRANCH   4   7
ATOM      7  C   UNL     1       0.445   9.513  21.206  0.00  0.00    +0.000 A 
ATOM      8  C   UNL     1      -0.143   9.498  22.487  0.00  0.00    +0.000 A 
ATOM      9  C   UNL     1      -0.764  10.629  23.019  0.00  0.00    +0.000 A 
ATOM     10  C   UNL     1      -0.792  11.816  22.287  0.00  0.00    +0.000 A 
ATOM     11  C   UNL     1      -0.189  11.861  21.028  0.00  0.00    +0.000 A 
ATOM     12  C   UNL     1       0.395  10.715  20.484  0.00  0.00    +0.000 A 
BRANCH  10  13
ATOM     13  C   UNL     1      -1.324  13.041  22.931  0.00  0.00    +0.000 C 
ATOM     14  O   UNL     1      -0.573  13.674  23.670  0.00  0.00    +0.000 OA
ATOM     15  N   UNL     1      -2.618  13.451  22.646  0.00  0.00    +0.000 N 
ATOM     16  C   UNL     1      -3.076  14.759  23.065  0.00  0.00    +0.000 C 
ATOM     17  C   UNL     1      -4.515  14.538  23.487  0.00  0.00    +0.000 C 
ATOM     18  C   UNL     1      -4.989  13.417  22.574  0.00  0.00    +0.000 C 
ATOM     19  C   UNL     1      -3.740  12.580  22.316  0.00  0.00    +0.000 C 
ENDBRANCH  10  13
ENDBRANCH   4   7
BRANCH   1  20
ATOM     20  O   UNL     1       3.030   4.897  19.141  0.00  0.00    +0.000 OA
BRANCH  20  21
ATOM     21  C   UNL     1       2.237   4.105  18.250  0.00  0.00    +0.000 C 
BRANCH  21  22
ATOM     22  C   UNL     1       3.128   3.391  17.252  0.00  0.00    +0.000 C 
BRANCH  22  23
ATOM     23  C   UNL     1       4.526   4.020  17.185  0.00  0.00    +0.000 C 
BRANCH  23  30
ATOM     24  C   UNL     1       6.136   3.855  13.800  0.00  0.00    +0.000 C 
ATOM     25  C   UNL     1       6.082   3.796  15.334  0.00  0.00    +0.000 C 
ATOM     26  C   UNL     1       7.338   4.411  15.953  0.00  0.00    +0.000 C 
ATOM     27  C   UNL     1       6.938   5.823  16.363  0.00  0.00    +0.000 C 
ATOM     28  C   UNL     1       5.485   5.974  15.920  0.00  0.00    +0.000 C 
ATOM     29  C   UNL     1       4.764   7.061  16.705  0.00  0.00    +0.000 C 
ATOM     30  N   UNL     1       4.949   4.593  15.885  0.00  0.00    +0.000 NA
ENDBRANCH  23  30
ENDBRANCH  22  23
ENDBRANCH  21  22
ENDBRANCH  20  21
ENDBRANCH   1  20
TORSDOF 7
ENDMDL
