MODEL 1
REMARK VINA RESULT:      -7.2      0.000      0.000
REMARK  Name = 
REMARK  7 active torsions:
REMARK  status: ('A' for Active; 'I' for Inactive)
REMARK    1  A    between atoms: C_1  and  O_2
REMARK    2  A    between atoms: O_2  and  C_3
REMARK    3  A    between atoms: N_9  and  C_10
REMARK    4  A    between atoms: N_9  and  C_11
REMARK    5  A    between atoms: C_12  and  C_13
REMARK    6  A    between atoms: C_12  and  C_14
REMARK    7  A    between atoms: C_16  and  C_17
REMARK                            x       y       z     vdW  Elec       q    Type
REMARK                         _______ _______ _______ _____ _____    ______ ____
ROOT
ATOM      1  C   UNL     1       5.729   4.933  16.635  0.00  0.00    +0.000 A 
ATOM      2  C   UNL     1       5.361   6.273  16.781  0.00  0.00    +0.000 A 
ATOM      3  C   UNL     1       4.377   6.630  17.703  0.00  0.00    +0.000 A 
ATOM      4  C   UNL     1       3.677   5.648  18.434  0.00  0.00    +0.000 A 
ATOM      5  C   UNL     1       4.013   4.279  18.255  0.00  0.00    +0.000 A 
ATOM      6  C   UNL     1       5.096   3.959  17.396  0.00  0.00    +0.000 A 
ATOM      7  N   UNL     1       3.024   3.253  18.600  0.00  0.00    +0.000 NA
ATOM      8  C   UNL     1       2.248   3.267  17.309  0.00  0.00    +0.000 C 
ATOM      9  C   UNL     1       3.584   1.887  18.761  0.00  0.00    +0.000 C 
ATOM     10  C   UNL     1       2.132   3.593  19.795  0.00  0.00    +0.000 C 
ATOM     11  C   UNL     1       0.732   2.875  19.734  0.00  0.00    +0.000 C 
ATOM     12  C   UNL     1       2.733   3.158  21.170  0.00  0.00    +0.000 C 
ATOM     13  C   UNL     1       1.854   5.075  19.946  0.00  0.00    +0.000 C 
ATOM     14  C   UNL     1       2.548   6.029  19.318  0.00  0.00    +0.000 C 
ATOM     15  C   UNL     1       2.201   7.477  19.581  0.00  0.00    +0.000 C 
ENDROOT
BRANCH   1  17
ATOM     16  C   UNL     1       6.263   4.014  14.453  0.00  0.00    +0.000 C 
ATOM     17  O   UNL     1       6.610   4.506  15.692  0.00  0.00    +0.000 OA
ENDBRANCH   1  17
TORSDOF 1
ENDMDL
MODEL 2
REMARK VINA RESULT:      -6.6      1.744      3.009
REMARK  Name = 
REMARK  7 active torsions:
REMARK  status: ('A' for Active; 'I' for Inactive)
REMARK    1  A    between atoms: C_1  and  O_2
REMARK    2  A    between atoms: O_2  and  C_3
REMARK    3  A    between atoms: N_9  and  C_10
REMARK    4  A    between atoms: N_9  and  C_11
REMARK    5  A    between atoms: C_12  and  C_13
REMARK    6  A    between atoms: C_12  and  C_14
REMARK    7  A    between atoms: C_16  and  C_17
REMARK                            x       y       z     vdW  Elec       q    Type
REMARK                         _______ _______ _______ _____ _____    ______ ____
ROOT
ATOM      1  C   UNL     1       5.955   4.085  14.578  0.00  0.00    +0.000 A 
ATOM      2  C   UNL     1       7.118   4.751  14.975  0.00  0.00    +0.000 A 
ATOM      3  C   UNL     1       7.331   5.039  16.323  0.00  0.00    +0.000 A 
ATOM      4  C   UNL     1       6.348   4.749  17.292  0.00  0.00    +0.000 A 
ATOM      5  C   UNL     1       5.142   4.116  16.888  0.00  0.00    +0.000 A 
ATOM      6  C   UNL     1       5.006   3.733  15.528  0.00  0.00    +0.000 A 
ATOM      7  N   UNL     1       3.952   4.246  17.734  0.00  0.00    +0.000 NA
ATOM      8  C   UNL     1       3.469   5.575  17.214  0.00  0.00    +0.000 C 
ATOM      9  C   UNL     1       2.886   3.252  17.456  0.00  0.00    +0.000 C 
ATOM     10  C   UNL     1       4.232   4.300  19.237  0.00  0.00    +0.000 C 
ATOM     11  C   UNL     1       3.121   5.079  20.037  0.00  0.00    +0.000 C 
ATOM     12  C   UNL     1       4.287   2.893  19.915  0.00  0.00    +0.000 C 
ATOM     13  C   UNL     1       5.556   4.950  19.587  0.00  0.00    +0.000 C 
ATOM     14  C   UNL     1       6.531   5.173  18.701  0.00  0.00    +0.000 C 
ATOM     15  C   UNL     1       7.825   5.793  19.181  0.00  0.00    +0.000 C 
ENDROOT
BRANCH   1  17
ATOM     16  C   UNL     1       6.556   3.639  12.269  0.00  0.00    +0.000 C 
ATOM     17  O   UNL     1       5.641   3.858  13.275  0.00  0.00    +0.000 OA
ENDBRANCH   1  17
TORSDOF 1
ENDMDL
MODEL 3
REMARK VINA RESULT:      -6.4      2.207      4.836
REMARK  Name = 
REMARK  7 active torsions:
REMARK  status: ('A' for Active; 'I' for Inactive)
REMARK    1  A    between atoms: C_1  and  O_2
REMARK    2  A    between atoms: O_2  and  C_3
REMARK    3  A    between atoms: N_9  and  C_10
REMARK    4  A    between atoms: N_9  and  C_11
REMARK    5  A    between atoms: C_12  and  C_13
REMARK    6  A    between atoms: C_12  and  C_14
REMARK    7  A    between atoms: C_16  and  C_17
REMARK                            x       y       z     vdW  Elec       q    Type
REMARK                         _______ _______ _______ _____ _____    ______ ____
ROOT
ATOM      1  C   UNL     1       2.530   3.652  19.918  0.00  0.00    +0.000 A 
ATOM      2  C   UNL     1       1.705   4.770  20.066  0.00  0.00    +0.000 A 
ATOM      3  C   UNL     1       1.959   5.926  19.328  0.00  0.00    +0.000 A 
ATOM      4  C   UNL     1       3.092   6.022  18.495  0.00  0.00    +0.000 A 
ATOM      5  C   UNL     1       3.963   4.905  18.378  0.00  0.00    +0.000 A 
ATOM      6  C   UNL     1       3.614   3.706  19.052  0.00  0.00    +0.000 A 
ATOM      7  N   UNL     1       5.346   5.123  17.941  0.00  0.00    +0.000 NA
ATOM      8  C   UNL     1       5.934   5.484  19.281  0.00  0.00    +0.000 C 
ATOM      9  C   UNL     1       6.044   3.901  17.471  0.00  0.00    +0.000 C 
ATOM     10  C   UNL     1       5.531   6.251  16.925  0.00  0.00    +0.000 C 
ATOM     11  C   UNL     1       6.967   6.895  16.984  0.00  0.00    +0.000 C 
ATOM     12  C   UNL     1       5.371   5.790  15.441  0.00  0.00    +0.000 C 
ATOM     13  C   UNL     1       4.538   7.386  17.086  0.00  0.00    +0.000 C 
ATOM     14  C   UNL     1       3.421   7.298  17.813  0.00  0.00    +0.000 C 
ATOM     15  C   UNL     1       2.488   8.487  17.865  0.00  0.00    +0.000 C 
ENDROOT
BRANCH   1  17
ATOM     16  C   UNL     1       1.655   2.440  21.830  0.00  0.00    +0.000 C 
ATOM     17  O   UNL     1       2.397   2.529  20.673  0.00  0.00    +0.000 OA
ENDBRANCH   1  17
TORSDOF 1
ENDMDL
MODEL 4
REMARK VINA RESULT:      -6.0      2.080      4.513
REMARK  Name = 
REMARK  7 active torsions:
REMARK  status: ('A' for Active; 'I' for Inactive)
REMARK    1  A    between atoms: C_1  and  O_2
REMARK    2  A    between atoms: O_2  and  C_3
REMARK    3  A    between atoms: N_9  and  C_10
REMARK    4  A    between atoms: N_9  and  C_11
REMARK    5  A    between atoms: C_12  and  C_13
REMARK    6  A    between atoms: C_12  and  C_14
REMARK    7  A    between atoms: C_16  and  C_17
REMARK                            x       y       z     vdW  Elec       q    Type
REMARK                         _______ _______ _______ _____ _____    ______ ____
ROOT
ATOM      1  C   UNL     1       2.680   2.929  18.618  0.00  0.00    +0.000 A 
ATOM      2  C   UNL     1       1.714   3.849  19.036  0.00  0.00    +0.000 A 
ATOM      3  C   UNL     1       1.856   5.200  18.722  0.00  0.00    +0.000 A 
ATOM      4  C   UNL     1       3.008   5.676  18.062  0.00  0.00    +0.000 A 
ATOM      5  C   UNL     1       4.017   4.752  17.678  0.00  0.00    +0.000 A 
ATOM      6  C   UNL     1       3.789   3.371  17.909  0.00  0.00    +0.000 A 
ATOM      7  N   UNL     1       5.381   5.242  17.452  0.00  0.00    +0.000 NA
ATOM      8  C   UNL     1       5.852   5.214  18.883  0.00  0.00    +0.000 C 
ATOM      9  C   UNL     1       6.250   4.315  16.685  0.00  0.00    +0.000 C 
ATOM     10  C   UNL     1       5.471   6.649  16.860  0.00  0.00    +0.000 C 
ATOM     11  C   UNL     1       6.810   7.386  17.242  0.00  0.00    +0.000 C 
ATOM     12  C   UNL     1       5.444   6.674  15.298  0.00  0.00    +0.000 C 
ATOM     13  C   UNL     1       4.337   7.562  17.281  0.00  0.00    +0.000 C 
ATOM     14  C   UNL     1       3.206   7.130  17.845  0.00  0.00    +0.000 C 
ATOM     15  C   UNL     1       2.128   8.135  18.184  0.00  0.00    +0.000 C 
ENDROOT
BRANCH   1  17
ATOM     16  C   UNL     1       3.746   0.778  18.973  0.00  0.00    +0.000 C 
ATOM     17  O   UNL     1       2.653   1.616  18.970  0.00  0.00    +0.000 OA
ENDBRANCH   1  17
TORSDOF 1
ENDMDL
MODEL 5
REMARK VINA RESULT:      -5.9      2.239      4.686
REMARK  Name = 
REMARK  7 active torsions:
REMARK  status: ('A' for Active; 'I' for Inactive)
REMARK    1  A    between atoms: C_1  and  O_2
REMARK    2  A    between atoms: O_2  and  C_3
REMARK    3  A    between atoms: N_9  and  C_10
REMARK    4  A    between atoms: N_9  and  C_11
REMARK    5  A    between atoms: C_12  and  C_13
REMARK    6  A    between atoms: C_12  and  C_14
REMARK    7  A    between atoms: C_16  and  C_17
REMARK                            x       y       z     vdW  Elec       q    Type
REMARK                         _______ _______ _______ _____ _____    ______ ____
ROOT
ATOM      1  C   UNL     1       3.500   3.182  20.015  0.00  0.00    +0.000 A 
ATOM      2  C   UNL     1       2.460   4.088  20.240  0.00  0.00    +0.000 A 
ATOM      3  C   UNL     1       2.405   5.279  19.517  0.00  0.00    +0.000 A 
ATOM      4  C   UNL     1       3.433   5.633  18.620  0.00  0.00    +0.000 A 
ATOM      5  C   UNL     1       4.520   4.738  18.423  0.00  0.00    +0.000 A 
ATOM      6  C   UNL     1       4.487   3.484  19.087  0.00  0.00    +0.000 A 
ATOM      7  N   UNL     1       5.789   5.262  17.910  0.00  0.00    +0.000 NA
ATOM      8  C   UNL     1       6.368   5.730  19.221  0.00  0.00    +0.000 C 
ATOM      9  C   UNL     1       6.708   4.231  17.368  0.00  0.00    +0.000 C 
ATOM     10  C   UNL     1       5.655   6.415  16.913  0.00  0.00    +0.000 C 
ATOM     11  C   UNL     1       6.915   7.360  16.902  0.00  0.00    +0.000 C 
ATOM     12  C   UNL     1       5.507   5.946  15.430  0.00  0.00    +0.000 C 
ATOM     13  C   UNL     1       4.450   7.299  17.161  0.00  0.00    +0.000 C 
ATOM     14  C   UNL     1       3.429   6.957  17.952  0.00  0.00    +0.000 C 
ATOM     15  C   UNL     1       2.261   7.910  18.089  0.00  0.00    +0.000 C 
ENDROOT
BRANCH   1  17
ATOM     16  C   UNL     1       4.858   1.375  20.899  0.00  0.00    +0.000 C 
ATOM     17  O   UNL     1       3.666   2.049  20.749  0.00  0.00    +0.000 OA
ENDBRANCH   1  17
TORSDOF 1
ENDMDL
MODEL 6
REMARK VINA RESULT:      -5.9      2.185      4.163
REMARK  Name = 
REMARK  7 active torsions:
REMARK  status: ('A' for Active; 'I' for Inactive)
REMARK    1  A    between atoms: C_1  and  O_2
REMARK    2  A    between atoms: O_2  and  C_3
REMARK    3  A    between atoms: N_9  and  C_10
REMARK    4  A    between atoms: N_9  and  C_11
REMARK    5  A    between atoms: C_12  and  C_13
REMARK    6  A    between atoms: C_12  and  C_14
REMARK    7  A    between atoms: C_16  and  C_17
REMARK                            x       y       z     vdW  Elec       q    Type
REMARK                         _______ _______ _______ _____ _____    ______ ____
ROOT
ATOM      1  C   UNL     1       2.383   7.851  18.206  0.00  0.00    +0.000 A 
ATOM      2  C   UNL     1       3.498   8.054  17.388  0.00  0.00    +0.000 A 
ATOM      3  C   UNL     1       4.239   6.962  16.935  0.00  0.00    +0.000 A 
ATOM      4  C   UNL     1       3.937   5.652  17.362  0.00  0.00    +0.000 A 
ATOM      5  C   UNL     1       2.834   5.444  18.234  0.00  0.00    +0.000 A 
ATOM      6  C   UNL     1       2.032   6.562  18.583  0.00  0.00    +0.000 A 
ATOM      7  N   UNL     1       2.795   4.230  19.056  0.00  0.00    +0.000 NA
ATOM      8  C   UNL     1       3.648   4.722  20.197  0.00  0.00    +0.000 C 
ATOM      9  C   UNL     1       1.459   3.906  19.614  0.00  0.00    +0.000 C 
ATOM     10  C   UNL     1       3.400   2.988  18.399  0.00  0.00    +0.000 C 
ATOM     11  C   UNL     1       3.950   1.951  19.449  0.00  0.00    +0.000 C 
ATOM     12  C   UNL     1       2.378   2.172  17.543  0.00  0.00    +0.000 C 
ATOM     13  C   UNL     1       4.541   3.294  17.451  0.00  0.00    +0.000 C 
ATOM     14  C   UNL     1       4.806   4.514  16.977  0.00  0.00    +0.000 C 
ATOM     15  C   UNL     1       5.951   4.687  16.003  0.00  0.00    +0.000 C 
ENDROOT
BRANCH   1  17
ATOM     16  C   UNL     1       1.621  10.155  18.259  0.00  0.00    +0.000 C 
ATOM     17  O   UNL     1       1.675   8.872  18.757  0.00  0.00    +0.000 OA
ENDBRANCH   1  17
TORSDOF 1
ENDMDL
MODEL 7
REMARK VINA RESULT:      -5.7      2.527      5.169
REMARK  Name = 
REMARK  7 active torsions:
REMARK  status: ('A' for Active; 'I' for Inactive)
REMARK    1  A    between atoms: C_1  and  O_2
REMARK    2  A    between atoms: O_2  and  C_3
REMARK    3  A    between atoms: N_9  and  C_10
REMARK    4  A    between atoms: N_9  and  C_11
REMARK    5  A    between atoms: C_12  and  C_13
REMARK    6  A    between atoms: C_12  and  C_14
REMARK    7  A    between atoms: C_16  and  C_17
REMARK                            x       y       z     vdW  Elec       q    Type
REMARK                         _______ _______ _______ _____ _____    ______ ____
ROOT
ATOM      1  C   UNL     1       2.540   7.427  18.599  0.00  0.00    +0.000 A 
ATOM      2  C   UNL     1       1.773   6.259  18.631  0.00  0.00    +0.000 A 
ATOM      3  C   UNL     1       2.348   5.037  18.280  0.00  0.00    +0.000 A 
ATOM      4  C   UNL     1       3.674   4.968  17.805  0.00  0.00    +0.000 A 
ATOM      5  C   UNL     1       4.444   6.160  17.723  0.00  0.00    +0.000 A 
ATOM      6  C   UNL     1       3.867   7.367  18.196  0.00  0.00    +0.000 A 
ATOM      7  N   UNL     1       5.592   6.205  16.811  0.00  0.00    +0.000 NA
ATOM      8  C   UNL     1       4.845   6.560  15.552  0.00  0.00    +0.000 C 
ATOM      9  C   UNL     1       6.549   7.306  17.080  0.00  0.00    +0.000 C 
ATOM     10  C   UNL     1       6.348   4.883  16.661  0.00  0.00    +0.000 C 
ATOM     11  C   UNL     1       7.080   4.755  15.273  0.00  0.00    +0.000 C 
ATOM     12  C   UNL     1       7.480   4.686  17.720  0.00  0.00    +0.000 C 
ATOM     13  C   UNL     1       5.467   3.658  16.804  0.00  0.00    +0.000 C 
ATOM     14  C   UNL     1       4.234   3.685  17.316  0.00  0.00    +0.000 C 
ATOM     15  C   UNL     1       3.468   2.387  17.444  0.00  0.00    +0.000 C 
ENDROOT
BRANCH   1  17
ATOM     16  C   UNL     1       1.474   9.484  17.877  0.00  0.00    +0.000 C 
ATOM     17  O   UNL     1       2.020   8.660  18.837  0.00  0.00    +0.000 OA
ENDBRANCH   1  17
TORSDOF 1
ENDMDL
MODEL 8
REMARK VINA RESULT:      -5.7      2.494      5.039
REMARK  Name = 
REMARK  7 active torsions:
REMARK  status: ('A' for Active; 'I' for Inactive)
REMARK    1  A    between atoms: C_1  and  O_2
REMARK    2  A    between atoms: O_2  and  C_3
REMARK    3  A    between atoms: N_9  and  C_10
REMARK    4  A    between atoms: N_9  and  C_11
REMARK    5  A    between atoms: C_12  and  C_13
REMARK    6  A    between atoms: C_12  and  C_14
REMARK    7  A    between atoms: C_16  and  C_17
REMARK                            x       y       z     vdW  Elec       q    Type
REMARK                         _______ _______ _______ _____ _____    ______ ____
ROOT
ATOM      1  C   UNL     1       2.494   7.941  17.821  0.00  0.00    +0.000 A 
ATOM      2  C   UNL     1       1.741   6.847  18.255  0.00  0.00    +0.000 A 
ATOM      3  C   UNL     1       2.376   5.653  18.595  0.00  0.00    +0.000 A 
ATOM      4  C   UNL     1       3.768   5.497  18.425  0.00  0.00    +0.000 A 
ATOM      5  C   UNL     1       4.533   6.590  17.938  0.00  0.00    +0.000 A 
ATOM      6  C   UNL     1       3.873   7.826  17.710  0.00  0.00    +0.000 A 
ATOM      7  N   UNL     1       5.830   6.326  17.306  0.00  0.00    +0.000 NA
ATOM      8  C   UNL     1       5.327   6.015  15.920  0.00  0.00    +0.000 C 
ATOM      9  C   UNL     1       6.716   7.511  17.197  0.00  0.00    +0.000 C 
ATOM     10  C   UNL     1       6.607   5.148  17.897  0.00  0.00    +0.000 C 
ATOM     11  C   UNL     1       7.584   4.480  16.859  0.00  0.00    +0.000 C 
ATOM     12  C   UNL     1       7.525   5.544  19.098  0.00  0.00    +0.000 C 
ATOM     13  C   UNL     1       5.722   4.042  18.436  0.00  0.00    +0.000 C 
ATOM     14  C   UNL     1       4.415   4.185  18.671  0.00  0.00    +0.000 C 
ATOM     15  C   UNL     1       3.645   3.018  19.248  0.00  0.00    +0.000 C 
ENDROOT
BRANCH   1  17
ATOM     16  C   UNL     1       1.079   9.889  18.122  0.00  0.00    +0.000 C 
ATOM     17  O   UNL     1       1.933   9.099  17.384  0.00  0.00    +0.000 OA
ENDBRANCH   1  17
TORSDOF 1
ENDMDL
MODEL 9
REMARK VINA RESULT:      -5.6      6.810      9.652
REMARK  Name = 
REMARK  7 active torsions:
REMARK  status: ('A' for Active; 'I' for Inactive)
REMARK    1  A    between atoms: C_1  and  O_2
REMARK    2  A    between atoms: O_2  and  C_3
REMARK    3  A    between atoms: N_9  and  C_10
REMARK    4  A    between atoms: N_9  and  C_11
REMARK    5  A    between atoms: C_12  and  C_13
REMARK    6  A    between atoms: C_12  and  C_14
REMARK    7  A    between atoms: C_16  and  C_17
REMARK                            x       y       z     vdW  Elec       q    Type
REMARK                         _______ _______ _______ _____ _____    ______ ____
ROOT
ATOM      1  C   UNL     1      -3.611  11.001  17.283  0.00  0.00    +0.000 A 
ATOM      2  C   UNL     1      -2.812  10.105  16.567  0.00  0.00    +0.000 A 
ATOM      3  C   UNL     1      -1.547   9.763  17.046  0.00  0.00    +0.000 A 
ATOM      4  C   UNL     1      -1.017  10.375  18.200  0.00  0.00    +0.000 A 
ATOM      5  C   UNL     1      -1.806  11.324  18.906  0.00  0.00    +0.000 A 
ATOM      6  C   UNL     1      -3.131  11.563  18.458  0.00  0.00    +0.000 A 
ATOM      7  N   UNL     1      -1.138  12.300  19.773  0.00  0.00    +0.000 NA
ATOM      8  C   UNL     1      -0.796  13.319  18.716  0.00  0.00    +0.000 C 
ATOM      9  C   UNL     1      -2.031  12.967  20.752  0.00  0.00    +0.000 C 
ATOM     10  C   UNL     1       0.116  11.783  20.480  0.00  0.00    +0.000 C 
ATOM     11  C   UNL     1       1.139  12.931  20.823  0.00  0.00    +0.000 C 
ATOM     12  C   UNL     1      -0.177  11.098  21.853  0.00  0.00    +0.000 C 
ATOM     13  C   UNL     1       0.880  10.743  19.685  0.00  0.00    +0.000 C 
ATOM     14  C   UNL     1       0.376  10.098  18.629  0.00  0.00    +0.000 C 
ATOM     15  C   UNL     1       1.223   9.051  17.941  0.00  0.00    +0.000 C 
ENDROOT
BRANCH   1  17
ATOM     16  C   UNL     1      -5.789  12.020  17.611  0.00  0.00    +0.000 C 
ATOM     17  O   UNL     1      -4.811  11.449  16.827  0.00  0.00    +0.000 OA
ENDBRANCH   1  17
TORSDOF 1
ENDMDL
