MODEL 1
REMARK VINA RESULT:      -7.7      0.000      0.000
REMARK  Name = 
REMARK  6 active torsions:
REMARK  status: ('A' for Active; 'I' for Inactive)
REMARK    1  A    between atoms: C_1  and  C_2
REMARK    2  A    between atoms: C_2  and  N_3
REMARK    3  A    between atoms: C_5  and  C_6
REMARK    4  A    between atoms: C_8  and  C_9
REMARK    5  A    between atoms: C_14  and  C_15
REMARK    6  A    between atoms: C_15  and  C_16
REMARK                            x       y       z     vdW  Elec       q    Type
REMARK                         _______ _______ _______ _____ _____    ______ ____
ROOT
ATOM      1  C   UNL     1       1.065   9.810  19.194  0.00  0.00    +0.000 A 
ATOM      2  N   UNL     1       1.492  10.330  18.045  0.00  0.00    +0.000 NA
ATOM      3  N   UNL     1       2.323   9.442  17.402  0.00  0.00    +0.000 NA
ATOM      4  C   UNL     1       2.370   8.406  18.183  0.00  0.00    +0.000 A 
ATOM      5  S   UNL     1       3.193   6.921  18.151  0.00  0.00    +0.000 S 
ATOM      6  C   UNL     1       2.458   6.612  19.746  0.00  0.00    +0.000 A 
ATOM      7  N   UNL     1       1.650   7.524  20.241  0.00  0.00    +0.000 NA
ATOM      8  N   UNL     1       1.625   8.548  19.311  0.00  0.00    +0.000 N 
ENDROOT
BRANCH   1  14
ATOM      9  N   UNL     1      -0.949  11.200  19.652  0.00  0.00    +0.000 N 
ATOM     10  N   UNL     1      -1.603  11.823  20.651  0.00  0.00    +0.000 NA
ATOM     11  C   UNL     1      -0.896  11.560  21.745  0.00  0.00    +0.000 A 
ATOM     12  C   UNL     1      -1.347  12.108  23.047  0.00  0.00    +0.000 C 
ATOM     13  C   UNL     1       0.240  10.759  21.440  0.00  0.00    +0.000 A 
ATOM     14  C   UNL     1       0.196  10.543  20.074  0.00  0.00    +0.000 A 
BRANCH   9  16
ATOM     15  C   UNL     1      -2.408  10.151  17.961  0.00  0.00    +0.000 C 
ATOM     16  C   UNL     1      -1.525  11.331  18.324  0.00  0.00    +0.000 C 
ENDBRANCH   9  16
ENDBRANCH   1  14
BRANCH   6  17
ATOM     17  C   UNL     1       2.892   5.333  20.425  0.00  0.00    +0.000 C 
BRANCH  17  18
ATOM     18  C   UNL     1       2.637   4.065  19.641  0.00  0.00    +0.000 A 
ATOM     19  C   UNL     1       1.342   3.524  19.590  0.00  0.00    +0.000 A 
ATOM     20  F   UNL     1       0.342   4.130  20.245  0.00  0.00    +0.000 F 
ATOM     21  C   UNL     1       1.041   2.379  18.851  0.00  0.00    +0.000 A 
ATOM     22  C   UNL     1       2.043   1.746  18.127  0.00  0.00    +0.000 A 
ATOM     23  C   UNL     1       3.339   2.260  18.157  0.00  0.00    +0.000 A 
ATOM     24  C   UNL     1       3.637   3.403  18.913  0.00  0.00    +0.000 A 
ATOM     25 CL   UNL     1       5.265   3.975  18.883  0.00  0.00    +0.000 Cl
ENDBRANCH  17  18
ENDBRANCH   6  17
TORSDOF 4
ENDMDL
MODEL 2
REMARK VINA RESULT:      -7.7      1.221      1.615
REMARK  Name = 
REMARK  6 active torsions:
REMARK  status: ('A' for Active; 'I' for Inactive)
REMARK    1  A    between atoms: C_1  and  C_2
REMARK    2  A    between atoms: C_2  and  N_3
REMARK    3  A    between atoms: C_5  and  C_6
REMARK    4  A    between atoms: C_8  and  C_9
REMARK    5  A    between atoms: C_14  and  C_15
REMARK    6  A    between atoms: C_15  and  C_16
REMARK                            x       y       z     vdW  Elec       q    Type
REMARK                         _______ _______ _______ _____ _____    ______ ____
ROOT
ATOM      1  C   UNL     1       1.095   9.991  19.511  0.00  0.00    +0.000 A 
ATOM      2  N   UNL     1       1.342  10.467  18.293  0.00  0.00    +0.000 NA
ATOM      3  N   UNL     1       1.979   9.514  17.531  0.00  0.00    +0.000 NA
ATOM      4  C   UNL     1       2.094   8.486  18.315  0.00  0.00    +0.000 A 
ATOM      5  S   UNL     1       2.792   6.945  18.170  0.00  0.00    +0.000 S 
ATOM      6  C   UNL     1       2.338   6.706  19.877  0.00  0.00    +0.000 A 
ATOM      7  N   UNL     1       1.699   7.679  20.489  0.00  0.00    +0.000 NA
ATOM      8  N   UNL     1       1.578   8.693  19.555  0.00  0.00    +0.000 N 
ENDROOT
BRANCH   1  14
ATOM      9  N   UNL     1       0.887  12.058  20.882  0.00  0.00    +0.000 N 
ATOM     10  N   UNL     1       0.135  12.620  21.849  0.00  0.00    +0.000 NA
ATOM     11  C   UNL     1      -0.815  11.727  22.110  0.00  0.00    +0.000 A 
ATOM     12  C   UNL     1      -1.830  12.033  23.147  0.00  0.00    +0.000 C 
ATOM     13  C   UNL     1      -0.664  10.567  21.302  0.00  0.00    +0.000 A 
ATOM     14  C   UNL     1       0.453  10.794  20.516  0.00  0.00    +0.000 A 
BRANCH   9  16
ATOM     15  C   UNL     1       1.596  13.898  19.398  0.00  0.00    +0.000 C 
ATOM     16  C   UNL     1       2.014  12.843  20.406  0.00  0.00    +0.000 C 
ENDBRANCH   9  16
ENDBRANCH   1  14
BRANCH   6  17
ATOM     17  C   UNL     1       2.797   5.406  20.497  0.00  0.00    +0.000 C 
BRANCH  17  18
ATOM     18  C   UNL     1       2.671   4.186  19.612  0.00  0.00    +0.000 A 
ATOM     19  C   UNL     1       1.420   3.569  19.447  0.00  0.00    +0.000 A 
ATOM     20  F   UNL     1       0.348   4.059  20.086  0.00  0.00    +0.000 F 
ATOM     21  C   UNL     1       1.237   2.466  18.613  0.00  0.00    +0.000 A 
ATOM     22  C   UNL     1       2.316   1.954  17.904  0.00  0.00    +0.000 A 
ATOM     23  C   UNL     1       3.571   2.546  18.045  0.00  0.00    +0.000 A 
ATOM     24  C   UNL     1       3.750   3.646  18.897  0.00  0.00    +0.000 A 
ATOM     25 CL   UNL     1       5.335   4.322  19.000  0.00  0.00    +0.000 Cl
ENDBRANCH  17  18
ENDBRANCH   6  17
TORSDOF 4
ENDMDL
MODEL 3
REMARK VINA RESULT:      -7.6      1.900      2.474
REMARK  Name = 
REMARK  6 active torsions:
REMARK  status: ('A' for Active; 'I' for Inactive)
REMARK    1  A    between atoms: C_1  and  C_2
REMARK    2  A    between atoms: C_2  and  N_3
REMARK    3  A    between atoms: C_5  and  C_6
REMARK    4  A    between atoms: C_8  and  C_9
REMARK    5  A    between atoms: C_14  and  C_15
REMARK    6  A    between atoms: C_15  and  C_16
REMARK                            x       y       z     vdW  Elec       q    Type
REMARK                         _______ _______ _______ _____ _____    ______ ____
ROOT
ATOM      1  C   UNL     1       0.727  10.028  20.327  0.00  0.00    +0.000 A 
ATOM      2  N   UNL     1       0.252   9.712  21.530  0.00  0.00    +0.000 NA
ATOM      3  N   UNL     1       0.598   8.421  21.853  0.00  0.00    +0.000 NA
ATOM      4  C   UNL     1       1.279   7.995  20.834  0.00  0.00    +0.000 A 
ATOM      5  S   UNL     1       2.012   6.520  20.417  0.00  0.00    +0.000 S 
ATOM      6  C   UNL     1       2.420   7.295  18.864  0.00  0.00    +0.000 A 
ATOM      7  N   UNL     1       2.065   8.549  18.687  0.00  0.00    +0.000 NA
ATOM      8  N   UNL     1       1.406   8.919  19.845  0.00  0.00    +0.000 N 
ENDROOT
BRANCH   1  14
ATOM      9  N   UNL     1      -0.639  11.625  18.992  0.00  0.00    +0.000 N 
ATOM     10  N   UNL     1      -0.646  12.892  18.536  0.00  0.00    +0.000 NA
ATOM     11  C   UNL     1       0.477  13.432  19.000  0.00  0.00    +0.000 A 
ATOM     12  C   UNL     1       0.787  14.845  18.675  0.00  0.00    +0.000 C 
ATOM     13  C   UNL     1       1.222  12.490  19.761  0.00  0.00    +0.000 A 
ATOM     14  C   UNL     1       0.488  11.317  19.738  0.00  0.00    +0.000 A 
BRANCH   9  16
ATOM     15  C   UNL     1      -1.519   9.997  17.359  0.00  0.00    +0.000 C 
ATOM     16  C   UNL     1      -1.777  10.800  18.621  0.00  0.00    +0.000 C 
ENDBRANCH   9  16
ENDBRANCH   1  14
BRANCH   6  17
ATOM     17  C   UNL     1       3.094   6.401  17.848  0.00  0.00    +0.000 C 
BRANCH  17  18
ATOM     18  C   UNL     1       3.107   4.928  18.190  0.00  0.00    +0.000 A 
ATOM     19  C   UNL     1       2.017   4.117  17.832  0.00  0.00    +0.000 A 
ATOM     20  F   UNL     1       0.967   4.658  17.198  0.00  0.00    +0.000 F 
ATOM     21  C   UNL     1       1.993   2.746  18.086  0.00  0.00    +0.000 A 
ATOM     22  C   UNL     1       3.080   2.142  18.705  0.00  0.00    +0.000 A 
ATOM     23  C   UNL     1       4.178   2.920  19.072  0.00  0.00    +0.000 A 
ATOM     24  C   UNL     1       4.189   4.301  18.825  0.00  0.00    +0.000 A 
ATOM     25 CL   UNL     1       5.594   5.183  19.302  0.00  0.00    +0.000 Cl
ENDBRANCH  17  18
ENDBRANCH   6  17
TORSDOF 4
ENDMDL
MODEL 4
REMARK VINA RESULT:      -7.6      4.087      8.120
REMARK  Name = 
REMARK  6 active torsions:
REMARK  status: ('A' for Active; 'I' for Inactive)
REMARK    1  A    between atoms: C_1  and  C_2
REMARK    2  A    between atoms: C_2  and  N_3
REMARK    3  A    between atoms: C_5  and  C_6
REMARK    4  A    between atoms: C_8  and  C_9
REMARK    5  A    between atoms: C_14  and  C_15
REMARK    6  A    between atoms: C_15  and  C_16
REMARK                            x       y       z     vdW  Elec       q    Type
REMARK                         _______ _______ _______ _____ _____    ______ ____
ROOT
ATOM      1  C   UNL     1       4.111   4.116  17.516  0.00  0.00    +0.000 A 
ATOM      2  N   UNL     1       3.606   2.890  17.623  0.00  0.00    +0.000 NA
ATOM      3  N   UNL     1       2.579   2.877  18.538  0.00  0.00    +0.000 NA
ATOM      4  C   UNL     1       2.491   4.103  18.954  0.00  0.00    +0.000 A 
ATOM      5  S   UNL     1       1.532   4.911  20.101  0.00  0.00    +0.000 S 
ATOM      6  C   UNL     1       2.497   6.360  19.715  0.00  0.00    +0.000 A 
ATOM      7  N   UNL     1       3.430   6.254  18.793  0.00  0.00    +0.000 NA
ATOM      8  N   UNL     1       3.399   4.935  18.379  0.00  0.00    +0.000 N 
ENDROOT
BRANCH   1  14
ATOM      9  N   UNL     1       6.461   4.814  17.082  0.00  0.00    +0.000 N 
ATOM     10  N   UNL     1       7.337   5.028  16.082  0.00  0.00    +0.000 NA
ATOM     11  C   UNL     1       6.669   4.737  14.969  0.00  0.00    +0.000 A 
ATOM     12  C   UNL     1       7.353   4.870  13.660  0.00  0.00    +0.000 C 
ATOM     13  C   UNL     1       5.336   4.337  15.262  0.00  0.00    +0.000 A 
ATOM     14  C   UNL     1       5.214   4.402  16.639  0.00  0.00    +0.000 A 
BRANCH   9  16
ATOM     15  C   UNL     1       7.729   6.360  18.528  0.00  0.00    +0.000 C 
ATOM     16  C   UNL     1       6.948   5.062  18.429  0.00  0.00    +0.000 C 
ENDBRANCH   9  16
ENDBRANCH   1  14
BRANCH   6  17
ATOM     17  C   UNL     1       2.192   7.585  20.546  0.00  0.00    +0.000 C 
BRANCH  17  18
ATOM     18  C   UNL     1       1.299   8.611  19.883  0.00  0.00    +0.000 A 
ATOM     19  C   UNL     1       1.634   9.112  18.614  0.00  0.00    +0.000 A 
ATOM     20  F   UNL     1       2.748   8.685  18.004  0.00  0.00    +0.000 F 
ATOM     21  C   UNL     1       0.828  10.030  17.939  0.00  0.00    +0.000 A 
ATOM     22  C   UNL     1      -0.355  10.465  18.523  0.00  0.00    +0.000 A 
ATOM     23  C   UNL     1      -0.715   9.985  19.782  0.00  0.00    +0.000 A 
ATOM     24  C   UNL     1       0.107   9.073  20.460  0.00  0.00    +0.000 A 
ATOM     25 CL   UNL     1      -0.423   8.523  22.008  0.00  0.00    +0.000 Cl
ENDBRANCH  17  18
ENDBRANCH   6  17
TORSDOF 4
ENDMDL
MODEL 5
REMARK VINA RESULT:      -7.5      5.938      8.422
REMARK  Name = 
REMARK  6 active torsions:
REMARK  status: ('A' for Active; 'I' for Inactive)
REMARK    1  A    between atoms: C_1  and  C_2
REMARK    2  A    between atoms: C_2  and  N_3
REMARK    3  A    between atoms: C_5  and  C_6
REMARK    4  A    between atoms: C_8  and  C_9
REMARK    5  A    between atoms: C_14  and  C_15
REMARK    6  A    between atoms: C_15  and  C_16
REMARK                            x       y       z     vdW  Elec       q    Type
REMARK                         _______ _______ _______ _____ _____    ______ ____
ROOT
ATOM      1  C   UNL     1       6.780   5.123  15.521  0.00  0.00    +0.000 A 
ATOM      2  N   UNL     1       7.491   6.243  15.623  0.00  0.00    +0.000 NA
ATOM      3  N   UNL     1       7.559   6.644  16.937  0.00  0.00    +0.000 NA
ATOM      4  C   UNL     1       6.888   5.748  17.593  0.00  0.00    +0.000 A 
ATOM      5  S   UNL     1       6.454   5.532  19.220  0.00  0.00    +0.000 S 
ATOM      6  C   UNL     1       5.546   4.100  18.668  0.00  0.00    +0.000 A 
ATOM      7  N   UNL     1       5.587   3.798  17.388  0.00  0.00    +0.000 NA
ATOM      8  N   UNL     1       6.370   4.774  16.798  0.00  0.00    +0.000 N 
ENDROOT
BRANCH   1  14
ATOM      9  N   UNL     1       7.277   4.768  13.107  0.00  0.00    +0.000 N 
ATOM     10  N   UNL     1       6.866   4.070  12.031  0.00  0.00    +0.000 NA
ATOM     11  C   UNL     1       5.858   3.322  12.468  0.00  0.00    +0.000 A 
ATOM     12  C   UNL     1       5.164   2.419  11.518  0.00  0.00    +0.000 C 
ATOM     13  C   UNL     1       5.612   3.550  13.850  0.00  0.00    +0.000 A 
ATOM     14  C   UNL     1       6.536   4.500  14.248  0.00  0.00    +0.000 A 
BRANCH   9  16
ATOM     15  C   UNL     1       8.252   6.470  11.611  0.00  0.00    +0.000 C 
ATOM     16  C   UNL     1       8.390   5.679  12.899  0.00  0.00    +0.000 C 
ENDBRANCH   9  16
ENDBRANCH   1  14
BRANCH   6  17
ATOM     17  C   UNL     1       4.742   3.389  19.732  0.00  0.00    +0.000 C 
BRANCH  17  18
ATOM     18  C   UNL     1       3.282   3.168  19.402  0.00  0.00    +0.000 A 
ATOM     19  C   UNL     1       2.887   2.001  18.728  0.00  0.00    +0.000 A 
ATOM     20  F   UNL     1       3.809   1.095  18.373  0.00  0.00    +0.000 F 
ATOM     21  C   UNL     1       1.552   1.727  18.433  0.00  0.00    +0.000 A 
ATOM     22  C   UNL     1       0.564   2.623  18.821  0.00  0.00    +0.000 A 
ATOM     23  C   UNL     1       0.925   3.791  19.493  0.00  0.00    +0.000 A 
ATOM     24  C   UNL     1       2.271   4.066  19.774  0.00  0.00    +0.000 A 
ATOM     25 CL   UNL     1       2.624   5.529  20.619  0.00  0.00    +0.000 Cl
ENDBRANCH  17  18
ENDBRANCH   6  17
TORSDOF 4
ENDMDL
MODEL 6
REMARK VINA RESULT:      -7.4      3.615      5.259
REMARK  Name = 
REMARK  6 active torsions:
REMARK  status: ('A' for Active; 'I' for Inactive)
REMARK    1  A    between atoms: C_1  and  C_2
REMARK    2  A    between atoms: C_2  and  N_3
REMARK    3  A    between atoms: C_5  and  C_6
REMARK    4  A    between atoms: C_8  and  C_9
REMARK    5  A    between atoms: C_14  and  C_15
REMARK    6  A    between atoms: C_15  and  C_16
REMARK                            x       y       z     vdW  Elec       q    Type
REMARK                         _______ _______ _______ _____ _____    ______ ____
ROOT
ATOM      1  C   UNL     1       1.739   5.636  20.423  0.00  0.00    +0.000 A 
ATOM      2  N   UNL     1       0.888   4.632  20.625  0.00  0.00    +0.000 NA
ATOM      3  N   UNL     1       1.473   3.436  20.280  0.00  0.00    +0.000 NA
ATOM      4  C   UNL     1       2.667   3.754  19.883  0.00  0.00    +0.000 A 
ATOM      5  S   UNL     1       3.988   2.890  19.256  0.00  0.00    +0.000 S 
ATOM      6  C   UNL     1       4.791   4.472  19.080  0.00  0.00    +0.000 A 
ATOM      7  N   UNL     1       4.140   5.543  19.480  0.00  0.00    +0.000 NA
ATOM      8  N   UNL     1       2.916   5.089  19.935  0.00  0.00    +0.000 N 
ENDROOT
BRANCH   1  14
ATOM      9  N   UNL     1       1.617   8.045  19.807  0.00  0.00    +0.000 N 
ATOM     10  N   UNL     1       1.188   9.237  20.265  0.00  0.00    +0.000 NA
ATOM     11  C   UNL     1       0.634   8.975  21.445  0.00  0.00    +0.000 A 
ATOM     12  C   UNL     1       0.053  10.088  22.233  0.00  0.00    +0.000 C 
ATOM     13  C   UNL     1       0.718   7.589  21.754  0.00  0.00    +0.000 A 
ATOM     14  C   UNL     1       1.369   7.000  20.684  0.00  0.00    +0.000 A 
BRANCH   9  16
ATOM     15  C   UNL     1       1.868   9.247  17.667  0.00  0.00    +0.000 C 
ATOM     16  C   UNL     1       2.272   8.051  18.509  0.00  0.00    +0.000 C 
ENDBRANCH   9  16
ENDBRANCH   1  14
BRANCH   6  17
ATOM     17  C   UNL     1       6.147   4.443  18.414  0.00  0.00    +0.000 C 
BRANCH  17  18
ATOM     18  C   UNL     1       6.790   5.794  18.194  0.00  0.00    +0.000 A 
ATOM     19  C   UNL     1       7.822   6.223  19.044  0.00  0.00    +0.000 A 
ATOM     20  F   UNL     1       8.224   5.436  20.052  0.00  0.00    +0.000 F 
ATOM     21  C   UNL     1       8.477   7.442  18.864  0.00  0.00    +0.000 A 
ATOM     22  C   UNL     1       8.117   8.267  17.807  0.00  0.00    +0.000 A 
ATOM     23  C   UNL     1       7.096   7.868  16.944  0.00  0.00    +0.000 A 
ATOM     24  C   UNL     1       6.432   6.647  17.139  0.00  0.00    +0.000 A 
ATOM     25 CL   UNL     1       5.190   6.229  16.017  0.00  0.00    +0.000 Cl
ENDBRANCH  17  18
ENDBRANCH   6  17
TORSDOF 4
ENDMDL
MODEL 7
REMARK VINA RESULT:      -7.3      5.278      8.534
REMARK  Name = 
REMARK  6 active torsions:
REMARK  status: ('A' for Active; 'I' for Inactive)
REMARK    1  A    between atoms: C_1  and  C_2
REMARK    2  A    between atoms: C_2  and  N_3
REMARK    3  A    between atoms: C_5  and  C_6
REMARK    4  A    between atoms: C_8  and  C_9
REMARK    5  A    between atoms: C_14  and  C_15
REMARK    6  A    between atoms: C_15  and  C_16
REMARK                            x       y       z     vdW  Elec       q    Type
REMARK                         _______ _______ _______ _____ _____    ______ ____
ROOT
ATOM      1  C   UNL     1       6.486   5.036  15.183  0.00  0.00    +0.000 A 
ATOM      2  N   UNL     1       7.563   5.688  15.617  0.00  0.00    +0.000 NA
ATOM      3  N   UNL     1       7.290   6.312  16.813  0.00  0.00    +0.000 NA
ATOM      4  C   UNL     1       6.054   6.012  17.069  0.00  0.00    +0.000 A 
ATOM      5  S   UNL     1       4.957   6.415  18.301  0.00  0.00    +0.000 S 
ATOM      6  C   UNL     1       3.753   5.482  17.375  0.00  0.00    +0.000 A 
ATOM      7  N   UNL     1       4.145   4.900  16.262  0.00  0.00    +0.000 NA
ATOM      8  N   UNL     1       5.480   5.231  16.116  0.00  0.00    +0.000 N 
ENDROOT
BRANCH   1  14
ATOM      9  N   UNL     1       7.323   4.627  12.875  0.00  0.00    +0.000 N 
ATOM     10  N   UNL     1       7.153   3.817  11.812  0.00  0.00    +0.000 NA
ATOM     11  C   UNL     1       6.217   2.950  12.185  0.00  0.00    +0.000 A 
ATOM     12  C   UNL     1       5.782   1.901  11.231  0.00  0.00    +0.000 C 
ATOM     13  C   UNL     1       5.772   3.214  13.510  0.00  0.00    +0.000 A 
ATOM     14  C   UNL     1       6.494   4.314  13.940  0.00  0.00    +0.000 A 
BRANCH   9  16
ATOM     15  C   UNL     1       8.116   6.481  11.452  0.00  0.00    +0.000 C 
ATOM     16  C   UNL     1       8.311   5.683  12.728  0.00  0.00    +0.000 C 
ENDBRANCH   9  16
ENDBRANCH   1  14
BRANCH   6  17
ATOM     17  C   UNL     1       2.347   5.499  17.931  0.00  0.00    +0.000 C 
BRANCH  17  18
ATOM     18  C   UNL     1       2.062   4.470  19.002  0.00  0.00    +0.000 A 
ATOM     19  C   UNL     1       2.003   3.108  18.664  0.00  0.00    +0.000 A 
ATOM     20  F   UNL     1       2.190   2.730  17.392  0.00  0.00    +0.000 F 
ATOM     21  C   UNL     1       1.783   2.112  19.617  0.00  0.00    +0.000 A 
ATOM     22  C   UNL     1       1.624   2.462  20.951  0.00  0.00    +0.000 A 
ATOM     23  C   UNL     1       1.678   3.806  21.319  0.00  0.00    +0.000 A 
ATOM     24  C   UNL     1       1.887   4.803  20.354  0.00  0.00    +0.000 A 
ATOM     25 CL   UNL     1       1.951   6.438  20.900  0.00  0.00    +0.000 Cl
ENDBRANCH  17  18
ENDBRANCH   6  17
TORSDOF 4
ENDMDL
MODEL 8
REMARK VINA RESULT:      -7.3      3.890      8.004
REMARK  Name = 
REMARK  6 active torsions:
REMARK  status: ('A' for Active; 'I' for Inactive)
REMARK    1  A    between atoms: C_1  and  C_2
REMARK    2  A    between atoms: C_2  and  N_3
REMARK    3  A    between atoms: C_5  and  C_6
REMARK    4  A    between atoms: C_8  and  C_9
REMARK    5  A    between atoms: C_14  and  C_15
REMARK    6  A    between atoms: C_15  and  C_16
REMARK                            x       y       z     vdW  Elec       q    Type
REMARK                         _______ _______ _______ _____ _____    ______ ____
ROOT
ATOM      1  C   UNL     1       4.076   4.044  17.437  0.00  0.00    +0.000 A 
ATOM      2  N   UNL     1       3.533   2.831  17.518  0.00  0.00    +0.000 NA
ATOM      3  N   UNL     1       2.513   2.828  18.441  0.00  0.00    +0.000 NA
ATOM      4  C   UNL     1       2.466   4.046  18.887  0.00  0.00    +0.000 A 
ATOM      5  S   UNL     1       1.542   4.854  20.061  0.00  0.00    +0.000 S 
ATOM      6  C   UNL     1       2.548   6.282  19.702  0.00  0.00    +0.000 A 
ATOM      7  N   UNL     1       3.471   6.170  18.771  0.00  0.00    +0.000 NA
ATOM      8  N   UNL     1       3.396   4.863  18.325  0.00  0.00    +0.000 N 
ENDROOT
BRANCH   1  14
ATOM      9  N   UNL     1       6.446   4.668  17.002  0.00  0.00    +0.000 N 
ATOM     10  N   UNL     1       7.321   4.881  16.000  0.00  0.00    +0.000 NA
ATOM     11  C   UNL     1       6.632   4.652  14.886  0.00  0.00    +0.000 A 
ATOM     12  C   UNL     1       7.308   4.803  13.575  0.00  0.00    +0.000 C 
ATOM     13  C   UNL     1       5.288   4.293  15.179  0.00  0.00    +0.000 A 
ATOM     14  C   UNL     1       5.181   4.317  16.559  0.00  0.00    +0.000 A 
BRANCH   9  16
ATOM     15  C   UNL     1       7.659   6.186  18.523  0.00  0.00    +0.000 C 
ATOM     16  C   UNL     1       6.955   4.853  18.351  0.00  0.00    +0.000 C 
ENDBRANCH   9  16
ENDBRANCH   1  14
BRANCH   6  17
ATOM     17  C   UNL     1       2.287   7.496  20.565  0.00  0.00    +0.000 C 
BRANCH  17  18
ATOM     18  C   UNL     1       1.298   8.491  20.000  0.00  0.00    +0.000 A 
ATOM     19  C   UNL     1       0.202   8.904  20.775  0.00  0.00    +0.000 A 
ATOM     20  F   UNL     1       0.035   8.405  22.008  0.00  0.00    +0.000 F 
ATOM     21  C   UNL     1      -0.719   9.849  20.321  0.00  0.00    +0.000 A 
ATOM     22  C   UNL     1      -0.556  10.418  19.065  0.00  0.00    +0.000 A 
ATOM     23  C   UNL     1       0.523  10.029  18.271  0.00  0.00    +0.000 A 
ATOM     24  C   UNL     1       1.437   9.068  18.729  0.00  0.00    +0.000 A 
ATOM     25 CL   UNL     1       2.748   8.656  17.685  0.00  0.00    +0.000 Cl
ENDBRANCH  17  18
ENDBRANCH   6  17
TORSDOF 4
ENDMDL
MODEL 9
REMARK VINA RESULT:      -7.3      4.205      8.422
REMARK  Name = 
REMARK  6 active torsions:
REMARK  status: ('A' for Active; 'I' for Inactive)
REMARK    1  A    between atoms: C_1  and  C_2
REMARK    2  A    between atoms: C_2  and  N_3
REMARK    3  A    between atoms: C_5  and  C_6
REMARK    4  A    between atoms: C_8  and  C_9
REMARK    5  A    between atoms: C_14  and  C_15
REMARK    6  A    between atoms: C_15  and  C_16
REMARK                            x       y       z     vdW  Elec       q    Type
REMARK                         _______ _______ _______ _____ _____    ______ ____
ROOT
ATOM      1  C   UNL     1       4.542   5.895  18.014  0.00  0.00    +0.000 A 
ATOM      2  N   UNL     1       4.635   5.192  19.140  0.00  0.00    +0.000 NA
ATOM      3  N   UNL     1       3.669   5.594  20.033  0.00  0.00    +0.000 NA
ATOM      4  C   UNL     1       3.014   6.529  19.414  0.00  0.00    +0.000 A 
ATOM      5  S   UNL     1       1.727   7.559  19.822  0.00  0.00    +0.000 S 
ATOM      6  C   UNL     1       1.960   8.297  18.216  0.00  0.00    +0.000 A 
ATOM      7  N   UNL     1       2.896   7.799  17.437  0.00  0.00    +0.000 NA
ATOM      8  N   UNL     1       3.486   6.781  18.164  0.00  0.00    +0.000 N 
ENDROOT
BRANCH   1  14
ATOM      9  N   UNL     1       6.776   6.093  16.934  0.00  0.00    +0.000 N 
ATOM     10  N   UNL     1       7.435   5.797  15.797  0.00  0.00    +0.000 NA
ATOM     11  C   UNL     1       6.543   5.173  15.032  0.00  0.00    +0.000 A 
ATOM     12  C   UNL     1       6.948   4.706  13.685  0.00  0.00    +0.000 C 
ATOM     13  C   UNL     1       5.285   5.076  15.689  0.00  0.00    +0.000 A 
ATOM     14  C   UNL     1       5.450   5.687  16.919  0.00  0.00    +0.000 A 
BRANCH   9  16
ATOM     15  C   UNL     1       7.780   8.245  17.604  0.00  0.00    +0.000 C 
ATOM     16  C   UNL     1       7.537   6.789  17.958  0.00  0.00    +0.000 C 
ENDBRANCH   9  16
ENDBRANCH   1  14
BRANCH   6  17
ATOM     17  C   UNL     1       1.087   9.494  17.917  0.00  0.00    +0.000 C 
BRANCH  17  18
ATOM     18  C   UNL     1       1.281  10.682  18.832  0.00  0.00    +0.000 A 
ATOM     19  C   UNL     1       2.185  11.697  18.478  0.00  0.00    +0.000 A 
ATOM     20  F   UNL     1       2.878  11.599  17.334  0.00  0.00    +0.000 F 
ATOM     21  C   UNL     1       2.376  12.834  19.263  0.00  0.00    +0.000 A 
ATOM     22  C   UNL     1       1.646  12.989  20.435  0.00  0.00    +0.000 A 
ATOM     23  C   UNL     1       0.739  11.999  20.813  0.00  0.00    +0.000 A 
ATOM     24  C   UNL     1       0.563  10.852  20.025  0.00  0.00    +0.000 A 
ATOM     25 CL   UNL     1      -0.588   9.686  20.565  0.00  0.00    +0.000 Cl
ENDBRANCH  17  18
ENDBRANCH   6  17
TORSDOF 4
ENDMDL
