MODEL 1
REMARK VINA RESULT:      -8.7      0.000      0.000
REMARK  Name = 
REMARK  7 active torsions:
REMARK  status: ('A' for Active; 'I' for Inactive)
REMARK    1  A    between atoms: C_2  and  C_3
REMARK    2  A    between atoms: C_6  and  C_7
REMARK    3  A    between atoms: C_7  and  N_8
REMARK    4  A    between atoms: C_11  and  O_12
REMARK    5  A    between atoms: O_12  and  C_13
REMARK    6  A    between atoms: C_16  and  N_17
REMARK    7  A    between atoms: C_18  and  C_20
REMARK                            x       y       z     vdW  Elec       q    Type
REMARK                         _______ _______ _______ _____ _____    ______ ____
ROOT
ATOM      1  C   UNL     1       1.822   7.776  19.767  0.00  0.00    +0.000 A 
ATOM      2  C   UNL     1       1.227   7.654  21.018  0.00  0.00    +0.000 A 
ATOM      3  C   UNL     1       0.469   8.682  21.570  0.00  0.00    +0.000 A 
ATOM      4  C   UNL     1       0.264   9.869  20.882  0.00  0.00    +0.000 A 
ATOM      5  C   UNL     1       0.831  10.008  19.611  0.00  0.00    +0.000 A 
ATOM      6  C   UNL     1       1.600   8.969  19.056  0.00  0.00    +0.000 A 
ATOM      7 CL   UNL     1       2.214   9.181  17.453  0.00  0.00    +0.000 Cl
ENDROOT
BRANCH   4   8
ATOM      8  N   UNL     1      -0.493  10.931  21.421  0.00  0.00    +0.000 N 
ATOM      9  C   UNL     1      -0.866  11.077  22.750  0.00  0.00    +0.000 C 
ATOM     10  O   UNL     1      -0.594  10.333  23.684  0.00  0.00    +0.000 OA
ATOM     11  H   UNL     1      -0.742  11.672  20.778  0.00  0.00    +0.000 HD
BRANCH   9  12
ATOM     12  C   UNL     1      -1.657  12.293  23.060  0.00  0.00    +0.000 A 
ATOM     13  C   UNL     1      -1.081  13.568  23.043  0.00  0.00    +0.000 A 
ATOM     14  C   UNL     1      -1.860  14.679  23.362  0.00  0.00    +0.000 A 
ATOM     15  C   UNL     1      -3.211  14.520  23.679  0.00  0.00    +0.000 A 
ATOM     16  C   UNL     1      -3.794  13.254  23.661  0.00  0.00    +0.000 A 
ATOM     17  C   UNL     1      -3.019  12.140  23.347  0.00  0.00    +0.000 A 
ENDBRANCH   9  12
ENDBRANCH   4   8
BRANCH   1  18
ATOM     18  O   UNL     1       2.647   6.817  19.237  0.00  0.00    +0.000 OA
BRANCH  18  22
ATOM     19  N   UNL     1       4.466   3.925  18.097  0.00  0.00    +0.000 NA
ATOM     20  C   UNL     1       4.573   4.489  19.447  0.00  0.00    +0.000 C 
ATOM     21  C   UNL     1       3.223   4.573  20.143  0.00  0.00    +0.000 C 
ATOM     22  C   UNL     1       2.231   5.443  19.366  0.00  0.00    +0.000 C 
ATOM     23  C   UNL     1       2.101   4.841  17.964  0.00  0.00    +0.000 C 
ATOM     24  C   UNL     1       3.463   4.646  17.284  0.00  0.00    +0.000 C 
BRANCH  19  25
ATOM     25  C   UNL     1       5.780   4.001  17.416  0.00  0.00    +0.000 C 
BRANCH  25  29
ATOM     26  C   UNL     1       7.779   7.816  17.958  0.00  0.00    +0.000 A 
ATOM     27  C   UNL     1       6.765   7.679  17.005  0.00  0.00    +0.000 A 
ATOM     28  C   UNL     1       6.138   6.441  16.813  0.00  0.00    +0.000 A 
ATOM     29  C   UNL     1       6.512   5.324  17.571  0.00  0.00    +0.000 A 
ATOM     30  C   UNL     1       7.542   5.467  18.516  0.00  0.00    +0.000 A 
ATOM     31  C   UNL     1       8.171   6.704  18.709  0.00  0.00    +0.000 A 
BRANCH  26  33
ATOM     32  N   UNL     1       8.918  10.118  18.345  0.00  0.00    +0.000 NA
ATOM     33  C   UNL     1       8.411   9.093  18.170  0.00  0.00    +0.000 C 
ENDBRANCH  26  33
ENDBRANCH  25  29
ENDBRANCH  19  25
ENDBRANCH  18  22
ENDBRANCH   1  18
TORSDOF 7
ENDMDL
MODEL 2
REMARK VINA RESULT:      -8.6      0.852      1.284
REMARK  Name = 
REMARK  7 active torsions:
REMARK  status: ('A' for Active; 'I' for Inactive)
REMARK    1  A    between atoms: C_2  and  C_3
REMARK    2  A    between atoms: C_6  and  C_7
REMARK    3  A    between atoms: C_7  and  N_8
REMARK    4  A    between atoms: C_11  and  O_12
REMARK    5  A    between atoms: O_12  and  C_13
REMARK    6  A    between atoms: C_16  and  N_17
REMARK    7  A    between atoms: C_18  and  C_20
REMARK                            x       y       z     vdW  Elec       q    Type
REMARK                         _______ _______ _______ _____ _____    ______ ____
ROOT
ATOM      1  C   UNL     1       1.872   7.438  20.039  0.00  0.00    +0.000 A 
ATOM      2  C   UNL     1       1.081   7.452  21.184  0.00  0.00    +0.000 A 
ATOM      3  C   UNL     1       0.215   8.505  21.460  0.00  0.00    +0.000 A 
ATOM      4  C   UNL     1       0.095   9.580  20.592  0.00  0.00    +0.000 A 
ATOM      5  C   UNL     1       0.860   9.579  19.421  0.00  0.00    +0.000 A 
ATOM      6  C   UNL     1       1.738   8.514  19.144  0.00  0.00    +0.000 A 
ATOM      7 CL   UNL     1       2.603   8.545  17.647  0.00  0.00    +0.000 Cl
ENDROOT
BRANCH   4   8
ATOM      8  N   UNL     1      -0.770  10.665  20.851  0.00  0.00    +0.000 N 
ATOM      9  C   UNL     1      -0.890  11.344  22.055  0.00  0.00    +0.000 C 
ATOM     10  O   UNL     1      -0.265  11.142  23.088  0.00  0.00    +0.000 OA
ATOM     11  H   UNL     1      -1.314  10.999  20.065  0.00  0.00    +0.000 HD
BRANCH   9  12
ATOM     12  C   UNL     1      -1.870  12.458  22.063  0.00  0.00    +0.000 A 
ATOM     13  C   UNL     1      -2.650  12.759  20.941  0.00  0.00    +0.000 A 
ATOM     14  C   UNL     1      -3.542  13.829  20.990  0.00  0.00    +0.000 A 
ATOM     15  C   UNL     1      -3.668  14.584  22.159  0.00  0.00    +0.000 A 
ATOM     16  C   UNL     1      -2.917  14.262  23.289  0.00  0.00    +0.000 A 
ATOM     17  C   UNL     1      -2.021  13.197  23.244  0.00  0.00    +0.000 A 
ENDBRANCH   9  12
ENDBRANCH   4   8
BRANCH   1  18
ATOM     18  O   UNL     1       2.799   6.459  19.785  0.00  0.00    +0.000 OA
BRANCH  18  22
ATOM     19  N   UNL     1       4.491   3.909  17.887  0.00  0.00    +0.000 NA
ATOM     20  C   UNL     1       4.583   4.052  19.344  0.00  0.00    +0.000 C 
ATOM     21  C   UNL     1       3.217   4.017  20.012  0.00  0.00    +0.000 C 
ATOM     22  C   UNL     1       2.302   5.136  19.503  0.00  0.00    +0.000 C 
ATOM     23  C   UNL     1       2.188   4.973  17.986  0.00  0.00    +0.000 C 
ATOM     24  C   UNL     1       3.559   4.895  17.301  0.00  0.00    +0.000 C 
BRANCH  19  25
ATOM     25  C   UNL     1       5.830   4.094  17.279  0.00  0.00    +0.000 C 
BRANCH  25  29
ATOM     26  C   UNL     1       7.812   7.887  18.007  0.00  0.00    +0.000 A 
ATOM     27  C   UNL     1       8.164   6.752  18.745  0.00  0.00    +0.000 A 
ATOM     28  C   UNL     1       7.507   5.535  18.527  0.00  0.00    +0.000 A 
ATOM     29  C   UNL     1       6.491   5.431  17.568  0.00  0.00    +0.000 A 
ATOM     30  C   UNL     1       6.132   6.579  16.841  0.00  0.00    +0.000 A 
ATOM     31  C   UNL     1       6.788   7.798  17.058  0.00  0.00    +0.000 A 
BRANCH  26  33
ATOM     32  N   UNL     1       9.057  10.134  18.387  0.00  0.00    +0.000 NA
ATOM     33  C   UNL     1       8.501   9.134  18.216  0.00  0.00    +0.000 C 
ENDBRANCH  26  33
ENDBRANCH  25  29
ENDBRANCH  19  25
ENDBRANCH  18  22
ENDBRANCH   1  18
TORSDOF 7
ENDMDL
MODEL 3
REMARK VINA RESULT:      -8.4      0.775      1.094
REMARK  Name = 
REMARK  7 active torsions:
REMARK  status: ('A' for Active; 'I' for Inactive)
REMARK    1  A    between atoms: C_2  and  C_3
REMARK    2  A    between atoms: C_6  and  C_7
REMARK    3  A    between atoms: C_7  and  N_8
REMARK    4  A    between atoms: C_11  and  O_12
REMARK    5  A    between atoms: O_12  and  C_13
REMARK    6  A    between atoms: C_16  and  N_17
REMARK    7  A    between atoms: C_18  and  C_20
REMARK                            x       y       z     vdW  Elec       q    Type
REMARK                         _______ _______ _______ _____ _____    ______ ____
ROOT
ATOM      1  C   UNL     1       1.815   7.636  19.931  0.00  0.00    +0.000 A 
ATOM      2  C   UNL     1       1.227   7.522  21.187  0.00  0.00    +0.000 A 
ATOM      3  C   UNL     1       0.415   8.525  21.707  0.00  0.00    +0.000 A 
ATOM      4  C   UNL     1       0.148   9.677  20.982  0.00  0.00    +0.000 A 
ATOM      5  C   UNL     1       0.706   9.806  19.706  0.00  0.00    +0.000 A 
ATOM      6  C   UNL     1       1.530   8.792  19.183  0.00  0.00    +0.000 A 
ATOM      7 CL   UNL     1       2.132   8.985  17.573  0.00  0.00    +0.000 Cl
ENDROOT
BRANCH   4   8
ATOM      8  N   UNL     1      -0.666  10.714  21.488  0.00  0.00    +0.000 N 
ATOM      9  C   UNL     1      -0.255  12.005  21.784  0.00  0.00    +0.000 C 
ATOM     10  O   UNL     1       0.866  12.479  21.644  0.00  0.00    +0.000 OA
ATOM     11  H   UNL     1      -1.649  10.495  21.597  0.00  0.00    +0.000 HD
BRANCH   9  12
ATOM     12  C   UNL     1      -1.313  12.909  22.297  0.00  0.00    +0.000 A 
ATOM     13  C   UNL     1      -2.662  12.715  21.983  0.00  0.00    +0.000 A 
ATOM     14  C   UNL     1      -3.617  13.603  22.472  0.00  0.00    +0.000 A 
ATOM     15  C   UNL     1      -3.231  14.670  23.287  0.00  0.00    +0.000 A 
ATOM     16  C   UNL     1      -1.891  14.844  23.630  0.00  0.00    +0.000 A 
ATOM     17  C   UNL     1      -0.931  13.961  23.140  0.00  0.00    +0.000 A 
ENDBRANCH   9  12
ENDBRANCH   4   8
BRANCH   1  18
ATOM     18  O   UNL     1       2.691   6.706  19.430  0.00  0.00    +0.000 OA
BRANCH  18  22
ATOM     19  N   UNL     1       4.454   3.917  17.989  0.00  0.00    +0.000 NA
ATOM     20  C   UNL     1       4.632   4.382  19.368  0.00  0.00    +0.000 C 
ATOM     21  C   UNL     1       3.321   4.406  20.140  0.00  0.00    +0.000 C 
ATOM     22  C   UNL     1       2.286   5.323  19.482  0.00  0.00    +0.000 C 
ATOM     23  C   UNL     1       2.083   4.823  18.049  0.00  0.00    +0.000 C 
ATOM     24  C   UNL     1       3.407   4.687  17.285  0.00  0.00    +0.000 C 
BRANCH  19  25
ATOM     25  C   UNL     1       5.730   4.051  17.245  0.00  0.00    +0.000 C 
BRANCH  25  29
ATOM     26  C   UNL     1       7.765   7.812  17.991  0.00  0.00    +0.000 A 
ATOM     27  C   UNL     1       6.739   7.739  17.043  0.00  0.00    +0.000 A 
ATOM     28  C   UNL     1       6.100   6.519  16.785  0.00  0.00    +0.000 A 
ATOM     29  C   UNL     1       6.474   5.356  17.471  0.00  0.00    +0.000 A 
ATOM     30  C   UNL     1       7.515   5.435  18.411  0.00  0.00    +0.000 A 
ATOM     31  C   UNL     1       8.156   6.653  18.670  0.00  0.00    +0.000 A 
BRANCH  26  33
ATOM     32  N   UNL     1       8.929  10.079  18.493  0.00  0.00    +0.000 NA
ATOM     33  C   UNL     1       8.409   9.069  18.271  0.00  0.00    +0.000 C 
ENDBRANCH  26  33
ENDBRANCH  25  29
ENDBRANCH  19  25
ENDBRANCH  18  22
ENDBRANCH   1  18
TORSDOF 7
ENDMDL
MODEL 4
REMARK VINA RESULT:      -8.4      1.675      1.687
REMARK  Name = 
REMARK  7 active torsions:
REMARK  status: ('A' for Active; 'I' for Inactive)
REMARK    1  A    between atoms: C_2  and  C_3
REMARK    2  A    between atoms: C_6  and  C_7
REMARK    3  A    between atoms: C_7  and  N_8
REMARK    4  A    between atoms: C_11  and  O_12
REMARK    5  A    between atoms: O_12  and  C_13
REMARK    6  A    between atoms: C_16  and  N_17
REMARK    7  A    between atoms: C_18  and  C_20
REMARK                            x       y       z     vdW  Elec       q    Type
REMARK                         _______ _______ _______ _____ _____    ______ ____
ROOT
ATOM      1  C   UNL     1       1.869   7.572  20.057  0.00  0.00    +0.000 A 
ATOM      2  C   UNL     1       1.094   7.747  21.198  0.00  0.00    +0.000 A 
ATOM      3  C   UNL     1       0.324   8.889  21.390  0.00  0.00    +0.000 A 
ATOM      4  C   UNL     1       0.287   9.897  20.436  0.00  0.00    +0.000 A 
ATOM      5  C   UNL     1       1.038   9.734  19.267  0.00  0.00    +0.000 A 
ATOM      6  C   UNL     1       1.819   8.579  19.077  0.00  0.00    +0.000 A 
ATOM      7 CL   UNL     1       2.668   8.412  17.579  0.00  0.00    +0.000 Cl
ENDROOT
BRANCH   4   8
ATOM      8  N   UNL     1      -0.480  11.069  20.608  0.00  0.00    +0.000 N 
ATOM      9  C   UNL     1      -1.525  11.488  19.798  0.00  0.00    +0.000 C 
ATOM     10  O   UNL     1      -1.978  10.916  18.814  0.00  0.00    +0.000 OA
ATOM     11  H   UNL     1      -0.268  11.623  21.428  0.00  0.00    +0.000 HD
BRANCH   9  12
ATOM     12  C   UNL     1      -2.176  12.758  20.203  0.00  0.00    +0.000 A 
ATOM     13  C   UNL     1      -1.443  13.936  20.381  0.00  0.00    +0.000 A 
ATOM     14  C   UNL     1      -2.097  15.099  20.783  0.00  0.00    +0.000 A 
ATOM     15  C   UNL     1      -3.478  15.091  20.989  0.00  0.00    +0.000 A 
ATOM     16  C   UNL     1      -4.215  13.927  20.777  0.00  0.00    +0.000 A 
ATOM     17  C   UNL     1      -3.566  12.761  20.380  0.00  0.00    +0.000 A 
ENDBRANCH   9  12
ENDBRANCH   4   8
BRANCH   1  18
ATOM     18  O   UNL     1       2.707   6.500  19.881  0.00  0.00    +0.000 OA
BRANCH  18  22
ATOM     19  N   UNL     1       4.024   3.705  18.030  0.00  0.00    +0.000 NA
ATOM     20  C   UNL     1       4.274   3.943  19.456  0.00  0.00    +0.000 C 
ATOM     21  C   UNL     1       2.985   4.056  20.254  0.00  0.00    +0.000 C 
ATOM     22  C   UNL     1       2.098   5.199  19.753  0.00  0.00    +0.000 C 
ATOM     23  C   UNL     1       1.818   4.939  18.271  0.00  0.00    +0.000 C 
ATOM     24  C   UNL     1       3.104   4.714  17.464  0.00  0.00    +0.000 C 
BRANCH  19  25
ATOM     25  C   UNL     1       5.303   3.749  17.282  0.00  0.00    +0.000 C 
BRANCH  25  29
ATOM     26  C   UNL     1       7.485   7.462  17.821  0.00  0.00    +0.000 A 
ATOM     27  C   UNL     1       6.396   7.403  16.946  0.00  0.00    +0.000 A 
ATOM     28  C   UNL     1       5.709   6.198  16.753  0.00  0.00    +0.000 A 
ATOM     29  C   UNL     1       6.096   5.036  17.434  0.00  0.00    +0.000 A 
ATOM     30  C   UNL     1       7.200   5.100  18.300  0.00  0.00    +0.000 A 
ATOM     31  C   UNL     1       7.889   6.305  18.494  0.00  0.00    +0.000 A 
BRANCH  26  33
ATOM     32  N   UNL     1       8.736   9.705  18.209  0.00  0.00    +0.000 NA
ATOM     33  C   UNL     1       8.181   8.705  18.035  0.00  0.00    +0.000 C 
ENDBRANCH  26  33
ENDBRANCH  25  29
ENDBRANCH  19  25
ENDBRANCH  18  22
ENDBRANCH   1  18
TORSDOF 7
ENDMDL
MODEL 5
REMARK VINA RESULT:      -8.2      1.001      1.031
REMARK  Name = 
REMARK  7 active torsions:
REMARK  status: ('A' for Active; 'I' for Inactive)
REMARK    1  A    between atoms: C_2  and  C_3
REMARK    2  A    between atoms: C_6  and  C_7
REMARK    3  A    between atoms: C_7  and  N_8
REMARK    4  A    between atoms: C_11  and  O_12
REMARK    5  A    between atoms: O_12  and  C_13
REMARK    6  A    between atoms: C_16  and  N_17
REMARK    7  A    between atoms: C_18  and  C_20
REMARK                            x       y       z     vdW  Elec       q    Type
REMARK                         _______ _______ _______ _____ _____    ______ ____
ROOT
ATOM      1  C   UNL     1       1.857   7.875  19.960  0.00  0.00    +0.000 A 
ATOM      2  C   UNL     1       1.366   7.797  21.259  0.00  0.00    +0.000 A 
ATOM      3  C   UNL     1       0.675   8.853  21.843  0.00  0.00    +0.000 A 
ATOM      4  C   UNL     1       0.434  10.026  21.141  0.00  0.00    +0.000 A 
ATOM      5  C   UNL     1       0.895  10.120  19.824  0.00  0.00    +0.000 A 
ATOM      6  C   UNL     1       1.597   9.052  19.237  0.00  0.00    +0.000 A 
ATOM      7 CL   UNL     1       2.078   9.209  17.583  0.00  0.00    +0.000 Cl
ENDROOT
BRANCH   4   8
ATOM      8  N   UNL     1      -0.258  11.116  21.712  0.00  0.00    +0.000 N 
ATOM      9  C   UNL     1      -1.294  11.825  21.123  0.00  0.00    +0.000 C 
ATOM     10  O   UNL     1      -1.802  11.625  20.026  0.00  0.00    +0.000 OA
ATOM     11  H   UNL     1       0.005  11.365  22.658  0.00  0.00    +0.000 HD
BRANCH   9  12
ATOM     12  C   UNL     1      -1.860  12.926  21.940  0.00  0.00    +0.000 A 
ATOM     13  C   UNL     1      -1.315  13.274  23.181  0.00  0.00    +0.000 A 
ATOM     14  C   UNL     1      -1.894  14.303  23.922  0.00  0.00    +0.000 A 
ATOM     15  C   UNL     1      -3.000  14.992  23.419  0.00  0.00    +0.000 A 
ATOM     16  C   UNL     1      -3.521  14.670  22.167  0.00  0.00    +0.000 A 
ATOM     17  C   UNL     1      -2.949  13.640  21.425  0.00  0.00    +0.000 A 
ENDBRANCH   9  12
ENDBRANCH   4   8
BRANCH   1  18
ATOM     18  O   UNL     1       2.618   6.886  19.390  0.00  0.00    +0.000 OA
BRANCH  18  22
ATOM     19  N   UNL     1       4.286   3.924  18.200  0.00  0.00    +0.000 NA
ATOM     20  C   UNL     1       4.431   4.465  19.556  0.00  0.00    +0.000 C 
ATOM     21  C   UNL     1       3.092   4.605  20.264  0.00  0.00    +0.000 C 
ATOM     22  C   UNL     1       2.137   5.532  19.506  0.00  0.00    +0.000 C 
ATOM     23  C   UNL     1       1.968   4.955  18.098  0.00  0.00    +0.000 C 
ATOM     24  C   UNL     1       3.314   4.702  17.405  0.00  0.00    +0.000 C 
BRANCH  19  25
ATOM     25  C   UNL     1       5.598   3.944  17.510  0.00  0.00    +0.000 C 
BRANCH  25  29
ATOM     26  C   UNL     1       7.691   7.726  17.908  0.00  0.00    +0.000 A 
ATOM     27  C   UNL     1       6.650   7.589  16.985  0.00  0.00    +0.000 A 
ATOM     28  C   UNL     1       5.992   6.361  16.839  0.00  0.00    +0.000 A 
ATOM     29  C   UNL     1       6.361   5.254  17.615  0.00  0.00    +0.000 A 
ATOM     30  C   UNL     1       7.418   5.396  18.530  0.00  0.00    +0.000 A 
ATOM     31  C   UNL     1       8.078   6.623  18.677  0.00  0.00    +0.000 A 
BRANCH  26  33
ATOM     32  N   UNL     1       8.891  10.010  18.209  0.00  0.00    +0.000 NA
ATOM     33  C   UNL     1       8.355   8.994  18.074  0.00  0.00    +0.000 C 
ENDBRANCH  26  33
ENDBRANCH  25  29
ENDBRANCH  19  25
ENDBRANCH  18  22
ENDBRANCH   1  18
TORSDOF 7
ENDMDL
MODEL 6
REMARK VINA RESULT:      -8.1      2.243      2.754
REMARK  Name = 
REMARK  7 active torsions:
REMARK  status: ('A' for Active; 'I' for Inactive)
REMARK    1  A    between atoms: C_2  and  C_3
REMARK    2  A    between atoms: C_6  and  C_7
REMARK    3  A    between atoms: C_7  and  N_8
REMARK    4  A    between atoms: C_11  and  O_12
REMARK    5  A    between atoms: O_12  and  C_13
REMARK    6  A    between atoms: C_16  and  N_17
REMARK    7  A    between atoms: C_18  and  C_20
REMARK                            x       y       z     vdW  Elec       q    Type
REMARK                         _______ _______ _______ _____ _____    ______ ____
ROOT
ATOM      1  C   UNL     1       1.657   6.855  20.595  0.00  0.00    +0.000 A 
ATOM      2  C   UNL     1       0.789   7.413  21.528  0.00  0.00    +0.000 A 
ATOM      3  C   UNL     1       0.385   8.741  21.445  0.00  0.00    +0.000 A 
ATOM      4  C   UNL     1       0.824   9.561  20.415  0.00  0.00    +0.000 A 
ATOM      5  C   UNL     1       1.677   9.017  19.450  0.00  0.00    +0.000 A 
ATOM      6  C   UNL     1       2.087   7.673  19.536  0.00  0.00    +0.000 A 
ATOM      7 CL   UNL     1       3.088   7.048  18.272  0.00  0.00    +0.000 Cl
ENDROOT
BRANCH   4   8
ATOM      8  N   UNL     1       0.436  10.914  20.312  0.00  0.00    +0.000 N 
ATOM      9  C   UNL     1      -0.643  11.403  19.590  0.00  0.00    +0.000 C 
ATOM     10  O   UNL     1      -1.454  10.757  18.938  0.00  0.00    +0.000 OA
ATOM     11  H   UNL     1       0.976  11.575  20.857  0.00  0.00    +0.000 HD
BRANCH   9  12
ATOM     12  C   UNL     1      -0.840  12.871  19.653  0.00  0.00    +0.000 A 
ATOM     13  C   UNL     1      -0.146  13.743  18.808  0.00  0.00    +0.000 A 
ATOM     14  C   UNL     1      -0.349  15.117  18.919  0.00  0.00    +0.000 A 
ATOM     15  C   UNL     1      -1.255  15.618  19.857  0.00  0.00    +0.000 A 
ATOM     16  C   UNL     1      -1.973  14.749  20.676  0.00  0.00    +0.000 A 
ATOM     17  C   UNL     1      -1.771  13.375  20.572  0.00  0.00    +0.000 A 
ENDBRANCH   9  12
ENDBRANCH   4   8
BRANCH   1  18
ATOM     18  O   UNL     1       2.142   5.576  20.700  0.00  0.00    +0.000 OA
BRANCH  18  22
ATOM     19  N   UNL     1       2.563   2.579  18.747  0.00  0.00    +0.000 NA
ATOM     20  C   UNL     1       2.925   2.699  20.164  0.00  0.00    +0.000 C 
ATOM     21  C   UNL     1       1.749   3.140  21.021  0.00  0.00    +0.000 C 
ATOM     22  C   UNL     1       1.193   4.497  20.578  0.00  0.00    +0.000 C 
ATOM     23  C   UNL     1       0.794   4.364  19.107  0.00  0.00    +0.000 C 
ATOM     24  C   UNL     1       1.936   3.817  18.239  0.00  0.00    +0.000 C 
BRANCH  19  25
ATOM     25  C   UNL     1       3.775   2.290  17.943  0.00  0.00    +0.000 C 
BRANCH  25  29
ATOM     26  C   UNL     1       6.351   5.741  17.400  0.00  0.00    +0.000 A 
ATOM     27  C   UNL     1       5.701   5.164  16.304  0.00  0.00    +0.000 A 
ATOM     28  C   UNL     1       4.891   4.036  16.477  0.00  0.00    +0.000 A 
ATOM     29  C   UNL     1       4.714   3.468  17.745  0.00  0.00    +0.000 A 
ATOM     30  C   UNL     1       5.382   4.043  18.839  0.00  0.00    +0.000 A 
ATOM     31  C   UNL     1       6.195   5.172  18.668  0.00  0.00    +0.000 A 
BRANCH  26  33
ATOM     32  N   UNL     1       7.823   7.858  17.087  0.00  0.00    +0.000 NA
ATOM     33  C   UNL     1       7.169   6.913  17.227  0.00  0.00    +0.000 C 
ENDBRANCH  26  33
ENDBRANCH  25  29
ENDBRANCH  19  25
ENDBRANCH  18  22
ENDBRANCH   1  18
TORSDOF 7
ENDMDL
MODEL 7
REMARK VINA RESULT:      -8.1      1.514      1.763
REMARK  Name = 
REMARK  7 active torsions:
REMARK  status: ('A' for Active; 'I' for Inactive)
REMARK    1  A    between atoms: C_2  and  C_3
REMARK    2  A    between atoms: C_6  and  C_7
REMARK    3  A    between atoms: C_7  and  N_8
REMARK    4  A    between atoms: C_11  and  O_12
REMARK    5  A    between atoms: O_12  and  C_13
REMARK    6  A    between atoms: C_16  and  N_17
REMARK    7  A    between atoms: C_18  and  C_20
REMARK                            x       y       z     vdW  Elec       q    Type
REMARK                         _______ _______ _______ _____ _____    ______ ____
ROOT
ATOM      1  C   UNL     1       1.828   7.305  20.280  0.00  0.00    +0.000 A 
ATOM      2  C   UNL     1       0.920   7.492  21.318  0.00  0.00    +0.000 A 
ATOM      3  C   UNL     1       0.154   8.648  21.418  0.00  0.00    +0.000 A 
ATOM      4  C   UNL     1       0.255   9.659  20.472  0.00  0.00    +0.000 A 
ATOM      5  C   UNL     1       1.141   9.485  19.404  0.00  0.00    +0.000 A 
ATOM      6  C   UNL     1       1.918   8.315  19.306  0.00  0.00    +0.000 A 
ATOM      7 CL   UNL     1       2.943   8.136  17.925  0.00  0.00    +0.000 Cl
ENDROOT
BRANCH   4   8
ATOM      8  N   UNL     1      -0.505  10.845  20.553  0.00  0.00    +0.000 N 
ATOM      9  C   UNL     1      -0.050  12.078  20.998  0.00  0.00    +0.000 C 
ATOM     10  O   UNL     1       1.080  12.361  21.377  0.00  0.00    +0.000 OA
ATOM     11  H   UNL     1      -1.455  10.790  20.209  0.00  0.00    +0.000 HD
BRANCH   9  12
ATOM     12  C   UNL     1      -1.051  13.173  20.976  0.00  0.00    +0.000 A 
ATOM     13  C   UNL     1      -2.424  12.912  20.910  0.00  0.00    +0.000 A 
ATOM     14  C   UNL     1      -3.325  13.975  20.871  0.00  0.00    +0.000 A 
ATOM     15  C   UNL     1      -2.859  15.291  20.916  0.00  0.00    +0.000 A 
ATOM     16  C   UNL     1      -1.493  15.551  21.018  0.00  0.00    +0.000 A 
ATOM     17  C   UNL     1      -0.588  14.493  21.053  0.00  0.00    +0.000 A 
ENDBRANCH   9  12
ENDBRANCH   4   8
BRANCH   1  18
ATOM     18  O   UNL     1       2.660   6.217  20.204  0.00  0.00    +0.000 OA
BRANCH  18  22
ATOM     19  N   UNL     1       3.672   3.540  18.017  0.00  0.00    +0.000 NA
ATOM     20  C   UNL     1       4.147   3.705  19.395  0.00  0.00    +0.000 C 
ATOM     21  C   UNL     1       3.002   3.760  20.395  0.00  0.00    +0.000 C 
ATOM     22  C   UNL     1       2.042   4.918  20.104  0.00  0.00    +0.000 C 
ATOM     23  C   UNL     1       1.529   4.733  18.675  0.00  0.00    +0.000 C 
ATOM     24  C   UNL     1       2.669   4.567  17.661  0.00  0.00    +0.000 C 
BRANCH  19  25
ATOM     25  C   UNL     1       4.814   3.639  17.077  0.00  0.00    +0.000 C 
BRANCH  25  29
ATOM     26  C   UNL     1       7.201   7.220  17.644  0.00  0.00    +0.000 A 
ATOM     27  C   UNL     1       6.234   7.167  16.635  0.00  0.00    +0.000 A 
ATOM     28  C   UNL     1       5.482   6.002  16.437  0.00  0.00    +0.000 A 
ATOM     29  C   UNL     1       5.682   4.875  17.244  0.00  0.00    +0.000 A 
ATOM     30  C   UNL     1       6.666   4.930  18.246  0.00  0.00    +0.000 A 
ATOM     31  C   UNL     1       7.420   6.095  18.445  0.00  0.00    +0.000 A 
BRANCH  26  33
ATOM     32  N   UNL     1       8.569   9.392  18.040  0.00  0.00    +0.000 NA
ATOM     33  C   UNL     1       7.961   8.424  17.862  0.00  0.00    +0.000 C 
ENDBRANCH  26  33
ENDBRANCH  25  29
ENDBRANCH  19  25
ENDBRANCH  18  22
ENDBRANCH   1  18
TORSDOF 7
ENDMDL
MODEL 8
REMARK VINA RESULT:      -8.1      2.892      8.715
REMARK  Name = 
REMARK  7 active torsions:
REMARK  status: ('A' for Active; 'I' for Inactive)
REMARK    1  A    between atoms: C_2  and  C_3
REMARK    2  A    between atoms: C_6  and  C_7
REMARK    3  A    between atoms: C_7  and  N_8
REMARK    4  A    between atoms: C_11  and  O_12
REMARK    5  A    between atoms: O_12  and  C_13
REMARK    6  A    between atoms: C_16  and  N_17
REMARK    7  A    between atoms: C_18  and  C_20
REMARK                            x       y       z     vdW  Elec       q    Type
REMARK                         _______ _______ _______ _____ _____    ______ ____
ROOT
ATOM      1  C   UNL     1       6.311   5.215  17.821  0.00  0.00    +0.000 A 
ATOM      2  C   UNL     1       7.230   5.132  18.861  0.00  0.00    +0.000 A 
ATOM      3  C   UNL     1       8.076   6.192  19.174  0.00  0.00    +0.000 A 
ATOM      4  C   UNL     1       8.023   7.384  18.466  0.00  0.00    +0.000 A 
ATOM      5  C   UNL     1       7.089   7.502  17.431  0.00  0.00    +0.000 A 
ATOM      6  C   UNL     1       6.237   6.428  17.114  0.00  0.00    +0.000 A 
ATOM      7 CL   UNL     1       5.061   6.667  15.868  0.00  0.00    +0.000 Cl
ENDROOT
BRANCH   4   8
ATOM      8  N   UNL     1       8.874   8.472  18.757  0.00  0.00    +0.000 N 
ATOM      9  C   UNL     1       8.699   9.781  18.335  0.00  0.00    +0.000 C 
ATOM     10  O   UNL     1       7.780  10.229  17.660  0.00  0.00    +0.000 OA
ATOM     11  H   UNL     1       9.655   8.274  19.370  0.00  0.00    +0.000 HD
BRANCH   9  12
ATOM     12  C   UNL     1       9.736  10.740  18.788  0.00  0.00    +0.000 A 
ATOM     13  C   UNL     1       9.944  11.012  20.145  0.00  0.00    +0.000 A 
ATOM     14  C   UNL     1      10.917  11.937  20.520  0.00  0.00    +0.000 A 
ATOM     15  C   UNL     1      11.691  12.574  19.548  0.00  0.00    +0.000 A 
ATOM     16  C   UNL     1      11.509  12.277  18.198  0.00  0.00    +0.000 A 
ATOM     17  C   UNL     1      10.536  11.357  17.817  0.00  0.00    +0.000 A 
ENDBRANCH   9  12
ENDBRANCH   4   8
BRANCH   1  18
ATOM     18  O   UNL     1       5.528   4.158  17.432  0.00  0.00    +0.000 OA
BRANCH  18  22
ATOM     19  N   UNL     1       2.622   5.888  18.670  0.00  0.00    +0.000 NA
ATOM     20  C   UNL     1       2.615   4.985  17.513  0.00  0.00    +0.000 C 
ATOM     21  C   UNL     1       3.141   3.601  17.862  0.00  0.00    +0.000 C 
ATOM     22  C   UNL     1       4.578   3.651  18.391  0.00  0.00    +0.000 C 
ATOM     23  C   UNL     1       4.580   4.575  19.611  0.00  0.00    +0.000 C 
ATOM     24  C   UNL     1       3.953   5.942  19.310  0.00  0.00    +0.000 C 
BRANCH  19  25
ATOM     25  C   UNL     1       2.239   7.254  18.242  0.00  0.00    +0.000 C 
BRANCH  25  29
ATOM     26  C   UNL     1       0.456   9.722  21.337  0.00  0.00    +0.000 A 
ATOM     27  C   UNL     1       0.635  10.228  20.045  0.00  0.00    +0.000 A 
ATOM     28  C   UNL     1       1.234   9.439  19.054  0.00  0.00    +0.000 A 
ATOM     29  C   UNL     1       1.659   8.135  19.336  0.00  0.00    +0.000 A 
ATOM     30  C   UNL     1       1.489   7.639  20.640  0.00  0.00    +0.000 A 
ATOM     31  C   UNL     1       0.892   8.426  21.633  0.00  0.00    +0.000 A 
BRANCH  26  33
ATOM     32  N   UNL     1      -0.683  11.172  23.166  0.00  0.00    +0.000 NA
ATOM     33  C   UNL     1      -0.177  10.524  22.352  0.00  0.00    +0.000 C 
ENDBRANCH  26  33
ENDBRANCH  25  29
ENDBRANCH  19  25
ENDBRANCH  18  22
ENDBRANCH   1  18
TORSDOF 7
ENDMDL
MODEL 9
REMARK VINA RESULT:      -7.8      2.328      3.077
REMARK  Name = 
REMARK  7 active torsions:
REMARK  status: ('A' for Active; 'I' for Inactive)
REMARK    1  A    between atoms: C_2  and  C_3
REMARK    2  A    between atoms: C_6  and  C_7
REMARK    3  A    between atoms: C_7  and  N_8
REMARK    4  A    between atoms: C_11  and  O_12
REMARK    5  A    between atoms: O_12  and  C_13
REMARK    6  A    between atoms: C_16  and  N_17
REMARK    7  A    between atoms: C_18  and  C_20
REMARK                            x       y       z     vdW  Elec       q    Type
REMARK                         _______ _______ _______ _____ _____    ______ ____
ROOT
ATOM      1  C   UNL     1       1.586   6.777  20.672  0.00  0.00    +0.000 A 
ATOM      2  C   UNL     1       0.694   7.335  21.582  0.00  0.00    +0.000 A 
ATOM      3  C   UNL     1       0.302   8.667  21.497  0.00  0.00    +0.000 A 
ATOM      4  C   UNL     1       0.777   9.490  20.486  0.00  0.00    +0.000 A 
ATOM      5  C   UNL     1       1.655   8.947  19.543  0.00  0.00    +0.000 A 
ATOM      6  C   UNL     1       2.054   7.600  19.633  0.00  0.00    +0.000 A 
ATOM      7 CL   UNL     1       3.089   6.977  18.396  0.00  0.00    +0.000 Cl
ENDROOT
BRANCH   4   8
ATOM      8  N   UNL     1       0.401  10.847  20.380  0.00  0.00    +0.000 N 
ATOM      9  C   UNL     1      -0.465  11.384  19.440  0.00  0.00    +0.000 C 
ATOM     10  O   UNL     1      -1.066  10.786  18.555  0.00  0.00    +0.000 OA
ATOM     11  H   UNL     1       0.768  11.467  21.092  0.00  0.00    +0.000 HD
BRANCH   9  12
ATOM     12  C   UNL     1      -0.702  12.844  19.552  0.00  0.00    +0.000 A 
ATOM     13  C   UNL     1      -1.583  13.375  20.499  0.00  0.00    +0.000 A 
ATOM     14  C   UNL     1      -1.788  14.753  20.552  0.00  0.00    +0.000 A 
ATOM     15  C   UNL     1      -1.103  15.598  19.676  0.00  0.00    +0.000 A 
ATOM     16  C   UNL     1      -0.197  15.072  18.756  0.00  0.00    +0.000 A 
ATOM     17  C   UNL     1       0.009  13.697  18.696  0.00  0.00    +0.000 A 
ENDBRANCH   9  12
ENDBRANCH   4   8
BRANCH   1  18
ATOM     18  O   UNL     1       2.060   5.494  20.783  0.00  0.00    +0.000 OA
BRANCH  18  22
ATOM     19  N   UNL     1       2.459   2.544  18.756  0.00  0.00    +0.000 NA
ATOM     20  C   UNL     1       2.828   2.628  20.173  0.00  0.00    +0.000 C 
ATOM     21  C   UNL     1       1.657   3.054  21.047  0.00  0.00    +0.000 C 
ATOM     22  C   UNL     1       1.106   4.423  20.640  0.00  0.00    +0.000 C 
ATOM     23  C   UNL     1       0.700   4.328  19.168  0.00  0.00    +0.000 C 
ATOM     24  C   UNL     1       1.834   3.797  18.281  0.00  0.00    +0.000 C 
BRANCH  19  25
ATOM     25  C   UNL     1       3.665   2.270  17.939  0.00  0.00    +0.000 C 
BRANCH  25  29
ATOM     26  C   UNL     1       6.360   5.600  17.243  0.00  0.00    +0.000 A 
ATOM     27  C   UNL     1       6.200   5.078  18.530  0.00  0.00    +0.000 A 
ATOM     28  C   UNL     1       5.311   4.020  18.758  0.00  0.00    +0.000 A 
ATOM     29  C   UNL     1       4.572   3.466  17.705  0.00  0.00    +0.000 A 
ATOM     30  C   UNL     1       4.727   4.006  16.417  0.00  0.00    +0.000 A 
ATOM     31  C   UNL     1       5.616   5.065  16.187  0.00  0.00    +0.000 A 
BRANCH  26  33
ATOM     32  N   UNL     1       8.033   7.539  16.807  0.00  0.00    +0.000 NA
ATOM     33  C   UNL     1       7.289   6.675  17.003  0.00  0.00    +0.000 C 
ENDBRANCH  26  33
ENDBRANCH  25  29
ENDBRANCH  19  25
ENDBRANCH  18  22
ENDBRANCH   1  18
TORSDOF 7
ENDMDL
