MODEL 1
REMARK VINA RESULT:      -9.2      0.000      0.000
REMARK  Name = 
REMARK  4 active torsions:
REMARK  status: ('A' for Active; 'I' for Inactive)
REMARK    1  A    between atoms: S_2  and  N_4
REMARK    2  A    between atoms: S_2  and  C_24
REMARK    3  A    between atoms: N_4  and  C_5
REMARK    4  A    between atoms: C_8  and  N_9
REMARK                            x       y       z     vdW  Elec       q    Type
REMARK                         _______ _______ _______ _____ _____    ______ ____
ROOT
ATOM      1  C   UNL     1       1.132   9.887  18.918  0.00  0.00    +0.000 A 
ATOM      2  C   UNL     1       1.829   8.894  18.223  0.00  0.00    +0.000 A 
ATOM      3  C   UNL     1       2.177   7.700  18.863  0.00  0.00    +0.000 A 
ATOM      4  C   UNL     1       1.794   7.454  20.195  0.00  0.00    +0.000 A 
ATOM      5  C   UNL     1       1.056   8.433  20.878  0.00  0.00    +0.000 A 
ATOM      6  C   UNL     1       0.758   9.654  20.254  0.00  0.00    +0.000 A 
ENDROOT
BRANCH   4   7
ATOM      7  N   UNL     1       2.132   6.221  20.832  0.00  0.00    +0.000 N 
ATOM      8  C   UNL     1       2.873   5.207  20.160  0.00  0.00    +0.000 A 
ATOM      9  C   UNL     1       2.822   3.874  20.584  0.00  0.00    +0.000 A 
ATOM     10  C   UNL     1       3.594   2.929  19.899  0.00  0.00    +0.000 A 
ATOM     11  N   UNL     1       4.408   3.320  18.884  0.00  0.00    +0.000 NA
ATOM     12  C   UNL     1       4.479   4.624  18.499  0.00  0.00    +0.000 A 
ATOM     13  N   UNL     1       5.394   5.044  17.486  0.00  0.00    +0.000 N 
ATOM     14  C   UNL     1       6.226   4.096  16.757  0.00  0.00    +0.000 C 
ATOM     15  C   UNL     1       5.931   4.253  15.263  0.00  0.00    +0.000 C 
ATOM     16  N   UNL     1       6.146   5.651  14.851  0.00  0.00    +0.000 NA
ATOM     17  C   UNL     1       5.263   6.560  15.601  0.00  0.00    +0.000 C 
ATOM     18  C   UNL     1       5.540   6.439  17.100  0.00  0.00    +0.000 C 
ATOM     19  N   UNL     1       3.700   5.542  19.132  0.00  0.00    +0.000 NA
ATOM     20  H   UNL     1       1.904   6.088  21.829  0.00  0.00    +0.000 HD
ATOM     21  H   UNL     1       5.925   5.738  13.830  0.00  0.00    +0.000 HD
ENDBRANCH   4   7
BRANCH   1  22
ATOM     22  N   UNL     1       0.858  11.139  18.299  0.00  0.00    +0.000 N 
ATOM     23  H   UNL     1       1.671  11.644  17.923  0.00  0.00    +0.000 HD
BRANCH  22  25
ATOM     24  O   UNL     1       0.051  12.583  20.386  0.00  0.00    +0.000 OA
ATOM     25  S   UNL     1      -0.360  12.240  18.946  0.00  0.00    +0.000 S 
ATOM     26  O   UNL     1      -0.042  13.561  18.225  0.00  0.00    +0.000 OA
BRANCH  25  27
ATOM     27  C   UNL     1      -2.097  11.849  18.732  0.00  0.00    +0.000 A 
ATOM     28  C   UNL     1      -3.054  12.478  19.533  0.00  0.00    +0.000 A 
ATOM     29  C   UNL     1      -4.409  12.164  19.383  0.00  0.00    +0.000 A 
ATOM     30  C   UNL     1      -4.812  11.220  18.431  0.00  0.00    +0.000 A 
ATOM     31 CL   UNL     1      -6.509  10.816  18.257  0.00  0.00    +0.000 Cl
ATOM     32  C   UNL     1      -3.857  10.597  17.621  0.00  0.00    +0.000 A 
ATOM     33  C   UNL     1      -2.502  10.910  17.769  0.00  0.00    +0.000 A 
ENDBRANCH  25  27
ENDBRANCH  22  25
ENDBRANCH   1  22
TORSDOF 4
ENDMDL
MODEL 2
REMARK VINA RESULT:      -9.1      0.113      1.255
REMARK  Name = 
REMARK  4 active torsions:
REMARK  status: ('A' for Active; 'I' for Inactive)
REMARK    1  A    between atoms: S_2  and  N_4
REMARK    2  A    between atoms: S_2  and  C_24
REMARK    3  A    between atoms: N_4  and  C_5
REMARK    4  A    between atoms: C_8  and  N_9
REMARK                            x       y       z     vdW  Elec       q    Type
REMARK                         _______ _______ _______ _____ _____    ______ ____
ROOT
ATOM      1  C   UNL     1       1.111   9.983  18.885  0.00  0.00    +0.000 A 
ATOM      2  C   UNL     1       0.699   9.748  20.200  0.00  0.00    +0.000 A 
ATOM      3  C   UNL     1       0.998   8.532  20.824  0.00  0.00    +0.000 A 
ATOM      4  C   UNL     1       1.756   7.547  20.163  0.00  0.00    +0.000 A 
ATOM      5  C   UNL     1       2.209   7.802  18.859  0.00  0.00    +0.000 A 
ATOM      6  C   UNL     1       1.858   8.997  18.214  0.00  0.00    +0.000 A 
ENDROOT
BRANCH   4   7
ATOM      7  N   UNL     1       2.079   6.319  20.819  0.00  0.00    +0.000 N 
ATOM      8  C   UNL     1       2.815   5.289  20.164  0.00  0.00    +0.000 A 
ATOM      9  C   UNL     1       2.751   3.963  20.607  0.00  0.00    +0.000 A 
ATOM     10  C   UNL     1       3.518   3.002  19.939  0.00  0.00    +0.000 A 
ATOM     11  N   UNL     1       4.341   3.373  18.923  0.00  0.00    +0.000 NA
ATOM     12  C   UNL     1       4.426   4.670  18.521  0.00  0.00    +0.000 A 
ATOM     13  N   UNL     1       5.350   5.068  17.508  0.00  0.00    +0.000 N 
ATOM     14  C   UNL     1       6.179   4.104  16.796  0.00  0.00    +0.000 C 
ATOM     15  C   UNL     1       5.894   4.243  15.299  0.00  0.00    +0.000 C 
ATOM     16  N   UNL     1       6.123   5.633  14.870  0.00  0.00    +0.000 NA
ATOM     17  C   UNL     1       5.244   6.560  15.602  0.00  0.00    +0.000 C 
ATOM     18  C   UNL     1       5.511   6.457  17.104  0.00  0.00    +0.000 C 
ATOM     19  N   UNL     1       3.651   5.604  19.137  0.00  0.00    +0.000 NA
ATOM     20  H   UNL     1       1.845   6.201  21.816  0.00  0.00    +0.000 HD
ATOM     21  H   UNL     1       5.909   5.709  13.847  0.00  0.00    +0.000 HD
ENDBRANCH   4   7
BRANCH   1  22
ATOM     22  N   UNL     1       0.729  11.179  18.217  0.00  0.00    +0.000 N 
ATOM     23  H   UNL     1       1.483  11.691  17.740  0.00  0.00    +0.000 HD
BRANCH  22  25
ATOM     24  O   UNL     1      -0.035  12.608  20.330  0.00  0.00    +0.000 OA
ATOM     25  S   UNL     1      -0.479  12.270  18.898  0.00  0.00    +0.000 S 
ATOM     26  O   UNL     1      -0.187  13.597  18.176  0.00  0.00    +0.000 OA
BRANCH  25  27
ATOM     27  C   UNL     1      -2.218  11.871  18.725  0.00  0.00    +0.000 A 
ATOM     28  C   UNL     1      -2.632  10.986  17.724  0.00  0.00    +0.000 A 
ATOM     29  C   UNL     1      -3.990  10.685  17.572  0.00  0.00    +0.000 A 
ATOM     30  C   UNL     1      -4.939  11.267  18.421  0.00  0.00    +0.000 A 
ATOM     31 CL   UNL     1      -6.641  10.901  18.218  0.00  0.00    +0.000 Cl
ATOM     32  C   UNL     1      -4.527  12.144  19.429  0.00  0.00    +0.000 A 
ATOM     33  C   UNL     1      -3.170  12.446  19.583  0.00  0.00    +0.000 A 
ENDBRANCH  25  27
ENDBRANCH  22  25
ENDBRANCH   1  22
TORSDOF 4
ENDMDL
MODEL 3
REMARK VINA RESULT:      -9.1      1.778      2.344
REMARK  Name = 
REMARK  4 active torsions:
REMARK  status: ('A' for Active; 'I' for Inactive)
REMARK    1  A    between atoms: S_2  and  N_4
REMARK    2  A    between atoms: S_2  and  C_24
REMARK    3  A    between atoms: N_4  and  C_5
REMARK    4  A    between atoms: C_8  and  N_9
REMARK                            x       y       z     vdW  Elec       q    Type
REMARK                         _______ _______ _______ _____ _____    ______ ____
ROOT
ATOM      1  C   UNL     1       1.113   9.763  19.050  0.00  0.00    +0.000 A 
ATOM      2  C   UNL     1       0.745   9.485  20.369  0.00  0.00    +0.000 A 
ATOM      3  C   UNL     1       1.078   8.256  20.949  0.00  0.00    +0.000 A 
ATOM      4  C   UNL     1       1.826   7.299  20.236  0.00  0.00    +0.000 A 
ATOM      5  C   UNL     1       2.233   7.597  18.927  0.00  0.00    +0.000 A 
ATOM      6  C   UNL     1       1.849   8.806  18.327  0.00  0.00    +0.000 A 
ENDROOT
BRANCH   4   7
ATOM      7  N   UNL     1       2.183   6.057  20.845  0.00  0.00    +0.000 N 
ATOM      8  C   UNL     1       2.931   5.066  20.147  0.00  0.00    +0.000 A 
ATOM      9  C   UNL     1       2.900   3.725  20.545  0.00  0.00    +0.000 A 
ATOM     10  C   UNL     1       3.678   2.803  19.835  0.00  0.00    +0.000 A 
ATOM     11  N   UNL     1       4.479   3.225  18.822  0.00  0.00    +0.000 NA
ATOM     12  C   UNL     1       4.531   4.537  18.462  0.00  0.00    +0.000 A 
ATOM     13  N   UNL     1       5.433   4.988  17.451  0.00  0.00    +0.000 N 
ATOM     14  C   UNL     1       6.271   4.066  16.697  0.00  0.00    +0.000 C 
ATOM     15  C   UNL     1       5.962   4.249  15.209  0.00  0.00    +0.000 C 
ATOM     16  N   UNL     1       6.157   5.657  14.824  0.00  0.00    +0.000 NA
ATOM     17  C   UNL     1       5.269   6.540  15.598  0.00  0.00    +0.000 C 
ATOM     18  C   UNL     1       5.559   6.393  17.093  0.00  0.00    +0.000 C 
ATOM     19  N   UNL     1       3.746   5.433  19.120  0.00  0.00    +0.000 NA
ATOM     20  H   UNL     1       1.965   5.901  21.841  0.00  0.00    +0.000 HD
ATOM     21  H   UNL     1       5.927   5.763  13.807  0.00  0.00    +0.000 HD
ENDBRANCH   4   7
BRANCH   1  22
ATOM     22  N   UNL     1       0.696  10.973  18.428  0.00  0.00    +0.000 N 
ATOM     23  H   UNL     1       1.085  11.159  17.495  0.00  0.00    +0.000 HD
BRANCH  22  25
ATOM     24  O   UNL     1       1.866  12.945  19.783  0.00  0.00    +0.000 OA
ATOM     25  S   UNL     1       0.472  12.456  19.357  0.00  0.00    +0.000 S 
ATOM     26  O   UNL     1       0.115  13.487  18.273  0.00  0.00    +0.000 OA
BRANCH  25  27
ATOM     27  C   UNL     1      -0.769  12.503  20.651  0.00  0.00    +0.000 A 
ATOM     28  C   UNL     1      -0.380  12.408  21.990  0.00  0.00    +0.000 A 
ATOM     29  C   UNL     1      -1.345  12.425  23.003  0.00  0.00    +0.000 A 
ATOM     30  C   UNL     1      -2.703  12.538  22.679  0.00  0.00    +0.000 A 
ATOM     31 CL   UNL     1      -3.911  12.542  23.950  0.00  0.00    +0.000 Cl
ATOM     32  C   UNL     1      -3.094  12.643  21.341  0.00  0.00    +0.000 A 
ATOM     33  C   UNL     1      -2.131  12.627  20.327  0.00  0.00    +0.000 A 
ENDBRANCH  25  27
ENDBRANCH  22  25
ENDBRANCH   1  22
TORSDOF 4
ENDMDL
MODEL 4
REMARK VINA RESULT:      -9.0      1.773      2.197
REMARK  Name = 
REMARK  4 active torsions:
REMARK  status: ('A' for Active; 'I' for Inactive)
REMARK    1  A    between atoms: S_2  and  N_4
REMARK    2  A    between atoms: S_2  and  C_24
REMARK    3  A    between atoms: N_4  and  C_5
REMARK    4  A    between atoms: C_8  and  N_9
REMARK                            x       y       z     vdW  Elec       q    Type
REMARK                         _______ _______ _______ _____ _____    ______ ____
ROOT
ATOM      1  C   UNL     1       1.138   9.756  19.015  0.00  0.00    +0.000 A 
ATOM      2  C   UNL     1       1.850   8.792  18.296  0.00  0.00    +0.000 A 
ATOM      3  C   UNL     1       2.215   7.586  18.905  0.00  0.00    +0.000 A 
ATOM      4  C   UNL     1       1.834   7.301  20.230  0.00  0.00    +0.000 A 
ATOM      5  C   UNL     1       1.080   8.252  20.937  0.00  0.00    +0.000 A 
ATOM      6  C   UNL     1       0.765   9.484  20.344  0.00  0.00    +0.000 A 
ENDROOT
BRANCH   4   7
ATOM      7  N   UNL     1       2.188   6.057  20.836  0.00  0.00    +0.000 N 
ATOM      8  C   UNL     1       2.937   5.068  20.136  0.00  0.00    +0.000 A 
ATOM      9  C   UNL     1       2.904   3.725  20.529  0.00  0.00    +0.000 A 
ATOM     10  C   UNL     1       3.683   2.805  19.818  0.00  0.00    +0.000 A 
ATOM     11  N   UNL     1       4.488   3.230  18.809  0.00  0.00    +0.000 NA
ATOM     12  C   UNL     1       4.542   4.543  18.454  0.00  0.00    +0.000 A 
ATOM     13  N   UNL     1       5.447   4.997  17.447  0.00  0.00    +0.000 N 
ATOM     14  C   UNL     1       6.287   4.076  16.692  0.00  0.00    +0.000 C 
ATOM     15  C   UNL     1       5.983   4.265  15.204  0.00  0.00    +0.000 C 
ATOM     16  N   UNL     1       6.180   5.675  14.825  0.00  0.00    +0.000 NA
ATOM     17  C   UNL     1       5.290   6.556  15.599  0.00  0.00    +0.000 C 
ATOM     18  C   UNL     1       5.576   6.402  17.095  0.00  0.00    +0.000 C 
ATOM     19  N   UNL     1       3.756   5.437  19.113  0.00  0.00    +0.000 NA
ATOM     20  H   UNL     1       1.967   5.898  21.830  0.00  0.00    +0.000 HD
ATOM     21  H   UNL     1       5.953   5.784  13.807  0.00  0.00    +0.000 HD
ENDBRANCH   4   7
BRANCH   1  22
ATOM     22  N   UNL     1       0.847  11.019  18.427  0.00  0.00    +0.000 N 
ATOM     23  H   UNL     1       1.330  11.228  17.544  0.00  0.00    +0.000 HD
BRANCH  22  25
ATOM     24  O   UNL     1       2.009  12.886  19.930  0.00  0.00    +0.000 OA
ATOM     25  S   UNL     1       0.624  12.465  19.414  0.00  0.00    +0.000 S 
ATOM     26  O   UNL     1       0.354  13.556  18.364  0.00  0.00    +0.000 OA
BRANCH  25  27
ATOM     27  C   UNL     1      -0.678  12.492  20.647  0.00  0.00    +0.000 A 
ATOM     28  C   UNL     1      -2.001  12.712  20.255  0.00  0.00    +0.000 A 
ATOM     29  C   UNL     1      -3.020  12.753  21.215  0.00  0.00    +0.000 A 
ATOM     30  C   UNL     1      -2.716  12.573  22.570  0.00  0.00    +0.000 A 
ATOM     31 CL   UNL     1      -3.991  12.641  23.772  0.00  0.00    +0.000 Cl
ATOM     32  C   UNL     1      -1.394  12.342  22.963  0.00  0.00    +0.000 A 
ATOM     33  C   UNL     1      -0.376  12.301  22.006  0.00  0.00    +0.000 A 
ENDBRANCH  25  27
ENDBRANCH  22  25
ENDBRANCH   1  22
TORSDOF 4
ENDMDL
MODEL 5
REMARK VINA RESULT:      -9.0      1.892      2.297
REMARK  Name = 
REMARK  4 active torsions:
REMARK  status: ('A' for Active; 'I' for Inactive)
REMARK    1  A    between atoms: S_2  and  N_4
REMARK    2  A    between atoms: S_2  and  C_24
REMARK    3  A    between atoms: N_4  and  C_5
REMARK    4  A    between atoms: C_8  and  N_9
REMARK                            x       y       z     vdW  Elec       q    Type
REMARK                         _______ _______ _______ _____ _____    ______ ____
ROOT
ATOM      1  C   UNL     1       1.093   9.703  19.523  0.00  0.00    +0.000 A 
ATOM      2  C   UNL     1       1.774   8.787  18.716  0.00  0.00    +0.000 A 
ATOM      3  C   UNL     1       2.121   7.528  19.219  0.00  0.00    +0.000 A 
ATOM      4  C   UNL     1       1.752   7.142  20.522  0.00  0.00    +0.000 A 
ATOM      5  C   UNL     1       1.028   8.046  21.316  0.00  0.00    +0.000 A 
ATOM      6  C   UNL     1       0.733   9.329  20.831  0.00  0.00    +0.000 A 
ENDROOT
BRANCH   4   7
ATOM      7  N   UNL     1       2.087   5.845  21.018  0.00  0.00    +0.000 N 
ATOM      8  C   UNL     1       2.803   4.901  20.227  0.00  0.00    +0.000 A 
ATOM      9  C   UNL     1       2.746   3.531  20.509  0.00  0.00    +0.000 A 
ATOM     10  C   UNL     1       3.492   2.657  19.712  0.00  0.00    +0.000 A 
ATOM     11  N   UNL     1       4.291   3.146  18.727  0.00  0.00    +0.000 NA
ATOM     12  C   UNL     1       4.370   4.482  18.480  0.00  0.00    +0.000 A 
ATOM     13  N   UNL     1       5.269   4.998  17.499  0.00  0.00    +0.000 N 
ATOM     14  C   UNL     1       6.076   4.125  16.657  0.00  0.00    +0.000 C 
ATOM     15  C   UNL     1       5.753   4.442  15.194  0.00  0.00    +0.000 C 
ATOM     16  N   UNL     1       5.976   5.873  14.928  0.00  0.00    +0.000 NA
ATOM     17  C   UNL     1       5.119   6.706  15.787  0.00  0.00    +0.000 C 
ATOM     18  C   UNL     1       5.424   6.425  17.260  0.00  0.00    +0.000 C 
ATOM     19  N   UNL     1       3.614   5.336  19.224  0.00  0.00    +0.000 NA
ATOM     20  H   UNL     1       1.877   5.609  22.000  0.00  0.00    +0.000 HD
ATOM     21  H   UNL     1       5.736   6.070  13.927  0.00  0.00    +0.000 HD
ENDBRANCH   4   7
BRANCH   1  22
ATOM     22  N   UNL     1       0.822  11.015  19.047  0.00  0.00    +0.000 N 
ATOM     23  H   UNL     1       1.499  11.742  19.314  0.00  0.00    +0.000 HD
BRANCH  22  25
ATOM     24  O   UNL     1      -0.831  12.785  17.937  0.00  0.00    +0.000 OA
ATOM     25  S   UNL     1      -0.825  11.646  18.969  0.00  0.00    +0.000 S 
ATOM     26  O   UNL     1      -1.575  10.545  18.200  0.00  0.00    +0.000 OA
BRANCH  25  27
ATOM     27  C   UNL     1      -1.698  12.007  20.492  0.00  0.00    +0.000 A 
ATOM     28  C   UNL     1      -1.098  11.723  21.722  0.00  0.00    +0.000 A 
ATOM     29  C   UNL     1      -1.782  11.985  22.914  0.00  0.00    +0.000 A 
ATOM     30  C   UNL     1      -3.069  12.534  22.879  0.00  0.00    +0.000 A 
ATOM     31 CL   UNL     1      -3.932  12.846  24.374  0.00  0.00    +0.000 Cl
ATOM     32  C   UNL     1      -3.669  12.829  21.651  0.00  0.00    +0.000 A 
ATOM     33  C   UNL     1      -2.986  12.568  20.459  0.00  0.00    +0.000 A 
ENDBRANCH  25  27
ENDBRANCH  22  25
ENDBRANCH   1  22
TORSDOF 4
ENDMDL
MODEL 6
REMARK VINA RESULT:      -9.0      4.470     10.511
REMARK  Name = 
REMARK  4 active torsions:
REMARK  status: ('A' for Active; 'I' for Inactive)
REMARK    1  A    between atoms: S_2  and  N_4
REMARK    2  A    between atoms: S_2  and  C_24
REMARK    3  A    between atoms: N_4  and  C_5
REMARK    4  A    between atoms: C_8  and  N_9
REMARK                            x       y       z     vdW  Elec       q    Type
REMARK                         _______ _______ _______ _____ _____    ______ ____
ROOT
ATOM      1  C   UNL     1      -0.223  10.854  19.501  0.00  0.00    +0.000 A 
ATOM      2  C   UNL     1      -0.713  10.095  18.433  0.00  0.00    +0.000 A 
ATOM      3  C   UNL     1      -1.940  10.418  17.845  0.00  0.00    +0.000 A 
ATOM      4  C   UNL     1      -2.680  11.535  18.280  0.00  0.00    +0.000 A 
ATOM      5  C   UNL     1      -2.166  12.322  19.322  0.00  0.00    +0.000 A 
ATOM      6  C   UNL     1      -0.964  11.963  19.950  0.00  0.00    +0.000 A 
ENDROOT
BRANCH   4   7
ATOM      7  N   UNL     1      -3.920  11.872  17.656  0.00  0.00    +0.000 N 
ATOM      8  C   UNL     1      -5.107  12.088  18.413  0.00  0.00    +0.000 A 
ATOM      9  C   UNL     1      -6.371  11.975  17.822  0.00  0.00    +0.000 A 
ATOM     10  C   UNL     1      -7.499  12.226  18.611  0.00  0.00    +0.000 A 
ATOM     11  N   UNL     1      -7.352  12.622  19.903  0.00  0.00    +0.000 NA
ATOM     12  C   UNL     1      -6.119  12.765  20.462  0.00  0.00    +0.000 A 
ATOM     13  N   UNL     1      -5.966  13.258  21.793  0.00  0.00    +0.000 N 
ATOM     14  C   UNL     1      -7.112  13.546  22.646  0.00  0.00    +0.000 C 
ATOM     15  C   UNL     1      -6.978  12.712  23.922  0.00  0.00    +0.000 C 
ATOM     16  N   UNL     1      -5.687  12.991  24.573  0.00  0.00    +0.000 NA
ATOM     17  C   UNL     1      -4.566  12.658  23.677  0.00  0.00    +0.000 C 
ATOM     18  C   UNL     1      -4.661  13.485  22.393  0.00  0.00    +0.000 C 
ATOM     19  N   UNL     1      -5.018  12.482  19.713  0.00  0.00    +0.000 NA
ATOM     20  H   UNL     1      -3.944  12.042  16.639  0.00  0.00    +0.000 HD
ATOM     21  H   UNL     1      -5.610  12.400  25.435  0.00  0.00    +0.000 HD
ENDBRANCH   4   7
BRANCH   1  22
ATOM     22  N   UNL     1       0.978  10.473  20.161  0.00  0.00    +0.000 N 
ATOM     23  H   UNL     1       1.854  10.734  19.690  0.00  0.00    +0.000 HD
BRANCH  22  25
ATOM     24  O   UNL     1       1.767   9.205  22.366  0.00  0.00    +0.000 OA
ATOM     25  S   UNL     1       1.117   8.927  21.001  0.00  0.00    +0.000 S 
ATOM     26  O   UNL     1      -0.334   8.634  21.418  0.00  0.00    +0.000 OA
BRANCH  25  27
ATOM     27  C   UNL     1       1.781   7.510  20.127  0.00  0.00    +0.000 A 
ATOM     28  C   UNL     1       1.755   6.249  20.728  0.00  0.00    +0.000 A 
ATOM     29  C   UNL     1       2.289   5.141  20.058  0.00  0.00    +0.000 A 
ATOM     30  C   UNL     1       2.849   5.293  18.784  0.00  0.00    +0.000 A 
ATOM     31 CL   UNL     1       3.531   3.908  17.953  0.00  0.00    +0.000 Cl
ATOM     32  C   UNL     1       2.866   6.552  18.176  0.00  0.00    +0.000 A 
ATOM     33  C   UNL     1       2.333   7.660  18.843  0.00  0.00    +0.000 A 
ENDBRANCH  25  27
ENDBRANCH  22  25
ENDBRANCH   1  22
TORSDOF 4
ENDMDL
MODEL 7
REMARK VINA RESULT:      -9.0      0.897      1.569
REMARK  Name = 
REMARK  4 active torsions:
REMARK  status: ('A' for Active; 'I' for Inactive)
REMARK    1  A    between atoms: S_2  and  N_4
REMARK    2  A    between atoms: S_2  and  C_24
REMARK    3  A    between atoms: N_4  and  C_5
REMARK    4  A    between atoms: C_8  and  N_9
REMARK                            x       y       z     vdW  Elec       q    Type
REMARK                         _______ _______ _______ _____ _____    ______ ____
ROOT
ATOM      1  C   UNL     1       1.289   9.669  18.878  0.00  0.00    +0.000 A 
ATOM      2  C   UNL     1       0.862   9.422  20.186  0.00  0.00    +0.000 A 
ATOM      3  C   UNL     1       1.112   8.184  20.786  0.00  0.00    +0.000 A 
ATOM      4  C   UNL     1       1.835   7.183  20.108  0.00  0.00    +0.000 A 
ATOM      5  C   UNL     1       2.302   7.448  18.811  0.00  0.00    +0.000 A 
ATOM      6  C   UNL     1       2.000   8.669  18.189  0.00  0.00    +0.000 A 
ENDROOT
BRANCH   4   7
ATOM      7  N   UNL     1       2.108   5.931  20.738  0.00  0.00    +0.000 N 
ATOM      8  C   UNL     1       3.053   5.011  20.203  0.00  0.00    +0.000 A 
ATOM      9  C   UNL     1       3.005   3.651  20.532  0.00  0.00    +0.000 A 
ATOM     10  C   UNL     1       3.979   2.802  19.995  0.00  0.00    +0.000 A 
ATOM     11  N   UNL     1       4.971   3.309  19.217  0.00  0.00    +0.000 NA
ATOM     12  C   UNL     1       5.033   4.638  18.929  0.00  0.00    +0.000 A 
ATOM     13  N   UNL     1       6.121   5.179  18.178  0.00  0.00    +0.000 N 
ATOM     14  C   UNL     1       7.164   4.334  17.612  0.00  0.00    +0.000 C 
ATOM     15  C   UNL     1       7.205   4.575  16.101  0.00  0.00    +0.000 C 
ATOM     16  N   UNL     1       7.405   6.008  15.826  0.00  0.00    +0.000 NA
ATOM     17  C   UNL     1       6.312   6.810  16.398  0.00  0.00    +0.000 C 
ATOM     18  C   UNL     1       6.249   6.603  17.912  0.00  0.00    +0.000 C 
ATOM     19  N   UNL     1       4.066   5.464  19.413  0.00  0.00    +0.000 NA
ATOM     20  H   UNL     1       1.670   5.717  21.647  0.00  0.00    +0.000 HD
ATOM     21  H   UNL     1       7.416   6.152  14.787  0.00  0.00    +0.000 HD
ENDBRANCH   4   7
BRANCH   1  22
ATOM     22  N   UNL     1       0.955  10.892  18.233  0.00  0.00    +0.000 N 
ATOM     23  H   UNL     1       1.631  11.235  17.538  0.00  0.00    +0.000 HD
BRANCH  22  25
ATOM     24  O   UNL     1       0.951  12.404  20.425  0.00  0.00    +0.000 OA
ATOM     25  S   UNL     1       0.182  12.214  19.108  0.00  0.00    +0.000 S 
ATOM     26  O   UNL     1       0.633  13.456  18.320  0.00  0.00    +0.000 OA
BRANCH  25  27
ATOM     27  C   UNL     1      -1.604  12.232  19.271  0.00  0.00    +0.000 A 
ATOM     28  C   UNL     1      -2.395  11.594  18.313  0.00  0.00    +0.000 A 
ATOM     29  C   UNL     1      -3.790  11.620  18.424  0.00  0.00    +0.000 A 
ATOM     30  C   UNL     1      -4.397  12.283  19.497  0.00  0.00    +0.000 A 
ATOM     31 CL   UNL     1      -6.146  12.329  19.626  0.00  0.00    +0.000 Cl
ATOM     32  C   UNL     1      -3.608  12.914  20.464  0.00  0.00    +0.000 A 
ATOM     33  C   UNL     1      -2.214  12.888  20.354  0.00  0.00    +0.000 A 
ENDBRANCH  25  27
ENDBRANCH  22  25
ENDBRANCH   1  22
TORSDOF 4
ENDMDL
MODEL 8
REMARK VINA RESULT:      -8.9      4.498     10.637
REMARK  Name = 
REMARK  4 active torsions:
REMARK  status: ('A' for Active; 'I' for Inactive)
REMARK    1  A    between atoms: S_2  and  N_4
REMARK    2  A    between atoms: S_2  and  C_24
REMARK    3  A    between atoms: N_4  and  C_5
REMARK    4  A    between atoms: C_8  and  N_9
REMARK                            x       y       z     vdW  Elec       q    Type
REMARK                         _______ _______ _______ _____ _____    ______ ____
ROOT
ATOM      1  C   UNL     1      -0.422  10.754  19.456  0.00  0.00    +0.000 A 
ATOM      2  C   UNL     1      -1.197  11.781  20.002  0.00  0.00    +0.000 A 
ATOM      3  C   UNL     1      -2.384  12.175  19.376  0.00  0.00    +0.000 A 
ATOM      4  C   UNL     1      -2.845  11.519  18.219  0.00  0.00    +0.000 A 
ATOM      5  C   UNL     1      -2.089  10.457  17.697  0.00  0.00    +0.000 A 
ATOM      6  C   UNL     1      -0.869  10.102  18.293  0.00  0.00    +0.000 A 
ENDROOT
BRANCH   4   7
ATOM      7  N   UNL     1      -4.072  11.911  17.601  0.00  0.00    +0.000 N 
ATOM      8  C   UNL     1      -5.241  12.193  18.365  0.00  0.00    +0.000 A 
ATOM      9  C   UNL     1      -6.513  12.136  17.785  0.00  0.00    +0.000 A 
ATOM     10  C   UNL     1      -7.621  12.449  18.581  0.00  0.00    +0.000 A 
ATOM     11  N   UNL     1      -7.444  12.850  19.867  0.00  0.00    +0.000 NA
ATOM     12  C   UNL     1      -6.201  12.937  20.415  0.00  0.00    +0.000 A 
ATOM     13  N   UNL     1      -6.014  13.433  21.741  0.00  0.00    +0.000 N 
ATOM     14  C   UNL     1      -7.137  13.785  22.599  0.00  0.00    +0.000 C 
ATOM     15  C   UNL     1      -7.033  12.957  23.883  0.00  0.00    +0.000 C 
ATOM     16  N   UNL     1      -5.724  13.178  24.520  0.00  0.00    +0.000 NA
ATOM     17  C   UNL     1      -4.629  12.783  23.619  0.00  0.00    +0.000 C 
ATOM     18  C   UNL     1      -4.693  13.601  22.328  0.00  0.00    +0.000 C 
ATOM     19  N   UNL     1      -5.122  12.593  19.660  0.00  0.00    +0.000 NA
ATOM     20  H   UNL     1      -4.096  12.072  16.583  0.00  0.00    +0.000 HD
ATOM     21  H   UNL     1      -5.670  12.592  25.387  0.00  0.00    +0.000 HD
ENDBRANCH   4   7
BRANCH   1  22
ATOM     22  N   UNL     1       0.831  10.414  20.038  0.00  0.00    +0.000 N 
ATOM     23  H   UNL     1       1.665  10.656  19.488  0.00  0.00    +0.000 HD
BRANCH  22  25
ATOM     24  O   UNL     1       1.730   9.277  22.273  0.00  0.00    +0.000 OA
ATOM     25  S   UNL     1       1.051   8.915  20.942  0.00  0.00    +0.000 S 
ATOM     26  O   UNL     1      -0.376   8.590  21.416  0.00  0.00    +0.000 OA
BRANCH  25  27
ATOM     27  C   UNL     1       1.741   7.483  20.112  0.00  0.00    +0.000 A 
ATOM     28  C   UNL     1       2.322   7.626  18.849  0.00  0.00    +0.000 A 
ATOM     29  C   UNL     1       2.846   6.509  18.187  0.00  0.00    +0.000 A 
ATOM     30  C   UNL     1       2.790   5.246  18.789  0.00  0.00    +0.000 A 
ATOM     31 CL   UNL     1       3.432   3.845  17.951  0.00  0.00    +0.000 Cl
ATOM     32  C   UNL     1       2.218   5.102  20.056  0.00  0.00    +0.000 A 
ATOM     33  C   UNL     1       1.695   6.217  20.719  0.00  0.00    +0.000 A 
ENDBRANCH  25  27
ENDBRANCH  22  25
ENDBRANCH   1  22
TORSDOF 4
ENDMDL
MODEL 9
REMARK VINA RESULT:      -8.9      2.967      4.604
REMARK  Name = 
REMARK  4 active torsions:
REMARK  status: ('A' for Active; 'I' for Inactive)
REMARK    1  A    between atoms: S_2  and  N_4
REMARK    2  A    between atoms: S_2  and  C_24
REMARK    3  A    between atoms: N_4  and  C_5
REMARK    4  A    between atoms: C_8  and  N_9
REMARK                            x       y       z     vdW  Elec       q    Type
REMARK                         _______ _______ _______ _____ _____    ______ ____
ROOT
ATOM      1  C   UNL     1      -0.001   9.653  20.078  0.00  0.00    +0.000 A 
ATOM      2  C   UNL     1       0.033  10.068  18.743  0.00  0.00    +0.000 A 
ATOM      3  C   UNL     1       1.030   9.593  17.884  0.00  0.00    +0.000 A 
ATOM      4  C   UNL     1       1.984   8.659  18.330  0.00  0.00    +0.000 A 
ATOM      5  C   UNL     1       1.922   8.209  19.658  0.00  0.00    +0.000 A 
ATOM      6  C   UNL     1       0.957   8.729  20.533  0.00  0.00    +0.000 A 
ENDROOT
BRANCH   4   7
ATOM      7  N   UNL     1       2.983   8.160  17.438  0.00  0.00    +0.000 N 
ATOM      8  C   UNL     1       3.659   6.930  17.680  0.00  0.00    +0.000 A 
ATOM      9  C   UNL     1       4.901   6.661  17.094  0.00  0.00    +0.000 A 
ATOM     10  C   UNL     1       5.503   5.423  17.349  0.00  0.00    +0.000 A 
ATOM     11  N   UNL     1       4.859   4.496  18.105  0.00  0.00    +0.000 NA
ATOM     12  C   UNL     1       3.635   4.750  18.644  0.00  0.00    +0.000 A 
ATOM     13  N   UNL     1       2.927   3.745  19.370  0.00  0.00    +0.000 N 
ATOM     14  C   UNL     1       3.508   2.438  19.647  0.00  0.00    +0.000 C 
ATOM     15  C   UNL     1       3.512   2.230  21.163  0.00  0.00    +0.000 C 
ATOM     16  N   UNL     1       2.147   2.382  21.696  0.00  0.00    +0.000 NA
ATOM     17  C   UNL     1       1.620   3.727  21.410  0.00  0.00    +0.000 C 
ATOM     18  C   UNL     1       1.589   3.966  19.899  0.00  0.00    +0.000 C 
ATOM     19  N   UNL     1       3.062   5.967  18.435  0.00  0.00    +0.000 NA
ATOM     20  H   UNL     1       3.167   8.660  16.555  0.00  0.00    +0.000 HD
ATOM     21  H   UNL     1       2.175   2.249  22.735  0.00  0.00    +0.000 HD
ENDBRANCH   4   7
BRANCH   1  22
ATOM     22  N   UNL     1      -0.957  10.205  20.976  0.00  0.00    +0.000 N 
ATOM     23  H   UNL     1      -1.835  10.535  20.555  0.00  0.00    +0.000 HD
BRANCH  22  25
ATOM     24  O   UNL     1       0.103  10.265  23.418  0.00  0.00    +0.000 OA
ATOM     25  S   UNL     1      -0.466  11.205  22.344  0.00  0.00    +0.000 S 
ATOM     26  O   UNL     1       0.818  11.879  21.830  0.00  0.00    +0.000 OA
BRANCH  25  27
ATOM     27  C   UNL     1      -1.588  12.460  22.961  0.00  0.00    +0.000 A 
ATOM     28  C   UNL     1      -2.908  12.120  23.268  0.00  0.00    +0.000 A 
ATOM     29  C   UNL     1      -3.795  13.099  23.732  0.00  0.00    +0.000 A 
ATOM     30  C   UNL     1      -3.361  14.420  23.892  0.00  0.00    +0.000 A 
ATOM     31 CL   UNL     1      -4.478  15.648  24.458  0.00  0.00    +0.000 Cl
ATOM     32  C   UNL     1      -2.038  14.761  23.595  0.00  0.00    +0.000 A 
ATOM     33  C   UNL     1      -1.151  13.784  23.132  0.00  0.00    +0.000 A 
ENDBRANCH  25  27
ENDBRANCH  22  25
ENDBRANCH   1  22
TORSDOF 4
ENDMDL
