MODEL 1
REMARK VINA RESULT:      -7.5      0.000      0.000
REMARK  Name = 
REMARK  8 active torsions:
REMARK  status: ('A' for Active; 'I' for Inactive)
REMARK    1  A    between atoms: C_1  and  C_2
REMARK    2  A    between atoms: C_2  and  C_3
REMARK    3  A    between atoms: C_3  and  N_4
REMARK    4  A    between atoms: C_5  and  O_6
REMARK    5  A    between atoms: C_9  and  S_10
REMARK    6  A    between atoms: S_10  and  C_11
REMARK    7  A    between atoms: C_11  and  C_12
REMARK    8  A    between atoms: C_12  and  C_14
REMARK                            x       y       z     vdW  Elec       q    Type
REMARK                         _______ _______ _______ _____ _____    ______ ____
ROOT
ATOM      1  C   UNL     1       2.715   5.465  17.856  0.00  0.00    +0.000 C 
ENDROOT
BRANCH   1   2
ATOM      2  C   UNL     1       3.150   6.926  17.977  0.00  0.00    +0.000 C 
ATOM      3  O   UNL     1       4.212   7.357  17.525  0.00  0.00    +0.000 OA
BRANCH   2   4
ATOM      4  C   UNL     1       2.250   7.900  18.685  0.00  0.00    +0.000 A 
ATOM      5  C   UNL     1       1.670   8.942  17.938  0.00  0.00    +0.000 A 
ATOM      6  C   UNL     1       0.823   9.877  18.543  0.00  0.00    +0.000 A 
ATOM      7  C   UNL     1       0.554   9.785  19.905  0.00  0.00    +0.000 A 
ATOM      8  C   UNL     1       1.110   8.743  20.652  0.00  0.00    +0.000 A 
ATOM      9  C   UNL     1       1.964   7.809  20.052  0.00  0.00    +0.000 A 
ATOM     10  O   UNL     1       0.870   8.575  21.994  0.00  0.00    +0.000 OA
ATOM     11  C   UNL     1      -0.245   9.360  22.438  0.00  0.00    +0.000 C 
ATOM     12  C   UNL     1      -0.178  10.769  21.870  0.00  0.00    +0.000 C 
ATOM     13  O   UNL     1      -0.266  10.744  20.440  0.00  0.00    +0.000 OA
ENDBRANCH   2   4
ENDBRANCH   1   2
BRANCH   1  14
ATOM     14  S   UNL     1       3.473   4.430  19.165  0.00  0.00    +0.000 S 
BRANCH  14  19
ATOM     15  N   UNL     1       5.766   4.350  17.645  0.00  0.00    +0.000 N 
ATOM     16  C   UNL     1       7.100   4.621  17.852  0.00  0.00    +0.000 A 
ATOM     17  N   UNL     1       7.279   5.051  19.077  0.00  0.00    +0.000 NA
ATOM     18  N   UNL     1       6.058   5.062  19.706  0.00  0.00    +0.000 NA
ATOM     19  C   UNL     1       5.163   4.633  18.847  0.00  0.00    +0.000 A 
BRANCH  16  20
ATOM     20  O   UNL     1       8.087   4.479  16.983  0.00  0.00    +0.000 OA
ATOM     21  H   UNL     1       8.775   3.905  17.346  0.00  0.00    +0.000 HD
ENDBRANCH  16  20
BRANCH  15  22
ATOM     22  C   UNL     1       5.179   3.772  16.455  0.00  0.00    +0.000 C 
BRANCH  22  24
ATOM     23  C   UNL     1       5.934   3.994  14.015  0.00  0.00    +0.000 C 
ATOM     24  C   UNL     1       5.235   4.648  15.200  0.00  0.00    +0.000 C 
ENDBRANCH  22  24
ENDBRANCH  15  22
ENDBRANCH  14  19
ENDBRANCH   1  14
TORSDOF 7
ENDMDL
MODEL 2
REMARK VINA RESULT:      -7.4      1.819      2.833
REMARK  Name = 
REMARK  8 active torsions:
REMARK  status: ('A' for Active; 'I' for Inactive)
REMARK    1  A    between atoms: C_1  and  C_2
REMARK    2  A    between atoms: C_2  and  C_3
REMARK    3  A    between atoms: C_3  and  N_4
REMARK    4  A    between atoms: C_5  and  O_6
REMARK    5  A    between atoms: C_9  and  S_10
REMARK    6  A    between atoms: S_10  and  C_11
REMARK    7  A    between atoms: C_11  and  C_12
REMARK    8  A    between atoms: C_12  and  C_14
REMARK                            x       y       z     vdW  Elec       q    Type
REMARK                         _______ _______ _______ _____ _____    ______ ____
ROOT
ATOM      1  C   UNL     1       3.005   4.087  19.054  0.00  0.00    +0.000 C 
ENDROOT
BRANCH   1   2
ATOM      2  C   UNL     1       2.514   5.083  20.105  0.00  0.00    +0.000 C 
ATOM      3  O   UNL     1       2.356   4.794  21.292  0.00  0.00    +0.000 OA
BRANCH   2   4
ATOM      4  C   UNL     1       2.200   6.493  19.685  0.00  0.00    +0.000 A 
ATOM      5  C   UNL     1       2.520   6.889  18.374  0.00  0.00    +0.000 A 
ATOM      6  C   UNL     1       2.250   8.188  17.928  0.00  0.00    +0.000 A 
ATOM      7  C   UNL     1       1.662   9.107  18.792  0.00  0.00    +0.000 A 
ATOM      8  C   UNL     1       1.323   8.717  20.091  0.00  0.00    +0.000 A 
ATOM      9  C   UNL     1       1.599   7.421  20.544  0.00  0.00    +0.000 A 
ATOM     10  O   UNL     1       0.719   9.562  20.990  0.00  0.00    +0.000 OA
ATOM     11  C   UNL     1       0.191  10.731  20.350  0.00  0.00    +0.000 C 
ATOM     12  C   UNL     1       1.187  11.303  19.354  0.00  0.00    +0.000 C 
ATOM     13  O   UNL     1       1.443  10.366  18.300  0.00  0.00    +0.000 OA
ENDBRANCH   2   4
ENDBRANCH   1   2
BRANCH   1  14
ATOM     14  S   UNL     1       4.824   3.870  19.135  0.00  0.00    +0.000 S 
BRANCH  14  19
ATOM     15  N   UNL     1       6.568   4.599  17.135  0.00  0.00    +0.000 N 
ATOM     16  C   UNL     1       6.481   4.814  15.778  0.00  0.00    +0.000 A 
ATOM     17  N   UNL     1       5.261   4.572  15.367  0.00  0.00    +0.000 NA
ATOM     18  N   UNL     1       4.513   4.199  16.458  0.00  0.00    +0.000 NA
ATOM     19  C   UNL     1       5.299   4.227  17.508  0.00  0.00    +0.000 A 
BRANCH  16  20
ATOM     20  O   UNL     1       7.451   5.211  14.970  0.00  0.00    +0.000 OA
ATOM     21  H   UNL     1       7.095   5.429  14.098  0.00  0.00    +0.000 HD
ENDBRANCH  16  20
BRANCH  15  22
ATOM     22  C   UNL     1       7.721   4.844  17.975  0.00  0.00    +0.000 C 
BRANCH  22  24
ATOM     23  C   UNL     1       7.752   7.403  17.833  0.00  0.00    +0.000 C 
ATOM     24  C   UNL     1       7.712   6.175  18.732  0.00  0.00    +0.000 C 
ENDBRANCH  22  24
ENDBRANCH  15  22
ENDBRANCH  14  19
ENDBRANCH   1  14
TORSDOF 7
ENDMDL
MODEL 3
REMARK VINA RESULT:      -7.4      1.311      1.413
REMARK  Name = 
REMARK  8 active torsions:
REMARK  status: ('A' for Active; 'I' for Inactive)
REMARK    1  A    between atoms: C_1  and  C_2
REMARK    2  A    between atoms: C_2  and  C_3
REMARK    3  A    between atoms: C_3  and  N_4
REMARK    4  A    between atoms: C_5  and  O_6
REMARK    5  A    between atoms: C_9  and  S_10
REMARK    6  A    between atoms: S_10  and  C_11
REMARK    7  A    between atoms: C_11  and  C_12
REMARK    8  A    between atoms: C_12  and  C_14
REMARK                            x       y       z     vdW  Elec       q    Type
REMARK                         _______ _______ _______ _____ _____    ______ ____
ROOT
ATOM      1  C   UNL     1       3.417   4.841  19.863  0.00  0.00    +0.000 C 
ENDROOT
BRANCH   1   2
ATOM      2  C   UNL     1       2.665   5.578  18.754  0.00  0.00    +0.000 C 
ATOM      3  O   UNL     1       2.434   5.087  17.648  0.00  0.00    +0.000 OA
BRANCH   2   4
ATOM      4  C   UNL     1       2.176   6.978  19.008  0.00  0.00    +0.000 A 
ATOM      5  C   UNL     1       2.088   7.864  17.920  0.00  0.00    +0.000 A 
ATOM      6  C   UNL     1       1.640   9.178  18.096  0.00  0.00    +0.000 A 
ATOM      7  C   UNL     1       1.282   9.622  19.365  0.00  0.00    +0.000 A 
ATOM      8  C   UNL     1       1.348   8.742  20.450  0.00  0.00    +0.000 A 
ATOM      9  C   UNL     1       1.803   7.429  20.280  0.00  0.00    +0.000 A 
ATOM     10  O   UNL     1       0.988   9.102  21.726  0.00  0.00    +0.000 OA
ATOM     11  C   UNL     1       0.243  10.328  21.744  0.00  0.00    +0.000 C 
ATOM     12  C   UNL     1       0.884  11.366  20.836  0.00  0.00    +0.000 C 
ATOM     13  O   UNL     1       0.871  10.924  19.474  0.00  0.00    +0.000 OA
ENDBRANCH   2   4
ENDBRANCH   1   2
BRANCH   1  14
ATOM     14  S   UNL     1       4.725   3.755  19.176  0.00  0.00    +0.000 S 
BRANCH  14  19
ATOM     15  N   UNL     1       6.165   5.409  17.513  0.00  0.00    +0.000 N 
ATOM     16  C   UNL     1       7.257   6.236  17.647  0.00  0.00    +0.000 A 
ATOM     17  N   UNL     1       7.666   6.234  18.892  0.00  0.00    +0.000 NA
ATOM     18  N   UNL     1       6.848   5.391  19.605  0.00  0.00    +0.000 NA
ATOM     19  C   UNL     1       5.962   4.897  18.773  0.00  0.00    +0.000 A 
BRANCH  16  20
ATOM     20  O   UNL     1       7.846   6.939  16.693  0.00  0.00    +0.000 OA
ATOM     21  H   UNL     1       7.338   7.739  16.502  0.00  0.00    +0.000 HD
ENDBRANCH  16  20
BRANCH  15  22
ATOM     22  C   UNL     1       5.483   5.072  16.282  0.00  0.00    +0.000 C 
BRANCH  22  24
ATOM     23  C   UNL     1       5.785   4.099  13.930  0.00  0.00    +0.000 C 
ATOM     24  C   UNL     1       6.194   4.045  15.396  0.00  0.00    +0.000 C 
ENDBRANCH  22  24
ENDBRANCH  15  22
ENDBRANCH  14  19
ENDBRANCH   1  14
TORSDOF 7
ENDMDL
MODEL 4
REMARK VINA RESULT:      -7.3      2.144      3.492
REMARK  Name = 
REMARK  8 active torsions:
REMARK  status: ('A' for Active; 'I' for Inactive)
REMARK    1  A    between atoms: C_1  and  C_2
REMARK    2  A    between atoms: C_2  and  C_3
REMARK    3  A    between atoms: C_3  and  N_4
REMARK    4  A    between atoms: C_5  and  O_6
REMARK    5  A    between atoms: C_9  and  S_10
REMARK    6  A    between atoms: S_10  and  C_11
REMARK    7  A    between atoms: C_11  and  C_12
REMARK    8  A    between atoms: C_12  and  C_14
REMARK                            x       y       z     vdW  Elec       q    Type
REMARK                         _______ _______ _______ _____ _____    ______ ____
ROOT
ATOM      1  C   UNL     1       4.003   3.420  19.180  0.00  0.00    +0.000 C 
ENDROOT
BRANCH   1   2
ATOM      2  C   UNL     1       2.667   3.994  18.709  0.00  0.00    +0.000 C 
ATOM      3  O   UNL     1       1.837   3.345  18.071  0.00  0.00    +0.000 OA
BRANCH   2   4
ATOM      4  C   UNL     1       2.333   5.426  19.027  0.00  0.00    +0.000 A 
ATOM      5  C   UNL     1       1.943   5.747  20.340  0.00  0.00    +0.000 A 
ATOM      6  C   UNL     1       1.621   7.062  20.695  0.00  0.00    +0.000 A 
ATOM      7  C   UNL     1       1.680   8.070  19.737  0.00  0.00    +0.000 A 
ATOM      8  C   UNL     1       2.085   7.764  18.434  0.00  0.00    +0.000 A 
ATOM      9  C   UNL     1       2.400   6.448  18.073  0.00  0.00    +0.000 A 
ATOM     10  O   UNL     1       2.189   8.710  17.444  0.00  0.00    +0.000 OA
ATOM     11  C   UNL     1       2.167  10.042  17.974  0.00  0.00    +0.000 C 
ATOM     12  C   UNL     1       1.078  10.190  19.025  0.00  0.00    +0.000 C 
ATOM     13  O   UNL     1       1.333   9.331  20.143  0.00  0.00    +0.000 OA
ENDBRANCH   2   4
ENDBRANCH   1   2
BRANCH   1  14
ATOM     14  S   UNL     1       5.316   4.699  19.184  0.00  0.00    +0.000 S 
BRANCH  14  19
ATOM     15  N   UNL     1       6.912   5.398  17.053  0.00  0.00    +0.000 N 
ATOM     16  C   UNL     1       6.983   5.063  15.720  0.00  0.00    +0.000 A 
ATOM     17  N   UNL     1       6.072   4.163  15.440  0.00  0.00    +0.000 NA
ATOM     18  N   UNL     1       5.372   3.895  16.592  0.00  0.00    +0.000 NA
ATOM     19  C   UNL     1       5.874   4.643  17.546  0.00  0.00    +0.000 A 
BRANCH  16  20
ATOM     20  O   UNL     1       7.819   5.551  14.818  0.00  0.00    +0.000 OA
ATOM     21  H   UNL     1       7.945   4.918  14.098  0.00  0.00    +0.000 HD
ENDBRANCH  16  20
BRANCH  15  22
ATOM     22  C   UNL     1       7.685   6.419  17.728  0.00  0.00    +0.000 C 
BRANCH  22  24
ATOM     23  C   UNL     1       8.244   8.908  17.978  0.00  0.00    +0.000 C 
ATOM     24  C   UNL     1       7.304   7.864  17.391  0.00  0.00    +0.000 C 
ENDBRANCH  22  24
ENDBRANCH  15  22
ENDBRANCH  14  19
ENDBRANCH   1  14
TORSDOF 7
ENDMDL
MODEL 5
REMARK VINA RESULT:      -7.2      1.562      2.314
REMARK  Name = 
REMARK  8 active torsions:
REMARK  status: ('A' for Active; 'I' for Inactive)
REMARK    1  A    between atoms: C_1  and  C_2
REMARK    2  A    between atoms: C_2  and  C_3
REMARK    3  A    between atoms: C_3  and  N_4
REMARK    4  A    between atoms: C_5  and  O_6
REMARK    5  A    between atoms: C_9  and  S_10
REMARK    6  A    between atoms: S_10  and  C_11
REMARK    7  A    between atoms: C_11  and  C_12
REMARK    8  A    between atoms: C_12  and  C_14
REMARK                            x       y       z     vdW  Elec       q    Type
REMARK                         _______ _______ _______ _____ _____    ______ ____
ROOT
ATOM      1  C   UNL     1       3.247   5.481  18.788  0.00  0.00    +0.000 C 
ENDROOT
BRANCH   1   2
ATOM      2  C   UNL     1       3.157   6.893  18.209  0.00  0.00    +0.000 C 
ATOM      3  O   UNL     1       3.798   7.265  17.225  0.00  0.00    +0.000 OA
BRANCH   2   4
ATOM      4  C   UNL     1       2.246   7.895  18.865  0.00  0.00    +0.000 A 
ATOM      5  C   UNL     1       1.723   8.939  18.081  0.00  0.00    +0.000 A 
ATOM      6  C   UNL     1       0.871   9.900  18.636  0.00  0.00    +0.000 A 
ATOM      7  C   UNL     1       0.537   9.830  19.985  0.00  0.00    +0.000 A 
ATOM      8  C   UNL     1       1.036   8.785  20.769  0.00  0.00    +0.000 A 
ATOM      9  C   UNL     1       1.896   7.826  20.218  0.00  0.00    +0.000 A 
ATOM     10  O   UNL     1       0.731   8.638  22.100  0.00  0.00    +0.000 OA
ATOM     11  C   UNL     1      -0.385   9.452  22.483  0.00  0.00    +0.000 C 
ATOM     12  C   UNL     1      -0.261  10.852  21.904  0.00  0.00    +0.000 C 
ATOM     13  O   UNL     1      -0.284  10.812  20.472  0.00  0.00    +0.000 OA
ENDBRANCH   2   4
ENDBRANCH   1   2
BRANCH   1  14
ATOM     14  S   UNL     1       4.983   5.014  19.146  0.00  0.00    +0.000 S 
BRANCH  14  19
ATOM     15  N   UNL     1       6.761   5.392  17.080  0.00  0.00    +0.000 N 
ATOM     16  C   UNL     1       6.874   4.952  15.780  0.00  0.00    +0.000 A 
ATOM     17  N   UNL     1       5.894   4.128  15.504  0.00  0.00    +0.000 NA
ATOM     18  N   UNL     1       5.105   4.017  16.624  0.00  0.00    +0.000 NA
ATOM     19  C   UNL     1       5.625   4.781  17.555  0.00  0.00    +0.000 A 
BRANCH  16  20
ATOM     20  O   UNL     1       7.807   5.287  14.903  0.00  0.00    +0.000 OA
ATOM     21  H   UNL     1       7.660   6.187  14.583  0.00  0.00    +0.000 HD
ENDBRANCH  16  20
BRANCH  15  22
ATOM     22  C   UNL     1       7.595   6.379  17.731  0.00  0.00    +0.000 C 
BRANCH  22  24
ATOM     23  C   UNL     1       8.254   8.843  17.981  0.00  0.00    +0.000 C 
ATOM     24  C   UNL     1       7.269   7.838  17.401  0.00  0.00    +0.000 C 
ENDBRANCH  22  24
ENDBRANCH  15  22
ENDBRANCH  14  19
ENDBRANCH   1  14
TORSDOF 7
ENDMDL
MODEL 6
REMARK VINA RESULT:      -7.2      1.884      2.670
REMARK  Name = 
REMARK  8 active torsions:
REMARK  status: ('A' for Active; 'I' for Inactive)
REMARK    1  A    between atoms: C_1  and  C_2
REMARK    2  A    between atoms: C_2  and  C_3
REMARK    3  A    between atoms: C_3  and  N_4
REMARK    4  A    between atoms: C_5  and  O_6
REMARK    5  A    between atoms: C_9  and  S_10
REMARK    6  A    between atoms: S_10  and  C_11
REMARK    7  A    between atoms: C_11  and  C_12
REMARK    8  A    between atoms: C_12  and  C_14
REMARK                            x       y       z     vdW  Elec       q    Type
REMARK                         _______ _______ _______ _____ _____    ______ ____
ROOT
ATOM      1  C   UNL     1       3.486   5.424  17.568  0.00  0.00    +0.000 C 
ENDROOT
BRANCH   1   2
ATOM      2  C   UNL     1       3.192   5.896  18.992  0.00  0.00    +0.000 C 
ATOM      3  O   UNL     1       3.545   5.278  19.998  0.00  0.00    +0.000 OA
BRANCH   2   4
ATOM      4  C   UNL     1       2.430   7.177  19.195  0.00  0.00    +0.000 A 
ATOM      5  C   UNL     1       2.263   8.039  18.096  0.00  0.00    +0.000 A 
ATOM      6  C   UNL     1       1.563   9.244  18.225  0.00  0.00    +0.000 A 
ATOM      7  C   UNL     1       1.028   9.603  19.458  0.00  0.00    +0.000 A 
ATOM      8  C   UNL     1       1.172   8.744  20.552  0.00  0.00    +0.000 A 
ATOM      9  C   UNL     1       1.879   7.541  20.429  0.00  0.00    +0.000 A 
ATOM     10  O   UNL     1       0.651   9.021  21.793  0.00  0.00    +0.000 OA
ATOM     11  C   UNL     1      -0.310  10.084  21.741  0.00  0.00    +0.000 C 
ATOM     12  C   UNL     1       0.193  11.230  20.879  0.00  0.00    +0.000 C 
ATOM     13  O   UNL     1       0.372  10.803  19.523  0.00  0.00    +0.000 OA
ENDBRANCH   2   4
ENDBRANCH   1   2
BRANCH   1  14
ATOM     14  S   UNL     1       4.601   3.969  17.562  0.00  0.00    +0.000 S 
BRANCH  14  19
ATOM     15  N   UNL     1       6.689   4.994  16.090  0.00  0.00    +0.000 N 
ATOM     16  C   UNL     1       7.070   4.971  14.767  0.00  0.00    +0.000 A 
ATOM     17  N   UNL     1       6.226   4.247  14.075  0.00  0.00    +0.000 NA
ATOM     18  N   UNL     1       5.259   3.785  14.935  0.00  0.00    +0.000 NA
ATOM     19  C   UNL     1       5.538   4.243  16.132  0.00  0.00    +0.000 A 
BRANCH  16  20
ATOM     20  O   UNL     1       8.116   5.577  14.229  0.00  0.00    +0.000 OA
ATOM     21  H   UNL     1       7.971   5.724  13.285  0.00  0.00    +0.000 HD
ENDBRANCH  16  20
BRANCH  15  22
ATOM     22  C   UNL     1       7.308   5.757  17.153  0.00  0.00    +0.000 C 
BRANCH  22  24
ATOM     23  C   UNL     1       7.864   8.211  17.640  0.00  0.00    +0.000 C 
ATOM     24  C   UNL     1       6.783   7.185  17.331  0.00  0.00    +0.000 C 
ENDBRANCH  22  24
ENDBRANCH  15  22
ENDBRANCH  14  19
ENDBRANCH   1  14
TORSDOF 7
ENDMDL
MODEL 7
REMARK VINA RESULT:      -7.1      1.701      2.798
REMARK  Name = 
REMARK  8 active torsions:
REMARK  status: ('A' for Active; 'I' for Inactive)
REMARK    1  A    between atoms: C_1  and  C_2
REMARK    2  A    between atoms: C_2  and  C_3
REMARK    3  A    between atoms: C_3  and  N_4
REMARK    4  A    between atoms: C_5  and  O_6
REMARK    5  A    between atoms: C_9  and  S_10
REMARK    6  A    between atoms: S_10  and  C_11
REMARK    7  A    between atoms: C_11  and  C_12
REMARK    8  A    between atoms: C_12  and  C_14
REMARK                            x       y       z     vdW  Elec       q    Type
REMARK                         _______ _______ _______ _____ _____    ______ ____
ROOT
ATOM      1  C   UNL     1       3.151   5.258  18.667  0.00  0.00    +0.000 C 
ENDROOT
BRANCH   1   2
ATOM      2  C   UNL     1       3.145   6.724  18.232  0.00  0.00    +0.000 C 
ATOM      3  O   UNL     1       3.816   7.156  17.293  0.00  0.00    +0.000 OA
BRANCH   2   4
ATOM      4  C   UNL     1       2.284   7.705  18.980  0.00  0.00    +0.000 A 
ATOM      5  C   UNL     1       1.952   7.421  20.317  0.00  0.00    +0.000 A 
ATOM      6  C   UNL     1       1.155   8.297  21.063  0.00  0.00    +0.000 A 
ATOM      7  C   UNL     1       0.676   9.465  20.476  0.00  0.00    +0.000 A 
ATOM      8  C   UNL     1       1.017   9.765  19.153  0.00  0.00    +0.000 A 
ATOM      9  C   UNL     1       1.807   8.887  18.401  0.00  0.00    +0.000 A 
ATOM     10  O   UNL     1       0.601  10.908  18.516  0.00  0.00    +0.000 OA
ATOM     11  C   UNL     1       0.087  11.876  19.441  0.00  0.00    +0.000 C 
ATOM     12  C   UNL     1      -0.833  11.221  20.458  0.00  0.00    +0.000 C 
ATOM     13  O   UNL     1      -0.115  10.269  21.252  0.00  0.00    +0.000 OA
ENDBRANCH   2   4
ENDBRANCH   1   2
BRANCH   1  14
ATOM     14  S   UNL     1       4.846   4.686  19.066  0.00  0.00    +0.000 S 
BRANCH  14  19
ATOM     15  N   UNL     1       6.674   5.234  17.083  0.00  0.00    +0.000 N 
ATOM     16  C   UNL     1       6.856   4.850  15.773  0.00  0.00    +0.000 A 
ATOM     17  N   UNL     1       5.932   3.987  15.431  0.00  0.00    +0.000 NA
ATOM     18  N   UNL     1       5.111   3.792  16.517  0.00  0.00    +0.000 NA
ATOM     19  C   UNL     1       5.556   4.547  17.493  0.00  0.00    +0.000 A 
BRANCH  16  20
ATOM     20  O   UNL     1       7.800   5.266  14.944  0.00  0.00    +0.000 OA
ATOM     21  H   UNL     1       8.049   4.558  14.335  0.00  0.00    +0.000 HD
ENDBRANCH  16  20
BRANCH  15  22
ATOM     22  C   UNL     1       7.430   6.238  17.800  0.00  0.00    +0.000 C 
BRANCH  22  24
ATOM     23  C   UNL     1       8.174   8.685  17.976  0.00  0.00    +0.000 C 
ATOM     24  C   UNL     1       7.260   7.675  17.297  0.00  0.00    +0.000 C 
ENDBRANCH  22  24
ENDBRANCH  15  22
ENDBRANCH  14  19
ENDBRANCH   1  14
TORSDOF 7
ENDMDL
MODEL 8
REMARK VINA RESULT:      -7.1      1.545      1.973
REMARK  Name = 
REMARK  8 active torsions:
REMARK  status: ('A' for Active; 'I' for Inactive)
REMARK    1  A    between atoms: C_1  and  C_2
REMARK    2  A    between atoms: C_2  and  C_3
REMARK    3  A    between atoms: C_3  and  N_4
REMARK    4  A    between atoms: C_5  and  O_6
REMARK    5  A    between atoms: C_9  and  S_10
REMARK    6  A    between atoms: S_10  and  C_11
REMARK    7  A    between atoms: C_11  and  C_12
REMARK    8  A    between atoms: C_12  and  C_14
REMARK                            x       y       z     vdW  Elec       q    Type
REMARK                         _______ _______ _______ _____ _____    ______ ____
ROOT
ATOM      1  C   UNL     1       2.946   4.105  18.906  0.00  0.00    +0.000 C 
ENDROOT
BRANCH   1   2
ATOM      2  C   UNL     1       2.566   5.136  19.970  0.00  0.00    +0.000 C 
ATOM      3  O   UNL     1       2.477   4.871  21.170  0.00  0.00    +0.000 OA
BRANCH   2   4
ATOM      4  C   UNL     1       2.278   6.550  19.548  0.00  0.00    +0.000 A 
ATOM      5  C   UNL     1       2.659   6.955  18.256  0.00  0.00    +0.000 A 
ATOM      6  C   UNL     1       2.415   8.258  17.808  0.00  0.00    +0.000 A 
ATOM      7  C   UNL     1       1.794   9.174  18.652  0.00  0.00    +0.000 A 
ATOM      8  C   UNL     1       1.394   8.776  19.931  0.00  0.00    +0.000 A 
ATOM      9  C   UNL     1       1.643   7.475  20.386  0.00  0.00    +0.000 A 
ATOM     10  O   UNL     1       0.755   9.617  20.809  0.00  0.00    +0.000 OA
ATOM     11  C   UNL     1       0.262  10.794  20.155  0.00  0.00    +0.000 C 
ATOM     12  C   UNL     1       1.305  11.367  19.209  0.00  0.00    +0.000 C 
ATOM     13  O   UNL     1       1.603  10.438  18.161  0.00  0.00    +0.000 OA
ENDBRANCH   2   4
ENDBRANCH   1   2
BRANCH   1  14
ATOM     14  S   UNL     1       4.571   3.338  19.269  0.00  0.00    +0.000 S 
BRANCH  14  19
ATOM     15  N   UNL     1       6.102   4.661  17.403  0.00  0.00    +0.000 N 
ATOM     16  C   UNL     1       6.980   5.721  17.418  0.00  0.00    +0.000 A 
ATOM     17  N   UNL     1       7.056   6.217  18.628  0.00  0.00    +0.000 NA
ATOM     18  N   UNL     1       6.229   5.480  19.441  0.00  0.00    +0.000 NA
ATOM     19  C   UNL     1       5.672   4.548  18.704  0.00  0.00    +0.000 A 
BRANCH  16  20
ATOM     20  O   UNL     1       7.670   6.198  16.395  0.00  0.00    +0.000 OA
ATOM     21  H   UNL     1       7.635   7.164  16.387  0.00  0.00    +0.000 HD
ENDBRANCH  16  20
BRANCH  15  22
ATOM     22  C   UNL     1       5.815   3.794  16.280  0.00  0.00    +0.000 C 
BRANCH  22  24
ATOM     23  C   UNL     1       5.954   3.964  13.726  0.00  0.00    +0.000 C 
ATOM     24  C   UNL     1       5.333   4.500  15.009  0.00  0.00    +0.000 C 
ENDBRANCH  22  24
ENDBRANCH  15  22
ENDBRANCH  14  19
ENDBRANCH   1  14
TORSDOF 7
ENDMDL
MODEL 9
REMARK VINA RESULT:      -7.1      0.896      1.046
REMARK  Name = 
REMARK  8 active torsions:
REMARK  status: ('A' for Active; 'I' for Inactive)
REMARK    1  A    between atoms: C_1  and  C_2
REMARK    2  A    between atoms: C_2  and  C_3
REMARK    3  A    between atoms: C_3  and  N_4
REMARK    4  A    between atoms: C_5  and  O_6
REMARK    5  A    between atoms: C_9  and  S_10
REMARK    6  A    between atoms: S_10  and  C_11
REMARK    7  A    between atoms: C_11  and  C_12
REMARK    8  A    between atoms: C_12  and  C_14
REMARK                            x       y       z     vdW  Elec       q    Type
REMARK                         _______ _______ _______ _____ _____    ______ ____
ROOT
ATOM      1  C   UNL     1       3.008   5.872  19.915  0.00  0.00    +0.000 C 
ENDROOT
BRANCH   1   2
ATOM      2  C   UNL     1       2.604   7.041  19.016  0.00  0.00    +0.000 C 
ATOM      3  O   UNL     1       2.933   7.132  17.833  0.00  0.00    +0.000 OA
BRANCH   2   4
ATOM      4  C   UNL     1       1.764   8.149  19.591  0.00  0.00    +0.000 A 
ATOM      5  C   UNL     1       1.335   9.178  18.734  0.00  0.00    +0.000 A 
ATOM      6  C   UNL     1       0.551  10.234  19.213  0.00  0.00    +0.000 A 
ATOM      7  C   UNL     1       0.194  10.275  20.558  0.00  0.00    +0.000 A 
ATOM      8  C   UNL     1       0.600   9.246  21.413  0.00  0.00    +0.000 A 
ATOM      9  C   UNL     1       1.391   8.192  20.940  0.00  0.00    +0.000 A 
ATOM     10  O   UNL     1       0.266   9.208  22.745  0.00  0.00    +0.000 OA
ATOM     11  C   UNL     1      -0.789  10.127  23.056  0.00  0.00    +0.000 C 
ATOM     12  C   UNL     1      -0.550  11.474  22.394  0.00  0.00    +0.000 C 
ATOM     13  O   UNL     1      -0.556  11.345  20.967  0.00  0.00    +0.000 OA
ENDBRANCH   2   4
ENDBRANCH   1   2
BRANCH   1  14
ATOM     14  S   UNL     1       3.426   4.384  18.930  0.00  0.00    +0.000 S 
BRANCH  14  19
ATOM     15  N   UNL     1       5.798   4.340  17.535  0.00  0.00    +0.000 N 
ATOM     16  C   UNL     1       7.124   4.565  17.832  0.00  0.00    +0.000 A 
ATOM     17  N   UNL     1       7.244   4.916  19.088  0.00  0.00    +0.000 NA
ATOM     18  N   UNL     1       5.989   4.918  19.649  0.00  0.00    +0.000 NA
ATOM     19  C   UNL     1       5.135   4.564  18.718  0.00  0.00    +0.000 A 
BRANCH  16  20
ATOM     20  O   UNL     1       8.155   4.452  17.010  0.00  0.00    +0.000 OA
ATOM     21  H   UNL     1       8.295   5.278  16.529  0.00  0.00    +0.000 HD
ENDBRANCH  16  20
BRANCH  15  22
ATOM     22  C   UNL     1       5.267   3.850  16.281  0.00  0.00    +0.000 C 
BRANCH  22  24
ATOM     23  C   UNL     1       5.276   6.236  15.347  0.00  0.00    +0.000 C 
ATOM     24  C   UNL     1       5.498   4.756  15.068  0.00  0.00    +0.000 C 
ENDBRANCH  22  24
ENDBRANCH  15  22
ENDBRANCH  14  19
ENDBRANCH   1  14
TORSDOF 7
ENDMDL
