MODEL 1
REMARK VINA RESULT:      -6.3      0.000      0.000
REMARK  Name = 
REMARK  2 active torsions:
REMARK  status: ('A' for Active; 'I' for Inactive)
REMARK    1  A    between atoms: C_2  and  C_3
REMARK    2  A    between atoms: C_2  and  N_10
REMARK                            x       y       z     vdW  Elec       q    Type
REMARK                         _______ _______ _______ _____ _____    ______ ____
ROOT
ATOM      1  S   UNL     1       5.896   4.487  14.513  0.00  0.00    +0.000 S 
ATOM      2  C   UNL     1       5.820   4.813  16.164  0.00  0.00    +0.000 C 
ENDROOT
BRANCH   2   3
ATOM      3  C   UNL     1       4.588   4.570  16.988  0.00  0.00    +0.000 A 
ATOM      4  C   UNL     1       3.824   5.615  17.522  0.00  0.00    +0.000 A 
ATOM      5  C   UNL     1       2.740   5.339  18.365  0.00  0.00    +0.000 A 
ATOM      6  C   UNL     1       2.417   4.017  18.670  0.00  0.00    +0.000 A 
ATOM      7 BR   UNL     1       0.974   3.644  19.832  0.00  0.00    +0.000 Br
ATOM      8  C   UNL     1       3.160   2.967  18.138  0.00  0.00    +0.000 A 
ATOM      9  C   UNL     1       4.240   3.243  17.305  0.00  0.00    +0.000 A 
ENDBRANCH   2   3
BRANCH   2  10
ATOM     10  N   UNL     1       6.870   5.397  16.866  0.00  0.00    +0.000 N 
ATOM     11  C   UNL     1       7.620   4.727  17.920  0.00  0.00    +0.000 C 
ATOM     12  C   UNL     1       7.818   5.782  18.992  0.00  0.00    +0.000 C 
ATOM     13  C   UNL     1       7.888   7.076  18.191  0.00  0.00    +0.000 C 
ATOM     14  C   UNL     1       6.897   6.846  17.058  0.00  0.00    +0.000 C 
ENDBRANCH   2  10
TORSDOF 2
ENDMDL
MODEL 2
REMARK VINA RESULT:      -6.2      0.285      1.321
REMARK  Name = 
REMARK  2 active torsions:
REMARK  status: ('A' for Active; 'I' for Inactive)
REMARK    1  A    between atoms: C_2  and  C_3
REMARK    2  A    between atoms: C_2  and  N_10
REMARK                            x       y       z     vdW  Elec       q    Type
REMARK                         _______ _______ _______ _____ _____    ______ ____
ROOT
ATOM      1  S   UNL     1       5.755   4.448  14.538  0.00  0.00    +0.000 S 
ATOM      2  C   UNL     1       5.762   4.674  16.207  0.00  0.00    +0.000 C 
ENDROOT
BRANCH   2   3
ATOM      3  C   UNL     1       4.610   4.286  17.089  0.00  0.00    +0.000 A 
ATOM      4  C   UNL     1       4.334   2.954  17.422  0.00  0.00    +0.000 A 
ATOM      5  C   UNL     1       3.192   2.633  18.167  0.00  0.00    +0.000 A 
ATOM      6  C   UNL     1       2.328   3.646  18.584  0.00  0.00    +0.000 A 
ATOM      7 BR   UNL     1       0.771   3.211  19.563  0.00  0.00    +0.000 Br
ATOM      8  C   UNL     1       2.595   4.976  18.270  0.00  0.00    +0.000 A 
ATOM      9  C   UNL     1       3.726   5.293  17.525  0.00  0.00    +0.000 A 
ENDBRANCH   2   3
BRANCH   2  10
ATOM     10  N   UNL     1       6.807   5.304  16.877  0.00  0.00    +0.000 N 
ATOM     11  C   UNL     1       7.588   4.681  17.937  0.00  0.00    +0.000 C 
ATOM     12  C   UNL     1       7.775   5.769  18.979  0.00  0.00    +0.000 C 
ATOM     13  C   UNL     1       7.800   7.042  18.143  0.00  0.00    +0.000 C 
ATOM     14  C   UNL     1       6.799   6.757  17.030  0.00  0.00    +0.000 C 
ENDBRANCH   2  10
TORSDOF 2
ENDMDL
MODEL 3
REMARK VINA RESULT:      -5.9      0.816      1.353
REMARK  Name = 
REMARK  2 active torsions:
REMARK  status: ('A' for Active; 'I' for Inactive)
REMARK    1  A    between atoms: C_2  and  C_3
REMARK    2  A    between atoms: C_2  and  N_10
REMARK                            x       y       z     vdW  Elec       q    Type
REMARK                         _______ _______ _______ _____ _____    ______ ____
ROOT
ATOM      1  S   UNL     1       5.843   5.006  14.926  0.00  0.00    +0.000 S 
ATOM      2  C   UNL     1       5.413   5.163  16.547  0.00  0.00    +0.000 C 
ENDROOT
BRANCH   2   3
ATOM      3  C   UNL     1       4.183   4.530  17.131  0.00  0.00    +0.000 A 
ATOM      4  C   UNL     1       3.157   5.282  17.716  0.00  0.00    +0.000 A 
ATOM      5  C   UNL     1       2.076   4.642  18.335  0.00  0.00    +0.000 A 
ATOM      6  C   UNL     1       2.017   3.249  18.364  0.00  0.00    +0.000 A 
ATOM      7 BR   UNL     1       0.575   2.384  19.225  0.00  0.00    +0.000 Br
ATOM      8  C   UNL     1       3.025   2.488  17.777  0.00  0.00    +0.000 A 
ATOM      9  C   UNL     1       4.101   3.125  17.167  0.00  0.00    +0.000 A 
ENDBRANCH   2   3
BRANCH   2  10
ATOM     10  N   UNL     1       6.130   5.952  17.443  0.00  0.00    +0.000 N 
ATOM     11  C   UNL     1       6.345   7.383  17.279  0.00  0.00    +0.000 C 
ATOM     12  C   UNL     1       7.789   7.612  17.683  0.00  0.00    +0.000 C 
ATOM     13  C   UNL     1       8.023   6.539  18.739  0.00  0.00    +0.000 C 
ATOM     14  C   UNL     1       7.207   5.357  18.231  0.00  0.00    +0.000 C 
ENDBRANCH   2  10
TORSDOF 2
ENDMDL
MODEL 4
REMARK VINA RESULT:      -5.9      4.383      5.970
REMARK  Name = 
REMARK  2 active torsions:
REMARK  status: ('A' for Active; 'I' for Inactive)
REMARK    1  A    between atoms: C_2  and  C_3
REMARK    2  A    between atoms: C_2  and  N_10
REMARK                            x       y       z     vdW  Elec       q    Type
REMARK                         _______ _______ _______ _____ _____    ______ ____
ROOT
ATOM      1  S   UNL     1       4.498   5.419  19.174  0.00  0.00    +0.000 S 
ATOM      2  C   UNL     1       2.857   5.761  19.338  0.00  0.00    +0.000 C 
ENDROOT
BRANCH   2   3
ATOM      3  C   UNL     1       2.305   7.157  19.299  0.00  0.00    +0.000 A 
ATOM      4  C   UNL     1       1.706   7.760  20.412  0.00  0.00    +0.000 A 
ATOM      5  C   UNL     1       1.119   9.026  20.299  0.00  0.00    +0.000 A 
ATOM      6  C   UNL     1       1.135   9.693  19.074  0.00  0.00    +0.000 A 
ATOM      7 BR   UNL     1       0.316  11.389  18.913  0.00  0.00    +0.000 Br
ATOM      8  C   UNL     1       1.736   9.111  17.961  0.00  0.00    +0.000 A 
ATOM      9  C   UNL     1       2.315   7.850  18.073  0.00  0.00    +0.000 A 
ENDBRANCH   2   3
BRANCH   2  10
ATOM     10  N   UNL     1       1.905   4.778  19.594  0.00  0.00    +0.000 N 
ATOM     11  C   UNL     1       1.693   4.168  20.900  0.00  0.00    +0.000 C 
ATOM     12  C   UNL     1       1.481   2.693  20.615  0.00  0.00    +0.000 C 
ATOM     13  C   UNL     1       0.823   2.701  19.242  0.00  0.00    +0.000 C 
ATOM     14  C   UNL     1       1.502   3.863  18.528  0.00  0.00    +0.000 C 
ENDBRANCH   2  10
TORSDOF 2
ENDMDL
MODEL 5
REMARK VINA RESULT:      -5.9      2.112      2.861
REMARK  Name = 
REMARK  2 active torsions:
REMARK  status: ('A' for Active; 'I' for Inactive)
REMARK    1  A    between atoms: C_2  and  C_3
REMARK    2  A    between atoms: C_2  and  N_10
REMARK                            x       y       z     vdW  Elec       q    Type
REMARK                         _______ _______ _______ _____ _____    ______ ____
ROOT
ATOM      1  S   UNL     1       7.658   5.843  19.232  0.00  0.00    +0.000 S 
ATOM      2  C   UNL     1       6.343   5.369  18.291  0.00  0.00    +0.000 C 
ENDROOT
BRANCH   2   3
ATOM      3  C   UNL     1       5.069   4.832  18.878  0.00  0.00    +0.000 A 
ATOM      4  C   UNL     1       4.093   5.663  19.443  0.00  0.00    +0.000 A 
ATOM      5  C   UNL     1       2.968   5.110  20.065  0.00  0.00    +0.000 A 
ATOM      6  C   UNL     1       2.814   3.724  20.118  0.00  0.00    +0.000 A 
ATOM      7 BR   UNL     1       1.311   2.975  20.985  0.00  0.00    +0.000 Br
ATOM      8  C   UNL     1       3.770   2.886  19.551  0.00  0.00    +0.000 A 
ATOM      9  C   UNL     1       4.891   3.437  18.938  0.00  0.00    +0.000 A 
ENDBRANCH   2   3
BRANCH   2  10
ATOM     10  N   UNL     1       6.372   5.375  16.900  0.00  0.00    +0.000 N 
ATOM     11  C   UNL     1       5.261   5.806  16.062  0.00  0.00    +0.000 C 
ATOM     12  C   UNL     1       5.215   4.804  14.924  0.00  0.00    +0.000 C 
ATOM     13  C   UNL     1       6.676   4.405  14.760  0.00  0.00    +0.000 C 
ATOM     14  C   UNL     1       7.208   4.410  16.188  0.00  0.00    +0.000 C 
ENDBRANCH   2  10
TORSDOF 2
ENDMDL
MODEL 6
REMARK VINA RESULT:      -5.9      0.837      1.874
REMARK  Name = 
REMARK  2 active torsions:
REMARK  status: ('A' for Active; 'I' for Inactive)
REMARK    1  A    between atoms: C_2  and  C_3
REMARK    2  A    between atoms: C_2  and  N_10
REMARK                            x       y       z     vdW  Elec       q    Type
REMARK                         _______ _______ _______ _____ _____    ______ ____
ROOT
ATOM      1  S   UNL     1       6.137   4.503  15.098  0.00  0.00    +0.000 S 
ATOM      2  C   UNL     1       5.632   4.851  16.667  0.00  0.00    +0.000 C 
ENDROOT
BRANCH   2   3
ATOM      3  C   UNL     1       4.424   4.218  17.296  0.00  0.00    +0.000 A 
ATOM      4  C   UNL     1       4.307   2.834  17.473  0.00  0.00    +0.000 A 
ATOM      5  C   UNL     1       3.122   2.283  17.974  0.00  0.00    +0.000 A 
ATOM      6  C   UNL     1       2.053   3.117  18.304  0.00  0.00    +0.000 A 
ATOM      7 BR   UNL     1       0.442   2.372  18.952  0.00  0.00    +0.000 Br
ATOM      8  C   UNL     1       2.158   4.496  18.144  0.00  0.00    +0.000 A 
ATOM      9  C   UNL     1       3.335   5.042  17.640  0.00  0.00    +0.000 A 
ENDBRANCH   2   3
BRANCH   2  10
ATOM     10  N   UNL     1       6.258   5.804  17.465  0.00  0.00    +0.000 N 
ATOM     11  C   UNL     1       6.308   7.226  17.151  0.00  0.00    +0.000 C 
ATOM     12  C   UNL     1       7.718   7.658  17.507  0.00  0.00    +0.000 C 
ATOM     13  C   UNL     1       8.077   6.734  18.664  0.00  0.00    +0.000 C 
ATOM     14  C   UNL     1       7.399   5.421  18.294  0.00  0.00    +0.000 C 
ENDBRANCH   2  10
TORSDOF 2
ENDMDL
MODEL 7
REMARK VINA RESULT:      -5.9      3.650      5.539
REMARK  Name = 
REMARK  2 active torsions:
REMARK  status: ('A' for Active; 'I' for Inactive)
REMARK    1  A    between atoms: C_2  and  C_3
REMARK    2  A    between atoms: C_2  and  N_10
REMARK                            x       y       z     vdW  Elec       q    Type
REMARK                         _______ _______ _______ _____ _____    ______ ____
ROOT
ATOM      1  S   UNL     1       2.450   7.088  19.389  0.00  0.00    +0.000 S 
ATOM      2  C   UNL     1       2.927   5.552  18.887  0.00  0.00    +0.000 C 
ENDROOT
BRANCH   2   3
ATOM      3  C   UNL     1       3.824   5.321  17.705  0.00  0.00    +0.000 A 
ATOM      4  C   UNL     1       4.239   4.041  17.316  0.00  0.00    +0.000 A 
ATOM      5  C   UNL     1       5.153   3.884  16.267  0.00  0.00    +0.000 A 
ATOM      6  C   UNL     1       5.649   5.006  15.602  0.00  0.00    +0.000 A 
ATOM      7 BR   UNL     1       6.905   4.796  14.207  0.00  0.00    +0.000 Br
ATOM      8  C   UNL     1       5.236   6.284  15.970  0.00  0.00    +0.000 A 
ATOM      9  C   UNL     1       4.332   6.440  17.017  0.00  0.00    +0.000 A 
ENDBRANCH   2   3
BRANCH   2  10
ATOM     10  N   UNL     1       2.466   4.385  19.490  0.00  0.00    +0.000 N 
ATOM     11  C   UNL     1       1.362   3.584  18.978  0.00  0.00    +0.000 C 
ATOM     12  C   UNL     1       0.567   3.181  20.206  0.00  0.00    +0.000 C 
ATOM     13  C   UNL     1       1.634   3.089  21.289  0.00  0.00    +0.000 C 
ATOM     14  C   UNL     1       2.598   4.214  20.936  0.00  0.00    +0.000 C 
ENDBRANCH   2  10
TORSDOF 2
ENDMDL
MODEL 8
REMARK VINA RESULT:      -5.8      1.137      1.616
REMARK  Name = 
REMARK  2 active torsions:
REMARK  status: ('A' for Active; 'I' for Inactive)
REMARK    1  A    between atoms: C_2  and  C_3
REMARK    2  A    between atoms: C_2  and  N_10
REMARK                            x       y       z     vdW  Elec       q    Type
REMARK                         _______ _______ _______ _____ _____    ______ ____
ROOT
ATOM      1  S   UNL     1       6.140   4.153  15.654  0.00  0.00    +0.000 S 
ATOM      2  C   UNL     1       5.677   4.763  17.154  0.00  0.00    +0.000 C 
ENDROOT
BRANCH   2   3
ATOM      3  C   UNL     1       4.480   4.256  17.907  0.00  0.00    +0.000 A 
ATOM      4  C   UNL     1       3.167   4.502  17.486  0.00  0.00    +0.000 A 
ATOM      5  C   UNL     1       2.084   4.093  18.274  0.00  0.00    +0.000 A 
ATOM      6  C   UNL     1       2.313   3.433  19.481  0.00  0.00    +0.000 A 
ATOM      7 BR   UNL     1       0.853   2.908  20.559  0.00  0.00    +0.000 Br
ATOM      8  C   UNL     1       3.613   3.171  19.907  0.00  0.00    +0.000 A 
ATOM      9  C   UNL     1       4.688   3.583  19.126  0.00  0.00    +0.000 A 
ENDBRANCH   2   3
BRANCH   2  10
ATOM     10  N   UNL     1       6.328   5.829  17.767  0.00  0.00    +0.000 N 
ATOM     11  C   UNL     1       6.251   7.208  17.303  0.00  0.00    +0.000 C 
ATOM     12  C   UNL     1       7.662   7.748  17.439  0.00  0.00    +0.000 C 
ATOM     13  C   UNL     1       8.209   6.977  18.634  0.00  0.00    +0.000 C 
ATOM     14  C   UNL     1       7.578   5.599  18.487  0.00  0.00    +0.000 C 
ENDBRANCH   2  10
TORSDOF 2
ENDMDL
MODEL 9
REMARK VINA RESULT:      -5.8      1.332      1.803
REMARK  Name = 
REMARK  2 active torsions:
REMARK  status: ('A' for Active; 'I' for Inactive)
REMARK    1  A    between atoms: C_2  and  C_3
REMARK    2  A    between atoms: C_2  and  N_10
REMARK                            x       y       z     vdW  Elec       q    Type
REMARK                         _______ _______ _______ _____ _____    ______ ____
ROOT
ATOM      1  S   UNL     1       5.566   4.302  15.877  0.00  0.00    +0.000 S 
ATOM      2  C   UNL     1       5.402   4.917  17.437  0.00  0.00    +0.000 C 
ENDROOT
BRANCH   2   3
ATOM      3  C   UNL     1       4.370   4.419  18.407  0.00  0.00    +0.000 A 
ATOM      4  C   UNL     1       3.708   5.268  19.303  0.00  0.00    +0.000 A 
ATOM      5  C   UNL     1       2.826   4.743  20.254  0.00  0.00    +0.000 A 
ATOM      6  C   UNL     1       2.599   3.368  20.308  0.00  0.00    +0.000 A 
ATOM      7 BR   UNL     1       1.433   2.655  21.612  0.00  0.00    +0.000 Br
ATOM      8  C   UNL     1       3.241   2.512  19.417  0.00  0.00    +0.000 A 
ATOM      9  C   UNL     1       4.122   3.034  18.475  0.00  0.00    +0.000 A 
ENDBRANCH   2   3
BRANCH   2  10
ATOM     10  N   UNL     1       6.164   5.981  17.911  0.00  0.00    +0.000 N 
ATOM     11  C   UNL     1       6.222   7.290  17.274  0.00  0.00    +0.000 C 
ATOM     12  C   UNL     1       7.683   7.696  17.344  0.00  0.00    +0.000 C 
ATOM     13  C   UNL     1       8.161   7.033  18.629  0.00  0.00    +0.000 C 
ATOM     14  C   UNL     1       7.392   5.718  18.658  0.00  0.00    +0.000 C 
ENDBRANCH   2  10
TORSDOF 2
ENDMDL
