MODEL 1
REMARK VINA RESULT:      -5.4      0.000      0.000
REMARK  Name = 
REMARK  4 active torsions:
REMARK  status: ('A' for Active; 'I' for Inactive)
REMARK    1  A    between atoms: C_1  and  C_2
REMARK    2  A    between atoms: C_2  and  C_3
REMARK    3  A    between atoms: C_3  and  N_4
REMARK    4  A    between atoms: C_8  and  O_9
REMARK                            x       y       z     vdW  Elec       q    Type
REMARK                         _______ _______ _______ _____ _____    ______ ____
ROOT
ATOM      1  N   UNL     1       5.560   5.399  17.693  0.00  0.00    +0.000 N 
ATOM      2  C   UNL     1       6.045   6.451  16.936  0.00  0.00    +0.000 A 
ATOM      3  C   UNL     1       7.150   7.115  17.295  0.00  0.00    +0.000 A 
ATOM      4  C   UNL     1       7.867   6.736  18.484  0.00  0.00    +0.000 A 
ATOM      5  C   UNL     1       7.437   5.732  19.266  0.00  0.00    +0.000 A 
ATOM      6  C   UNL     1       6.171   4.992  18.887  0.00  0.00    +0.000 A 
ATOM      7  O   UNL     1       5.734   4.090  19.601  0.00  0.00    +0.000 OA
ENDROOT
BRANCH   5   8
ATOM      8  O   UNL     1       8.114   5.342  20.407  0.00  0.00    +0.000 OA
ATOM      9  H   UNL     1       8.807   4.711  20.160  0.00  0.00    +0.000 HD
ENDBRANCH   5   8
BRANCH   1  10
ATOM     10  C   UNL     1       4.348   4.704  17.262  0.00  0.00    +0.000 C 
BRANCH  10  12
ATOM     11  C   UNL     1       1.882   4.427  17.693  0.00  0.00    +0.000 C 
ATOM     12  C   UNL     1       3.080   5.356  17.812  0.00  0.00    +0.000 C 
ENDBRANCH  10  12
ENDBRANCH   1  10
TORSDOF 3
ENDMDL
MODEL 2
REMARK VINA RESULT:      -5.4      2.425      3.257
REMARK  Name = 
REMARK  4 active torsions:
REMARK  status: ('A' for Active; 'I' for Inactive)
REMARK    1  A    between atoms: C_1  and  C_2
REMARK    2  A    between atoms: C_2  and  C_3
REMARK    3  A    between atoms: C_3  and  N_4
REMARK    4  A    between atoms: C_8  and  O_9
REMARK                            x       y       z     vdW  Elec       q    Type
REMARK                         _______ _______ _______ _____ _____    ______ ____
ROOT
ATOM      1  N   UNL     1       6.168   4.697  16.406  0.00  0.00    +0.000 N 
ATOM      2  C   UNL     1       4.847   5.097  16.506  0.00  0.00    +0.000 A 
ATOM      3  C   UNL     1       4.329   5.499  17.672  0.00  0.00    +0.000 A 
ATOM      4  C   UNL     1       5.149   5.533  18.855  0.00  0.00    +0.000 A 
ATOM      5  C   UNL     1       6.434   5.145  18.822  0.00  0.00    +0.000 A 
ATOM      6  C   UNL     1       7.024   4.658  17.515  0.00  0.00    +0.000 A 
ATOM      7  O   UNL     1       8.189   4.264  17.460  0.00  0.00    +0.000 OA
ENDROOT
BRANCH   5   8
ATOM      8  O   UNL     1       7.246   5.177  19.942  0.00  0.00    +0.000 OA
ATOM      9  H   UNL     1       7.975   4.552  19.818  0.00  0.00    +0.000 HD
ENDBRANCH   5   8
BRANCH   1  10
ATOM     10  C   UNL     1       6.691   4.264  15.110  0.00  0.00    +0.000 C 
BRANCH  10  12
ATOM     11  C   UNL     1       6.109   3.520  12.776  0.00  0.00    +0.000 C 
ATOM     12  C   UNL     1       5.601   4.193  14.041  0.00  0.00    +0.000 C 
ENDBRANCH  10  12
ENDBRANCH   1  10
TORSDOF 3
ENDMDL
MODEL 3
REMARK VINA RESULT:      -5.4      1.154      1.754
REMARK  Name = 
REMARK  4 active torsions:
REMARK  status: ('A' for Active; 'I' for Inactive)
REMARK    1  A    between atoms: C_1  and  C_2
REMARK    2  A    between atoms: C_2  and  C_3
REMARK    3  A    between atoms: C_3  and  N_4
REMARK    4  A    between atoms: C_8  and  O_9
REMARK                            x       y       z     vdW  Elec       q    Type
REMARK                         _______ _______ _______ _____ _____    ______ ____
ROOT
ATOM      1  N   UNL     1       5.909   5.720  17.562  0.00  0.00    +0.000 N 
ATOM      2  C   UNL     1       6.503   6.828  16.985  0.00  0.00    +0.000 A 
ATOM      3  C   UNL     1       7.569   7.414  17.542  0.00  0.00    +0.000 A 
ATOM      4  C   UNL     1       8.129   6.890  18.760  0.00  0.00    +0.000 A 
ATOM      5  C   UNL     1       7.588   5.824  19.372  0.00  0.00    +0.000 A 
ATOM      6  C   UNL     1       6.363   5.171  18.769  0.00  0.00    +0.000 A 
ATOM      7  O   UNL     1       5.823   4.214  19.325  0.00  0.00    +0.000 OA
ENDROOT
BRANCH   5   8
ATOM      8  O   UNL     1       8.113   5.295  20.537  0.00  0.00    +0.000 OA
ATOM      9  H   UNL     1       9.030   5.029  20.374  0.00  0.00    +0.000 HD
ENDBRANCH   5   8
BRANCH   1  10
ATOM     10  C   UNL     1       4.743   5.113  16.918  0.00  0.00    +0.000 C 
BRANCH  10  12
ATOM     11  C   UNL     1       5.530   4.405  14.633  0.00  0.00    +0.000 C 
ATOM     12  C   UNL     1       5.125   3.936  16.022  0.00  0.00    +0.000 C 
ENDBRANCH  10  12
ENDBRANCH   1  10
TORSDOF 3
ENDMDL
MODEL 4
REMARK VINA RESULT:      -5.3      1.578      1.861
REMARK  Name = 
REMARK  4 active torsions:
REMARK  status: ('A' for Active; 'I' for Inactive)
REMARK    1  A    between atoms: C_1  and  C_2
REMARK    2  A    between atoms: C_2  and  C_3
REMARK    3  A    between atoms: C_3  and  N_4
REMARK    4  A    between atoms: C_8  and  O_9
REMARK                            x       y       z     vdW  Elec       q    Type
REMARK                         _______ _______ _______ _____ _____    ______ ____
ROOT
ATOM      1  N   UNL     1       4.888   5.418  17.794  0.00  0.00    +0.000 N 
ATOM      2  C   UNL     1       4.773   5.856  16.487  0.00  0.00    +0.000 A 
ATOM      3  C   UNL     1       5.776   5.705  15.613  0.00  0.00    +0.000 A 
ATOM      4  C   UNL     1       7.001   5.068  16.019  0.00  0.00    +0.000 A 
ATOM      5  C   UNL     1       7.175   4.634  17.278  0.00  0.00    +0.000 A 
ATOM      6  C   UNL     1       6.061   4.826  18.285  0.00  0.00    +0.000 A 
ATOM      7  O   UNL     1       6.203   4.470  19.455  0.00  0.00    +0.000 OA
ENDROOT
BRANCH   5   8
ATOM      8  O   UNL     1       8.338   4.009  17.691  0.00  0.00    +0.000 OA
ATOM      9  H   UNL     1       8.121   3.117  18.000  0.00  0.00    +0.000 HD
ENDBRANCH   5   8
BRANCH   1  10
ATOM     10  C   UNL     1       3.768   5.605  18.716  0.00  0.00    +0.000 C 
BRANCH  10  12
ATOM     11  C   UNL     1       1.914   4.110  17.899  0.00  0.00    +0.000 C 
ATOM     12  C   UNL     1       2.417   5.541  18.004  0.00  0.00    +0.000 C 
ENDBRANCH  10  12
ENDBRANCH   1  10
TORSDOF 3
ENDMDL
MODEL 5
REMARK VINA RESULT:      -5.2      1.480      4.033
REMARK  Name = 
REMARK  4 active torsions:
REMARK  status: ('A' for Active; 'I' for Inactive)
REMARK    1  A    between atoms: C_1  and  C_2
REMARK    2  A    between atoms: C_2  and  C_3
REMARK    3  A    between atoms: C_3  and  N_4
REMARK    4  A    between atoms: C_8  and  O_9
REMARK                            x       y       z     vdW  Elec       q    Type
REMARK                         _______ _______ _______ _____ _____    ______ ____
ROOT
ATOM      1  N   UNL     1       7.059   6.392  18.029  0.00  0.00    +0.000 N 
ATOM      2  C   UNL     1       6.447   6.509  16.794  0.00  0.00    +0.000 A 
ATOM      3  C   UNL     1       5.508   5.642  16.398  0.00  0.00    +0.000 A 
ATOM      4  C   UNL     1       5.106   4.565  17.264  0.00  0.00    +0.000 A 
ATOM      5  C   UNL     1       5.673   4.393  18.469  0.00  0.00    +0.000 A 
ATOM      6  C   UNL     1       6.759   5.349  18.917  0.00  0.00    +0.000 A 
ATOM      7  O   UNL     1       7.321   5.197  20.001  0.00  0.00    +0.000 OA
ENDROOT
BRANCH   5   8
ATOM      8  O   UNL     1       5.297   3.373  19.324  0.00  0.00    +0.000 OA
ATOM      9  H   UNL     1       4.404   3.081  19.089  0.00  0.00    +0.000 HD
ENDBRANCH   5   8
BRANCH   1  10
ATOM     10  C   UNL     1       8.081   7.362  18.419  0.00  0.00    +0.000 C 
BRANCH  10  12
ATOM     11  C   UNL     1       8.725   9.796  18.379  0.00  0.00    +0.000 C 
ATOM     12  C   UNL     1       7.907   8.704  17.709  0.00  0.00    +0.000 C 
ENDBRANCH  10  12
ENDBRANCH   1  10
TORSDOF 3
ENDMDL
MODEL 6
REMARK VINA RESULT:      -5.2      2.317      3.452
REMARK  Name = 
REMARK  4 active torsions:
REMARK  status: ('A' for Active; 'I' for Inactive)
REMARK    1  A    between atoms: C_1  and  C_2
REMARK    2  A    between atoms: C_2  and  C_3
REMARK    3  A    between atoms: C_3  and  N_4
REMARK    4  A    between atoms: C_8  and  O_9
REMARK                            x       y       z     vdW  Elec       q    Type
REMARK                         _______ _______ _______ _____ _____    ______ ____
ROOT
ATOM      1  N   UNL     1       2.744   3.779  18.719  0.00  0.00    +0.000 N 
ATOM      2  C   UNL     1       2.418   5.006  18.171  0.00  0.00    +0.000 A 
ATOM      3  C   UNL     1       3.365   5.872  17.792  0.00  0.00    +0.000 A 
ATOM      4  C   UNL     1       4.756   5.534  17.940  0.00  0.00    +0.000 A 
ATOM      5  C   UNL     1       5.134   4.363  18.478  0.00  0.00    +0.000 A 
ATOM      6  C   UNL     1       4.072   3.387  18.939  0.00  0.00    +0.000 A 
ATOM      7  O   UNL     1       4.386   2.320  19.466  0.00  0.00    +0.000 OA
ENDROOT
BRANCH   5   8
ATOM      8  O   UNL     1       6.463   4.010  18.621  0.00  0.00    +0.000 OA
ATOM      9  H   UNL     1       6.917   4.151  17.777  0.00  0.00    +0.000 HD
ENDBRANCH   5   8
BRANCH   1  10
ATOM     10  C   UNL     1       1.676   2.865  19.121  0.00  0.00    +0.000 C 
BRANCH  10  12
ATOM     11  C   UNL     1       1.544   2.709  21.631  0.00  0.00    +0.000 C 
ATOM     12  C   UNL     1       0.951   3.339  20.381  0.00  0.00    +0.000 C 
ENDBRANCH  10  12
ENDBRANCH   1  10
TORSDOF 3
ENDMDL
MODEL 7
REMARK VINA RESULT:      -5.2      1.862      2.402
REMARK  Name = 
REMARK  4 active torsions:
REMARK  status: ('A' for Active; 'I' for Inactive)
REMARK    1  A    between atoms: C_1  and  C_2
REMARK    2  A    between atoms: C_2  and  C_3
REMARK    3  A    between atoms: C_3  and  N_4
REMARK    4  A    between atoms: C_8  and  O_9
REMARK                            x       y       z     vdW  Elec       q    Type
REMARK                         _______ _______ _______ _____ _____    ______ ____
ROOT
ATOM      1  N   UNL     1       4.827   5.213  18.293  0.00  0.00    +0.000 N 
ATOM      2  C   UNL     1       4.348   5.122  16.998  0.00  0.00    +0.000 A 
ATOM      3  C   UNL     1       5.135   4.721  15.992  0.00  0.00    +0.000 A 
ATOM      4  C   UNL     1       6.507   4.366  16.244  0.00  0.00    +0.000 A 
ATOM      5  C   UNL     1       7.031   4.447  17.478  0.00  0.00    +0.000 A 
ATOM      6  C   UNL     1       6.160   4.928  18.619  0.00  0.00    +0.000 A 
ATOM      7  O   UNL     1       6.621   5.045  19.754  0.00  0.00    +0.000 OA
ENDROOT
BRANCH   5   8
ATOM      8  O   UNL     1       8.343   4.102  17.748  0.00  0.00    +0.000 OA
ATOM      9  H   UNL     1       8.354   3.243  18.198  0.00  0.00    +0.000 HD
ENDBRANCH   5   8
BRANCH   1  10
ATOM     10  C   UNL     1       3.931   5.657  19.360  0.00  0.00    +0.000 C 
BRANCH  10  12
ATOM     11  C   UNL     1       1.821   5.198  20.655  0.00  0.00    +0.000 C 
ATOM     12  C   UNL     1       2.758   4.699  19.567  0.00  0.00    +0.000 C 
ENDBRANCH  10  12
ENDBRANCH   1  10
TORSDOF 3
ENDMDL
MODEL 8
REMARK VINA RESULT:      -5.1      2.530      4.109
REMARK  Name = 
REMARK  4 active torsions:
REMARK  status: ('A' for Active; 'I' for Inactive)
REMARK    1  A    between atoms: C_1  and  C_2
REMARK    2  A    between atoms: C_2  and  C_3
REMARK    3  A    between atoms: C_3  and  N_4
REMARK    4  A    between atoms: C_8  and  O_9
REMARK                            x       y       z     vdW  Elec       q    Type
REMARK                         _______ _______ _______ _____ _____    ______ ____
ROOT
ATOM      1  N   UNL     1       3.559   4.553  18.190  0.00  0.00    +0.000 N 
ATOM      2  C   UNL     1       2.418   3.953  17.688  0.00  0.00    +0.000 A 
ATOM      3  C   UNL     1       2.161   2.658  17.907  0.00  0.00    +0.000 A 
ATOM      4  C   UNL     1       3.071   1.861  18.687  0.00  0.00    +0.000 A 
ATOM      5  C   UNL     1       4.200   2.386  19.190  0.00  0.00    +0.000 A 
ATOM      6  C   UNL     1       4.519   3.842  18.923  0.00  0.00    +0.000 A 
ATOM      7  O   UNL     1       5.562   4.343  19.341  0.00  0.00    +0.000 OA
ENDROOT
BRANCH   5   8
ATOM      8  O   UNL     1       5.085   1.644  19.951  0.00  0.00    +0.000 OA
ATOM      9  H   UNL     1       5.182   2.066  20.818  0.00  0.00    +0.000 HD
ENDBRANCH   5   8
BRANCH   1  10
ATOM     10  C   UNL     1       3.800   5.971  17.923  0.00  0.00    +0.000 C 
BRANCH  10  12
ATOM     11  C   UNL     1       2.606   8.183  17.778  0.00  0.00    +0.000 C 
ATOM     12  C   UNL     1       2.720   6.866  18.530  0.00  0.00    +0.000 C 
ENDBRANCH  10  12
ENDBRANCH   1  10
TORSDOF 3
ENDMDL
MODEL 9
REMARK VINA RESULT:      -5.1      1.865      2.676
REMARK  Name = 
REMARK  4 active torsions:
REMARK  status: ('A' for Active; 'I' for Inactive)
REMARK    1  A    between atoms: C_1  and  C_2
REMARK    2  A    between atoms: C_2  and  C_3
REMARK    3  A    between atoms: C_3  and  N_4
REMARK    4  A    between atoms: C_8  and  O_9
REMARK                            x       y       z     vdW  Elec       q    Type
REMARK                         _______ _______ _______ _____ _____    ______ ____
ROOT
ATOM      1  N   UNL     1       3.735   3.467  18.223  0.00  0.00    +0.000 N 
ATOM      2  C   UNL     1       3.398   4.462  17.323  0.00  0.00    +0.000 A 
ATOM      3  C   UNL     1       4.096   5.602  17.254  0.00  0.00    +0.000 A 
ATOM      4  C   UNL     1       5.229   5.811  18.116  0.00  0.00    +0.000 A 
ATOM      5  C   UNL     1       5.596   4.885  19.019  0.00  0.00    +0.000 A 
ATOM      6  C   UNL     1       4.796   3.605  19.129  0.00  0.00    +0.000 A 
ATOM      7  O   UNL     1       5.087   2.753  19.968  0.00  0.00    +0.000 OA
ENDROOT
BRANCH   5   8
ATOM      8  O   UNL     1       6.687   5.058  19.852  0.00  0.00    +0.000 OA
ATOM      9  H   UNL     1       7.334   4.360  19.668  0.00  0.00    +0.000 HD
ENDBRANCH   5   8
BRANCH   1  10
ATOM     10  C   UNL     1       2.943   2.238  18.265  0.00  0.00    +0.000 C 
BRANCH  10  12
ATOM     11  C   UNL     1       1.221   2.968  19.952  0.00  0.00    +0.000 C 
ATOM     12  C   UNL     1       1.461   2.514  18.521  0.00  0.00    +0.000 C 
ENDBRANCH  10  12
ENDBRANCH   1  10
TORSDOF 3
ENDMDL
