MODEL 1
REMARK VINA RESULT:      -7.7      0.000      0.000
REMARK  Name = 
REMARK  9 active torsions:
REMARK  status: ('A' for Active; 'I' for Inactive)
REMARK    1  A    between atoms: C_1  and  C_2
REMARK    2  A    between atoms: C_2  and  C_3
REMARK    3  A    between atoms: C_2  and  C_4
REMARK    4  A    between atoms: C_4  and  C_5
REMARK    5  A    between atoms: C_4  and  C_22
REMARK    6  A    between atoms: C_5  and  N_6
REMARK    7  A    between atoms: N_9  and  C_10
REMARK    8  A    between atoms: C_10  and  C_11
REMARK    9  A    between atoms: N_26  and  C_27
REMARK                            x       y       z     vdW  Elec       q    Type
REMARK                         _______ _______ _______ _____ _____    ______ ____
ROOT
ATOM      1  N   UNL     1       8.430   9.424  18.055  0.00  0.00    +0.000 N 
ATOM      2  C   UNL     1       8.107   8.089  18.042  0.00  0.00    +0.000 C 
ATOM      3  O   UNL     1       8.523   7.276  18.857  0.00  0.00    +0.000 OA
ATOM      4  N   UNL     1       7.243   7.788  17.020  0.00  0.00    +0.000 N 
ATOM      5  H   UNL     1       7.728  10.035  17.669  0.00  0.00    +0.000 HD
ATOM      6  H   UNL     1       7.354   8.361  16.198  0.00  0.00    +0.000 HD
ENDROOT
BRANCH   1   7
ATOM      7  C   UNL     1       9.228   9.936  19.164  0.00  0.00    +0.000 C 
BRANCH   7   8
ATOM      8  C   UNL     1       9.159  11.470  19.350  0.00  0.00    +0.000 C 
BRANCH   8   9
ATOM      9  C   UNL     1       9.953  12.249  18.315  0.00  0.00    +0.000 A 
ATOM     10  C   UNL     1      11.098  11.814  17.661  0.00  0.00    +0.000 A 
ATOM     11  C   UNL     1      11.545  12.903  16.903  0.00  0.00    +0.000 A 
ATOM     12  N   UNL     1      10.741  13.954  17.021  0.00  0.00    +0.000 NA
ATOM     13  N   UNL     1       9.768  13.540  17.865  0.00  0.00    +0.000 N 
ATOM     14  C   UNL     1       8.688  14.466  18.103  0.00  0.00    +0.000 C 
ENDBRANCH   8   9
BRANCH   8  16
ATOM     15  C   UNL     1       8.179  12.781  21.355  0.00  0.00    +0.000 C 
ATOM     16  C   UNL     1       9.311  11.882  20.842  0.00  0.00    +0.000 C 
ATOM     17  C   UNL     1      10.671  12.436  21.272  0.00  0.00    +0.000 C 
ENDBRANCH   8  16
ENDBRANCH   7   8
ENDBRANCH   1   7
BRANCH   4  18
ATOM     18  C   UNL     1       6.875   6.407  16.796  0.00  0.00    +0.000 C 
BRANCH  18  19
ATOM     19  C   UNL     1       5.563   6.061  17.455  0.00  0.00    +0.000 A 
ATOM     20  C   UNL     1       4.498   6.974  17.429  0.00  0.00    +0.000 A 
ATOM     21  C   UNL     1       3.282   6.674  18.055  0.00  0.00    +0.000 A 
ATOM     22 CL   UNL     1       2.020   7.854  17.998  0.00  0.00    +0.000 Cl
ATOM     23  C   UNL     1       3.104   5.450  18.704  0.00  0.00    +0.000 A 
ATOM     24  C   UNL     1       4.168   4.540  18.744  0.00  0.00    +0.000 A 
ATOM     25  C   UNL     1       5.380   4.834  18.108  0.00  0.00    +0.000 A 
ATOM     26  O   UNL     1       4.101   3.328  19.386  0.00  0.00    +0.000 OA
ATOM     27  C   UNL     1       2.984   3.264  20.279  0.00  0.00    +0.000 C 
ATOM     28  C   UNL     1       1.735   3.800  19.608  0.00  0.00    +0.000 C 
ATOM     29  O   UNL     1       1.893   5.188  19.298  0.00  0.00    +0.000 OA
ENDBRANCH  18  19
ENDBRANCH   4  18
TORSDOF 6
ENDMDL
MODEL 2
REMARK VINA RESULT:      -7.7      5.654      8.673
REMARK  Name = 
REMARK  9 active torsions:
REMARK  status: ('A' for Active; 'I' for Inactive)
REMARK    1  A    between atoms: C_1  and  C_2
REMARK    2  A    between atoms: C_2  and  C_3
REMARK    3  A    between atoms: C_2  and  C_4
REMARK    4  A    between atoms: C_4  and  C_5
REMARK    5  A    between atoms: C_4  and  C_22
REMARK    6  A    between atoms: C_5  and  N_6
REMARK    7  A    between atoms: N_9  and  C_10
REMARK    8  A    between atoms: C_10  and  C_11
REMARK    9  A    between atoms: N_26  and  C_27
REMARK                            x       y       z     vdW  Elec       q    Type
REMARK                         _______ _______ _______ _____ _____    ______ ____
ROOT
ATOM      1  N   UNL     1       2.681   6.035  18.084  0.00  0.00    +0.000 N 
ATOM      2  C   UNL     1       2.271   6.199  19.385  0.00  0.00    +0.000 C 
ATOM      3  O   UNL     1       2.023   5.274  20.146  0.00  0.00    +0.000 OA
ATOM      4  N   UNL     1       2.198   7.525  19.728  0.00  0.00    +0.000 N 
ATOM      5  H   UNL     1       3.261   6.776  17.724  0.00  0.00    +0.000 HD
ATOM      6  H   UNL     1       1.957   8.140  18.967  0.00  0.00    +0.000 HD
ENDROOT
BRANCH   1   7
ATOM      7  C   UNL     1       2.946   4.683  17.603  0.00  0.00    +0.000 C 
BRANCH   7   8
ATOM      8  C   UNL     1       4.329   4.118  18.005  0.00  0.00    +0.000 C 
BRANCH   8   9
ATOM      9  C   UNL     1       5.427   4.414  16.997  0.00  0.00    +0.000 A 
ATOM     10  C   UNL     1       5.346   4.244  15.621  0.00  0.00    +0.000 A 
ATOM     11  C   UNL     1       6.625   4.521  15.124  0.00  0.00    +0.000 A 
ATOM     12  N   UNL     1       7.467   4.878  16.089  0.00  0.00    +0.000 NA
ATOM     13  N   UNL     1       6.725   4.827  17.219  0.00  0.00    +0.000 N 
ATOM     14  C   UNL     1       7.372   5.264  18.431  0.00  0.00    +0.000 C 
ENDBRANCH   8   9
BRANCH   8  16
ATOM     15  C   UNL     1       3.075   1.855  17.957  0.00  0.00    +0.000 C 
ATOM     16  C   UNL     1       4.225   2.669  18.562  0.00  0.00    +0.000 C 
ATOM     17  C   UNL     1       4.251   2.510  20.083  0.00  0.00    +0.000 C 
ENDBRANCH   8  16
ENDBRANCH   7   8
ENDBRANCH   1   7
BRANCH   4  18
ATOM     18  C   UNL     1       1.686   7.885  21.033  0.00  0.00    +0.000 C 
BRANCH  18  19
ATOM     19  C   UNL     1       0.774   9.084  20.968  0.00  0.00    +0.000 A 
ATOM     20  C   UNL     1       0.271   9.522  19.733  0.00  0.00    +0.000 A 
ATOM     21  C   UNL     1      -0.559  10.646  19.656  0.00  0.00    +0.000 A 
ATOM     22 CL   UNL     1      -1.126  11.140  18.100  0.00  0.00    +0.000 Cl
ATOM     23  C   UNL     1      -0.916  11.342  20.814  0.00  0.00    +0.000 A 
ATOM     24  C   UNL     1      -0.407  10.916  22.047  0.00  0.00    +0.000 A 
ATOM     25  C   UNL     1       0.414   9.786  22.127  0.00  0.00    +0.000 A 
ATOM     26  O   UNL     1      -0.672  11.556  23.234  0.00  0.00    +0.000 OA
ATOM     27  C   UNL     1      -1.212  12.864  23.021  0.00  0.00    +0.000 C 
ATOM     28  C   UNL     1      -2.294  12.826  21.959  0.00  0.00    +0.000 C 
ATOM     29  O   UNL     1      -1.741  12.435  20.699  0.00  0.00    +0.000 OA
ENDBRANCH  18  19
ENDBRANCH   4  18
TORSDOF 6
ENDMDL
MODEL 3
REMARK VINA RESULT:      -7.7      1.566      2.406
REMARK  Name = 
REMARK  9 active torsions:
REMARK  status: ('A' for Active; 'I' for Inactive)
REMARK    1  A    between atoms: C_1  and  C_2
REMARK    2  A    between atoms: C_2  and  C_3
REMARK    3  A    between atoms: C_2  and  C_4
REMARK    4  A    between atoms: C_4  and  C_5
REMARK    5  A    between atoms: C_4  and  C_22
REMARK    6  A    between atoms: C_5  and  N_6
REMARK    7  A    between atoms: N_9  and  C_10
REMARK    8  A    between atoms: C_10  and  C_11
REMARK    9  A    between atoms: N_26  and  C_27
REMARK                            x       y       z     vdW  Elec       q    Type
REMARK                         _______ _______ _______ _____ _____    ______ ____
ROOT
ATOM      1  N   UNL     1       8.625   8.905  18.901  0.00  0.00    +0.000 N 
ATOM      2  C   UNL     1       8.109   7.973  18.034  0.00  0.00    +0.000 C 
ATOM      3  O   UNL     1       7.822   8.208  16.868  0.00  0.00    +0.000 OA
ATOM      4  N   UNL     1       7.978   6.745  18.631  0.00  0.00    +0.000 N 
ATOM      5  H   UNL     1       9.215   8.530  19.627  0.00  0.00    +0.000 HD
ATOM      6  H   UNL     1       7.784   6.780  19.620  0.00  0.00    +0.000 HD
ENDROOT
BRANCH   1   7
ATOM      7  C   UNL     1       8.958  10.228  18.384  0.00  0.00    +0.000 C 
BRANCH   7   8
ATOM      8  C   UNL     1       9.781  11.108  19.355  0.00  0.00    +0.000 C 
BRANCH   8   9
ATOM      9  C   UNL     1       9.056  12.364  19.808  0.00  0.00    +0.000 A 
ATOM     10  C   UNL     1       8.651  13.415  18.997  0.00  0.00    +0.000 A 
ATOM     11  C   UNL     1       8.143  14.393  19.861  0.00  0.00    +0.000 A 
ATOM     12  N   UNL     1       8.178  14.001  21.130  0.00  0.00    +0.000 NA
ATOM     13  N   UNL     1       8.716  12.761  21.085  0.00  0.00    +0.000 N 
ATOM     14  C   UNL     1       8.788  12.047  22.335  0.00  0.00    +0.000 C 
ENDBRANCH   8   9
BRANCH   8  16
ATOM     15  C   UNL     1      12.176  11.893  19.946  0.00  0.00    +0.000 C 
ATOM     16  C   UNL     1      11.261  11.250  18.896  0.00  0.00    +0.000 C 
ATOM     17  C   UNL     1      11.503  11.875  17.521  0.00  0.00    +0.000 C 
ENDBRANCH   8  16
ENDBRANCH   7   8
ENDBRANCH   1   7
BRANCH   4  18
ATOM     18  C   UNL     1       7.356   5.668  17.892  0.00  0.00    +0.000 C 
BRANCH  18  19
ATOM     19  C   UNL     1       5.912   5.478  18.284  0.00  0.00    +0.000 A 
ATOM     20  C   UNL     1       4.957   6.452  17.952  0.00  0.00    +0.000 A 
ATOM     21  C   UNL     1       3.617   6.298  18.329  0.00  0.00    +0.000 A 
ATOM     22 CL   UNL     1       2.499   7.544  17.902  0.00  0.00    +0.000 Cl
ATOM     23  C   UNL     1       3.206   5.160  19.029  0.00  0.00    +0.000 A 
ATOM     24  C   UNL     1       4.157   4.193  19.373  0.00  0.00    +0.000 A 
ATOM     25  C   UNL     1       5.495   4.340  18.987  0.00  0.00    +0.000 A 
ATOM     26  O   UNL     1       3.856   3.060  20.090  0.00  0.00    +0.000 OA
ATOM     27  C   UNL     1       2.579   3.162  20.727  0.00  0.00    +0.000 C 
ATOM     28  C   UNL     1       1.544   3.706  19.761  0.00  0.00    +0.000 C 
ATOM     29  O   UNL     1       1.880   5.041  19.373  0.00  0.00    +0.000 OA
ENDBRANCH  18  19
ENDBRANCH   4  18
TORSDOF 6
ENDMDL
MODEL 4
REMARK VINA RESULT:      -7.7      5.763      7.895
REMARK  Name = 
REMARK  9 active torsions:
REMARK  status: ('A' for Active; 'I' for Inactive)
REMARK    1  A    between atoms: C_1  and  C_2
REMARK    2  A    between atoms: C_2  and  C_3
REMARK    3  A    between atoms: C_2  and  C_4
REMARK    4  A    between atoms: C_4  and  C_5
REMARK    5  A    between atoms: C_4  and  C_22
REMARK    6  A    between atoms: C_5  and  N_6
REMARK    7  A    between atoms: N_9  and  C_10
REMARK    8  A    between atoms: C_10  and  C_11
REMARK    9  A    between atoms: N_26  and  C_27
REMARK                            x       y       z     vdW  Elec       q    Type
REMARK                         _______ _______ _______ _____ _____    ______ ____
ROOT
ATOM      1  N   UNL     1       2.013   6.791  20.769  0.00  0.00    +0.000 N 
ATOM      2  C   UNL     1       2.402   5.803  19.897  0.00  0.00    +0.000 C 
ATOM      3  O   UNL     1       1.788   5.506  18.881  0.00  0.00    +0.000 OA
ATOM      4  N   UNL     1       3.574   5.211  20.295  0.00  0.00    +0.000 N 
ATOM      5  H   UNL     1       2.765   7.236  21.270  0.00  0.00    +0.000 HD
ATOM      6  H   UNL     1       3.709   5.183  21.294  0.00  0.00    +0.000 HD
ENDROOT
BRANCH   1   7
ATOM      7  C   UNL     1       0.861   7.615  20.417  0.00  0.00    +0.000 C 
BRANCH   7   8
ATOM      8  C   UNL     1       1.151   9.134  20.364  0.00  0.00    +0.000 C 
BRANCH   8   9
ATOM      9  C   UNL     1       0.446   9.931  21.448  0.00  0.00    +0.000 A 
ATOM     10  C   UNL     1      -0.328   9.411  22.476  0.00  0.00    +0.000 A 
ATOM     11  C   UNL     1      -0.870  10.514  23.146  0.00  0.00    +0.000 A 
ATOM     12  N   UNL     1      -0.457  11.664  22.623  0.00  0.00    +0.000 NA
ATOM     13  N   UNL     1       0.356  11.299  21.605  0.00  0.00    +0.000 N 
ATOM     14  C   UNL     1       1.030  12.365  20.908  0.00  0.00    +0.000 C 
ENDBRANCH   8   9
BRANCH   8  16
ATOM     15  C   UNL     1      -0.318   9.977  18.407  0.00  0.00    +0.000 C 
ATOM     16  C   UNL     1       1.101   9.684  18.909  0.00  0.00    +0.000 C 
ATOM     17  C   UNL     1       1.895   8.915  17.851  0.00  0.00    +0.000 C 
ENDBRANCH   8  16
ENDBRANCH   7   8
ENDBRANCH   1   7
BRANCH   4  18
ATOM     18  C   UNL     1       4.079   4.081  19.546  0.00  0.00    +0.000 C 
BRANCH  18  19
ATOM     19  C   UNL     1       4.949   4.514  18.394  0.00  0.00    +0.000 A 
ATOM     20  C   UNL     1       5.833   5.594  18.544  0.00  0.00    +0.000 A 
ATOM     21  C   UNL     1       6.630   6.020  17.475  0.00  0.00    +0.000 A 
ATOM     22 CL   UNL     1       7.682   7.369  17.726  0.00  0.00    +0.000 Cl
ATOM     23  C   UNL     1       6.572   5.363  16.243  0.00  0.00    +0.000 A 
ATOM     24  C   UNL     1       5.684   4.292  16.085  0.00  0.00    +0.000 A 
ATOM     25  C   UNL     1       4.893   3.858  17.156  0.00  0.00    +0.000 A 
ATOM     26  O   UNL     1       5.530   3.608  14.904  0.00  0.00    +0.000 OA
ATOM     27  C   UNL     1       6.099   4.321  13.802  0.00  0.00    +0.000 C 
ATOM     28  C   UNL     1       7.474   4.848  14.161  0.00  0.00    +0.000 C 
ATOM     29  O   UNL     1       7.379   5.804  15.222  0.00  0.00    +0.000 OA
ENDBRANCH  18  19
ENDBRANCH   4  18
TORSDOF 6
ENDMDL
MODEL 5
REMARK VINA RESULT:      -7.6      5.670      8.752
REMARK  Name = 
REMARK  9 active torsions:
REMARK  status: ('A' for Active; 'I' for Inactive)
REMARK    1  A    between atoms: C_1  and  C_2
REMARK    2  A    between atoms: C_2  and  C_3
REMARK    3  A    between atoms: C_2  and  C_4
REMARK    4  A    between atoms: C_4  and  C_5
REMARK    5  A    between atoms: C_4  and  C_22
REMARK    6  A    between atoms: C_5  and  N_6
REMARK    7  A    between atoms: N_9  and  C_10
REMARK    8  A    between atoms: C_10  and  C_11
REMARK    9  A    between atoms: N_26  and  C_27
REMARK                            x       y       z     vdW  Elec       q    Type
REMARK                         _______ _______ _______ _____ _____    ______ ____
ROOT
ATOM      1  N   UNL     1       2.755   6.058  18.433  0.00  0.00    +0.000 N 
ATOM      2  C   UNL     1       2.163   6.234  19.660  0.00  0.00    +0.000 C 
ATOM      3  O   UNL     1       1.733   5.319  20.349  0.00  0.00    +0.000 OA
ATOM      4  N   UNL     1       2.136   7.556  20.024  0.00  0.00    +0.000 N 
ATOM      5  H   UNL     1       3.436   6.758  18.185  0.00  0.00    +0.000 HD
ATOM      6  H   UNL     1       2.061   8.200  19.251  0.00  0.00    +0.000 HD
ENDROOT
BRANCH   1   7
ATOM      7  C   UNL     1       2.989   4.698  17.961  0.00  0.00    +0.000 C 
BRANCH   7   8
ATOM      8  C   UNL     1       4.362   4.108  18.362  0.00  0.00    +0.000 C 
BRANCH   8   9
ATOM      9  C   UNL     1       5.464   4.378  17.351  0.00  0.00    +0.000 A 
ATOM     10  C   UNL     1       5.430   4.065  15.998  0.00  0.00    +0.000 A 
ATOM     11  C   UNL     1       6.700   4.381  15.500  0.00  0.00    +0.000 A 
ATOM     12  N   UNL     1       7.489   4.892  16.439  0.00  0.00    +0.000 NA
ATOM     13  N   UNL     1       6.723   4.903  17.553  0.00  0.00    +0.000 N 
ATOM     14  C   UNL     1       7.306   5.505  18.727  0.00  0.00    +0.000 C 
ENDBRANCH   8   9
BRANCH   8  16
ATOM     15  C   UNL     1       3.317   1.755  18.094  0.00  0.00    +0.000 C 
ATOM     16  C   UNL     1       4.231   2.663  18.925  0.00  0.00    +0.000 C 
ATOM     17  C   UNL     1       3.909   2.528  20.414  0.00  0.00    +0.000 C 
ENDBRANCH   8  16
ENDBRANCH   7   8
ENDBRANCH   1   7
BRANCH   4  18
ATOM     18  C   UNL     1       1.458   7.935  21.245  0.00  0.00    +0.000 C 
BRANCH  18  19
ATOM     19  C   UNL     1       0.722   9.243  21.097  0.00  0.00    +0.000 A 
ATOM     20  C   UNL     1      -0.074   9.727  22.146  0.00  0.00    +0.000 A 
ATOM     21  C   UNL     1      -0.780  10.929  22.013  0.00  0.00    +0.000 A 
ATOM     22 CL   UNL     1      -1.755  11.455  23.339  0.00  0.00    +0.000 Cl
ATOM     23  C   UNL     1      -0.688  11.677  20.836  0.00  0.00    +0.000 A 
ATOM     24  C   UNL     1       0.095  11.191  19.782  0.00  0.00    +0.000 A 
ATOM     25  C   UNL     1       0.810   9.995  19.917  0.00  0.00    +0.000 A 
ATOM     26  O   UNL     1       0.219  11.836  18.575  0.00  0.00    +0.000 OA
ATOM     27  C   UNL     1      -0.792  12.834  18.403  0.00  0.00    +0.000 C 
ATOM     28  C   UNL     1      -0.935  13.669  19.661  0.00  0.00    +0.000 C 
ATOM     29  O   UNL     1      -1.388  12.856  20.748  0.00  0.00    +0.000 OA
ENDBRANCH  18  19
ENDBRANCH   4  18
TORSDOF 6
ENDMDL
MODEL 6
REMARK VINA RESULT:      -7.6      1.136      2.034
REMARK  Name = 
REMARK  9 active torsions:
REMARK  status: ('A' for Active; 'I' for Inactive)
REMARK    1  A    between atoms: C_1  and  C_2
REMARK    2  A    between atoms: C_2  and  C_3
REMARK    3  A    between atoms: C_2  and  C_4
REMARK    4  A    between atoms: C_4  and  C_5
REMARK    5  A    between atoms: C_4  and  C_22
REMARK    6  A    between atoms: C_5  and  N_6
REMARK    7  A    between atoms: N_9  and  C_10
REMARK    8  A    between atoms: C_10  and  C_11
REMARK    9  A    between atoms: N_26  and  C_27
REMARK                            x       y       z     vdW  Elec       q    Type
REMARK                         _______ _______ _______ _____ _____    ______ ____
ROOT
ATOM      1  N   UNL     1       8.491   9.670  18.103  0.00  0.00    +0.000 N 
ATOM      2  C   UNL     1       8.225   8.322  18.117  0.00  0.00    +0.000 C 
ATOM      3  O   UNL     1       8.624   7.555  18.983  0.00  0.00    +0.000 OA
ATOM      4  N   UNL     1       7.440   7.950  17.056  0.00  0.00    +0.000 N 
ATOM      5  H   UNL     1       7.789  10.237  17.653  0.00  0.00    +0.000 HD
ATOM      6  H   UNL     1       7.577   8.501  16.222  0.00  0.00    +0.000 HD
ENDROOT
BRANCH   1   7
ATOM      7  C   UNL     1       9.196  10.253  19.238  0.00  0.00    +0.000 C 
BRANCH   7   8
ATOM      8  C   UNL     1       9.749  11.676  18.989  0.00  0.00    +0.000 C 
BRANCH   8   9
ATOM      9  C   UNL     1       8.683  12.687  18.599  0.00  0.00    +0.000 A 
ATOM     10  C   UNL     1       7.980  12.718  17.403  0.00  0.00    +0.000 A 
ATOM     11  C   UNL     1       7.207  13.884  17.441  0.00  0.00    +0.000 A 
ATOM     12  N   UNL     1       7.363  14.546  18.583  0.00  0.00    +0.000 NA
ATOM     13  N   UNL     1       8.246  13.801  19.286  0.00  0.00    +0.000 N 
ATOM     14  C   UNL     1       8.532  14.242  20.629  0.00  0.00    +0.000 C 
ENDBRANCH   8   9
BRANCH   8  16
ATOM     15  C   UNL     1      12.329  11.470  19.008  0.00  0.00    +0.000 C 
ATOM     16  C   UNL     1      11.065  11.651  18.159  0.00  0.00    +0.000 C 
ATOM     17  C   UNL     1      11.261  12.775  17.140  0.00  0.00    +0.000 C 
ENDBRANCH   8  16
ENDBRANCH   7   8
ENDBRANCH   1   7
BRANCH   4  18
ATOM     18  C   UNL     1       7.144   6.548  16.859  0.00  0.00    +0.000 C 
BRANCH  18  19
ATOM     19  C   UNL     1       5.812   6.165  17.452  0.00  0.00    +0.000 A 
ATOM     20  C   UNL     1       4.729   7.057  17.390  0.00  0.00    +0.000 A 
ATOM     21  C   UNL     1       3.493   6.723  17.956  0.00  0.00    +0.000 A 
ATOM     22 CL   UNL     1       2.210   7.877  17.858  0.00  0.00    +0.000 Cl
ATOM     23  C   UNL     1       3.312   5.485  18.579  0.00  0.00    +0.000 A 
ATOM     24  C   UNL     1       4.392   4.597  18.655  0.00  0.00    +0.000 A 
ATOM     25  C   UNL     1       5.625   4.925  18.079  0.00  0.00    +0.000 A 
ATOM     26  O   UNL     1       4.321   3.374  19.277  0.00  0.00    +0.000 OA
ATOM     27  C   UNL     1       3.167   3.275  20.117  0.00  0.00    +0.000 C 
ATOM     28  C   UNL     1       1.938   3.795  19.396  0.00  0.00    +0.000 C 
ATOM     29  O   UNL     1       2.081   5.190  19.114  0.00  0.00    +0.000 OA
ENDBRANCH  18  19
ENDBRANCH   4  18
TORSDOF 6
ENDMDL
MODEL 7
REMARK VINA RESULT:      -7.6      5.387      8.053
REMARK  Name = 
REMARK  9 active torsions:
REMARK  status: ('A' for Active; 'I' for Inactive)
REMARK    1  A    between atoms: C_1  and  C_2
REMARK    2  A    between atoms: C_2  and  C_3
REMARK    3  A    between atoms: C_2  and  C_4
REMARK    4  A    between atoms: C_4  and  C_5
REMARK    5  A    between atoms: C_4  and  C_22
REMARK    6  A    between atoms: C_5  and  N_6
REMARK    7  A    between atoms: N_9  and  C_10
REMARK    8  A    between atoms: C_10  and  C_11
REMARK    9  A    between atoms: N_26  and  C_27
REMARK                            x       y       z     vdW  Elec       q    Type
REMARK                         _______ _______ _______ _____ _____    ______ ____
ROOT
ATOM      1  N   UNL     1       4.162   6.241  18.490  0.00  0.00    +0.000 N 
ATOM      2  C   UNL     1       2.933   6.828  18.309  0.00  0.00    +0.000 C 
ATOM      3  O   UNL     1       1.868   6.248  18.470  0.00  0.00    +0.000 OA
ATOM      4  N   UNL     1       3.050   8.146  17.948  0.00  0.00    +0.000 N 
ATOM      5  H   UNL     1       4.897   6.872  18.768  0.00  0.00    +0.000 HD
ATOM      6  H   UNL     1       3.875   8.360  17.408  0.00  0.00    +0.000 HD
ENDROOT
BRANCH   1   7
ATOM      7  C   UNL     1       4.214   4.880  19.012  0.00  0.00    +0.000 C 
BRANCH   7   8
ATOM      8  C   UNL     1       4.848   3.848  18.050  0.00  0.00    +0.000 C 
BRANCH   8   9
ATOM      9  C   UNL     1       5.678   4.473  16.941  0.00  0.00    +0.000 A 
ATOM     10  C   UNL     1       5.395   4.435  15.583  0.00  0.00    +0.000 A 
ATOM     11  C   UNL     1       6.492   5.027  14.945  0.00  0.00    +0.000 A 
ATOM     12  N   UNL     1       7.403   5.451  15.815  0.00  0.00    +0.000 NA
ATOM     13  N   UNL     1       6.891   5.126  17.024  0.00  0.00    +0.000 N 
ATOM     14  C   UNL     1       7.641   5.561  18.176  0.00  0.00    +0.000 C 
ENDBRANCH   8   9
BRANCH   8  16
ATOM     15  C   UNL     1       2.471   3.247  17.220  0.00  0.00    +0.000 C 
ATOM     16  C   UNL     1       3.844   2.725  17.660  0.00  0.00    +0.000 C 
ATOM     17  C   UNL     1       3.684   1.566  18.646  0.00  0.00    +0.000 C 
ENDBRANCH   8  16
ENDBRANCH   7   8
ENDBRANCH   1   7
BRANCH   4  18
ATOM     18  C   UNL     1       1.855   8.893  17.619  0.00  0.00    +0.000 C 
BRANCH  18  19
ATOM     19  C   UNL     1       1.347   9.688  18.795  0.00  0.00    +0.000 A 
ATOM     20  C   UNL     1       1.523  11.080  18.835  0.00  0.00    +0.000 A 
ATOM     21  C   UNL     1       1.075  11.826  19.931  0.00  0.00    +0.000 A 
ATOM     22 CL   UNL     1       1.340  13.534  19.920  0.00  0.00    +0.000 Cl
ATOM     23  C   UNL     1       0.429  11.198  20.999  0.00  0.00    +0.000 A 
ATOM     24  C   UNL     1       0.263   9.808  20.970  0.00  0.00    +0.000 A 
ATOM     25  C   UNL     1       0.700   9.061  19.869  0.00  0.00    +0.000 A 
ATOM     26  O   UNL     1      -0.327   9.097  21.987  0.00  0.00    +0.000 OA
ATOM     27  C   UNL     1      -0.420   9.871  23.187  0.00  0.00    +0.000 C 
ATOM     28  C   UNL     1      -0.934  11.265  22.883  0.00  0.00    +0.000 C 
ATOM     29  O   UNL     1      -0.004  11.967  22.052  0.00  0.00    +0.000 OA
ENDBRANCH  18  19
ENDBRANCH   4  18
TORSDOF 6
ENDMDL
MODEL 8
REMARK VINA RESULT:      -7.5      5.755      8.968
REMARK  Name = 
REMARK  9 active torsions:
REMARK  status: ('A' for Active; 'I' for Inactive)
REMARK    1  A    between atoms: C_1  and  C_2
REMARK    2  A    between atoms: C_2  and  C_3
REMARK    3  A    between atoms: C_2  and  C_4
REMARK    4  A    between atoms: C_4  and  C_5
REMARK    5  A    between atoms: C_4  and  C_22
REMARK    6  A    between atoms: C_5  and  N_6
REMARK    7  A    between atoms: N_9  and  C_10
REMARK    8  A    between atoms: C_10  and  C_11
REMARK    9  A    between atoms: N_26  and  C_27
REMARK                            x       y       z     vdW  Elec       q    Type
REMARK                         _______ _______ _______ _____ _____    ______ ____
ROOT
ATOM      1  N   UNL     1       2.397   7.214  18.912  0.00  0.00    +0.000 N 
ATOM      2  C   UNL     1       2.098   8.445  18.381  0.00  0.00    +0.000 C 
ATOM      3  O   UNL     1       2.492   8.834  17.290  0.00  0.00    +0.000 OA
ATOM      4  N   UNL     1       1.287   9.172  19.216  0.00  0.00    +0.000 N 
ATOM      5  H   UNL     1       1.703   6.841  19.540  0.00  0.00    +0.000 HD
ATOM      6  H   UNL     1       1.425   8.986  20.197  0.00  0.00    +0.000 HD
ENDROOT
BRANCH   1   7
ATOM      7  C   UNL     1       3.135   6.262  18.089  0.00  0.00    +0.000 C 
BRANCH   7   8
ATOM      8  C   UNL     1       3.920   5.195  18.889  0.00  0.00    +0.000 C 
BRANCH   8   9
ATOM      9  C   UNL     1       5.363   5.033  18.441  0.00  0.00    +0.000 A 
ATOM     10  C   UNL     1       6.493   5.328  19.191  0.00  0.00    +0.000 A 
ATOM     11  C   UNL     1       7.583   5.141  18.332  0.00  0.00    +0.000 A 
ATOM     12  N   UNL     1       7.203   4.724  17.129  0.00  0.00    +0.000 NA
ATOM     13  N   UNL     1       5.855   4.643  17.212  0.00  0.00    +0.000 N 
ATOM     14  C   UNL     1       5.172   4.116  16.057  0.00  0.00    +0.000 C 
ENDBRANCH   8   9
BRANCH   8  16
ATOM     15  C   UNL     1       2.111   3.588  17.971  0.00  0.00    +0.000 C 
ATOM     16  C   UNL     1       3.080   3.905  19.115  0.00  0.00    +0.000 C 
ATOM     17  C   UNL     1       2.377   3.766  20.466  0.00  0.00    +0.000 C 
ENDBRANCH   8  16
ENDBRANCH   7   8
ENDBRANCH   1   7
BRANCH   4  18
ATOM     18  C   UNL     1       0.954  10.534  18.860  0.00  0.00    +0.000 C 
BRANCH  18  19
ATOM     19  C   UNL     1      -0.518  10.696  18.572  0.00  0.00    +0.000 A 
ATOM     20  C   UNL     1      -1.072  10.152  17.403  0.00  0.00    +0.000 A 
ATOM     21  C   UNL     1      -2.432  10.314  17.114  0.00  0.00    +0.000 A 
ATOM     22 CL   UNL     1      -3.043   9.633  15.648  0.00  0.00    +0.000 Cl
ATOM     23  C   UNL     1      -3.266  11.007  17.996  0.00  0.00    +0.000 A 
ATOM     24  C   UNL     1      -2.714  11.562  19.158  0.00  0.00    +0.000 A 
ATOM     25  C   UNL     1      -1.357  11.391  19.454  0.00  0.00    +0.000 A 
ATOM     26  O   UNL     1      -3.444  12.289  20.067  0.00  0.00    +0.000 OA
ATOM     27  C   UNL     1      -4.703  12.700  19.525  0.00  0.00    +0.000 C 
ATOM     28  C   UNL     1      -5.378  11.546  18.809  0.00  0.00    +0.000 C 
ATOM     29  O   UNL     1      -4.597  11.136  17.682  0.00  0.00    +0.000 OA
ENDBRANCH  18  19
ENDBRANCH   4  18
TORSDOF 6
ENDMDL
MODEL 9
REMARK VINA RESULT:      -7.5      6.477     10.099
REMARK  Name = 
REMARK  9 active torsions:
REMARK  status: ('A' for Active; 'I' for Inactive)
REMARK    1  A    between atoms: C_1  and  C_2
REMARK    2  A    between atoms: C_2  and  C_3
REMARK    3  A    between atoms: C_2  and  C_4
REMARK    4  A    between atoms: C_4  and  C_5
REMARK    5  A    between atoms: C_4  and  C_22
REMARK    6  A    between atoms: C_5  and  N_6
REMARK    7  A    between atoms: N_9  and  C_10
REMARK    8  A    between atoms: C_10  and  C_11
REMARK    9  A    between atoms: N_26  and  C_27
REMARK                            x       y       z     vdW  Elec       q    Type
REMARK                         _______ _______ _______ _____ _____    ______ ____
ROOT
ATOM      1  N   UNL     1       1.872   8.365  18.691  0.00  0.00    +0.000 N 
ATOM      2  C   UNL     1       1.204   9.426  19.254  0.00  0.00    +0.000 C 
ATOM      3  O   UNL     1       0.863   9.473  20.428  0.00  0.00    +0.000 OA
ATOM      4  N   UNL     1       0.989  10.429  18.344  0.00  0.00    +0.000 N 
ATOM      5  H   UNL     1       2.469   8.603  17.915  0.00  0.00    +0.000 HD
ATOM      6  H   UNL     1       0.869  10.112  17.394  0.00  0.00    +0.000 HD
ENDROOT
BRANCH   1   7
ATOM      7  C   UNL     1       2.303   7.274  19.558  0.00  0.00    +0.000 C 
BRANCH   7   8
ATOM      8  C   UNL     1       2.716   5.985  18.810  0.00  0.00    +0.000 C 
BRANCH   8   9
ATOM      9  C   UNL     1       2.120   4.717  19.399  0.00  0.00    +0.000 A 
ATOM     10  C   UNL     1       1.593   4.575  20.676  0.00  0.00    +0.000 A 
ATOM     11  C   UNL     1       1.283   3.217  20.814  0.00  0.00    +0.000 A 
ATOM     12  N   UNL     1       1.551   2.531  19.708  0.00  0.00    +0.000 NA
ATOM     13  N   UNL     1       2.041   3.454  18.850  0.00  0.00    +0.000 N 
ATOM     14  C   UNL     1       2.334   2.997  17.514  0.00  0.00    +0.000 C 
ENDBRANCH   8   9
BRANCH   8  16
ATOM     15  C   UNL     1       4.515   5.860  16.953  0.00  0.00    +0.000 C 
ATOM     16  C   UNL     1       4.231   5.978  18.455  0.00  0.00    +0.000 C 
ATOM     17  C   UNL     1       5.122   5.019  19.246  0.00  0.00    +0.000 C 
ENDBRANCH   8  16
ENDBRANCH   7   8
ENDBRANCH   1   7
BRANCH   4  18
ATOM     18  C   UNL     1       0.210  11.581  18.740  0.00  0.00    +0.000 C 
BRANCH  18  19
ATOM     19  C   UNL     1      -1.244  11.432  18.368  0.00  0.00    +0.000 A 
ATOM     20  C   UNL     1      -1.605  10.753  17.193  0.00  0.00    +0.000 A 
ATOM     21  C   UNL     1      -2.950  10.627  16.825  0.00  0.00    +0.000 A 
ATOM     22 CL   UNL     1      -3.320   9.794  15.356  0.00  0.00    +0.000 Cl
ATOM     23  C   UNL     1      -3.958  11.161  17.632  0.00  0.00    +0.000 A 
ATOM     24  C   UNL     1      -3.602  11.850  18.798  0.00  0.00    +0.000 A 
ATOM     25  C   UNL     1      -2.258  11.967  19.174  0.00  0.00    +0.000 A 
ATOM     26  O   UNL     1      -4.518  12.439  19.635  0.00  0.00    +0.000 OA
ATOM     27  C   UNL     1      -5.798  12.570  19.010  0.00  0.00    +0.000 C 
ATOM     28  C   UNL     1      -6.181  11.283  18.306  0.00  0.00    +0.000 C 
ATOM     29  O   UNL     1      -5.266  11.007  17.241  0.00  0.00    +0.000 OA
ENDBRANCH  18  19
ENDBRANCH   4  18
TORSDOF 6
ENDMDL
