MODEL 1
REMARK VINA RESULT:      -8.5      0.000      0.000
REMARK  Name = 
REMARK  5 active torsions:
REMARK  status: ('A' for Active; 'I' for Inactive)
REMARK    1  A    between atoms: C_6  and  C_7
REMARK    2  A    between atoms: C_7  and  C_8
REMARK    3  A    between atoms: C_11  and  C_12
REMARK    4  A    between atoms: C_12  and  C_14
REMARK    5  A    between atoms: C_15  and  C_16
REMARK                            x       y       z     vdW  Elec       q    Type
REMARK                         _______ _______ _______ _____ _____    ______ ____
ROOT
ATOM      1  C   UNL     1       3.350   5.625  19.174  0.00  0.00    +0.000 A 
ATOM      2  C   UNL     1       3.366   6.528  18.104  0.00  0.00    +0.000 A 
ATOM      3  C   UNL     1       4.573   6.871  17.484  0.00  0.00    +0.000 A 
ATOM      4  C   UNL     1       5.782   6.316  17.923  0.00  0.00    +0.000 A 
ATOM      5  C   UNL     1       5.770   5.425  19.002  0.00  0.00    +0.000 A 
ATOM      6  C   UNL     1       4.564   5.080  19.617  0.00  0.00    +0.000 A 
ENDROOT
BRANCH   4   7
ATOM      7  C   UNL     1       7.042   6.726  17.240  0.00  0.00    +0.000 C 
ATOM      8  O   UNL     1       7.381   6.190  16.189  0.00  0.00    +0.000 OA
BRANCH   7   9
ATOM      9  C   UNL     1       7.879   7.767  17.894  0.00  0.00    +0.000 C 
ATOM     10  C   UNL     1       7.745   9.061  17.564  0.00  0.00    +0.000 C 
BRANCH  10  11
ATOM     11  C   UNL     1       8.568  10.039  18.190  0.00  0.00    +0.000 A 
ATOM     12  C   UNL     1       9.439   9.896  19.264  0.00  0.00    +0.000 A 
ATOM     13  C   UNL     1      10.025  11.159  19.523  0.00  0.00    +0.000 A 
ATOM     14  C   UNL     1       9.490  12.016  18.599  0.00  0.00    +0.000 A 
ATOM     15  O   UNL     1       8.621  11.360  17.795  0.00  0.00    +0.000 OA
ENDBRANCH  10  11
ENDBRANCH   7   9
ENDBRANCH   4   7
BRANCH   1  16
ATOM     16  C   UNL     1       2.061   5.246  19.871  0.00  0.00    +0.000 C 
BRANCH  16  22
ATOM     17  O   UNL     1       3.798   1.033  18.550  0.00  0.00    +0.000 OA
ATOM     18  C   UNL     1       3.007   1.952  18.669  0.00  0.00    +0.000 C 
ATOM     19  N   UNL     1       2.466   2.658  17.651  0.00  0.00    +0.000 N 
ATOM     20  C   UNL     1       1.603   3.671  17.937  0.00  0.00    +0.000 C 
ATOM     21  O   UNL     1       1.021   4.298  17.063  0.00  0.00    +0.000 OA
ATOM     22  C   UNL     1       1.464   3.908  19.430  0.00  0.00    +0.000 C 
ATOM     23  S   UNL     1       2.413   2.540  20.200  0.00  0.00    +0.000 S 
ATOM     24  H   UNL     1       2.659   2.403  16.696  0.00  0.00    +0.000 HD
ENDBRANCH  16  22
ENDBRANCH   1  16
TORSDOF 5
ENDMDL
MODEL 2
REMARK VINA RESULT:      -8.3      5.124      7.822
REMARK  Name = 
REMARK  5 active torsions:
REMARK  status: ('A' for Active; 'I' for Inactive)
REMARK    1  A    between atoms: C_6  and  C_7
REMARK    2  A    between atoms: C_7  and  C_8
REMARK    3  A    between atoms: C_11  and  C_12
REMARK    4  A    between atoms: C_12  and  C_14
REMARK    5  A    between atoms: C_15  and  C_16
REMARK                            x       y       z     vdW  Elec       q    Type
REMARK                         _______ _______ _______ _____ _____    ______ ____
ROOT
ATOM      1  C   UNL     1       2.795   6.960  18.510  0.00  0.00    +0.000 A 
ATOM      2  C   UNL     1       2.623   8.007  17.596  0.00  0.00    +0.000 A 
ATOM      3  C   UNL     1       1.913   9.157  17.961  0.00  0.00    +0.000 A 
ATOM      4  C   UNL     1       1.366   9.280  19.244  0.00  0.00    +0.000 A 
ATOM      5  C   UNL     1       1.524   8.229  20.154  0.00  0.00    +0.000 A 
ATOM      6  C   UNL     1       2.236   7.083  19.791  0.00  0.00    +0.000 A 
ENDROOT
BRANCH   4   7
ATOM      7  C   UNL     1       0.605  10.518  19.577  0.00  0.00    +0.000 C 
ATOM      8  O   UNL     1       0.848  11.136  20.610  0.00  0.00    +0.000 OA
BRANCH   7   9
ATOM      9  C   UNL     1      -0.469  10.945  18.643  0.00  0.00    +0.000 C 
ATOM     10  C   UNL     1      -1.541  10.167  18.429  0.00  0.00    +0.000 C 
BRANCH  10  11
ATOM     11  C   UNL     1      -2.550  10.588  17.517  0.00  0.00    +0.000 A 
ATOM     12  C   UNL     1      -3.809  11.116  17.782  0.00  0.00    +0.000 A 
ATOM     13  C   UNL     1      -4.445  11.371  16.544  0.00  0.00    +0.000 A 
ATOM     14  C   UNL     1      -3.551  10.992  15.578  0.00  0.00    +0.000 A 
ATOM     15  O   UNL     1      -2.415  10.525  16.145  0.00  0.00    +0.000 OA
ENDBRANCH  10  11
ENDBRANCH   7   9
ENDBRANCH   4   7
BRANCH   1  16
ATOM     16  C   UNL     1       3.546   5.701  18.139  0.00  0.00    +0.000 C 
BRANCH  16  22
ATOM     17  O   UNL     1       7.751   4.767  16.149  0.00  0.00    +0.000 OA
ATOM     18  C   UNL     1       6.908   4.906  17.017  0.00  0.00    +0.000 C 
ATOM     19  N   UNL     1       6.480   3.939  17.859  0.00  0.00    +0.000 N 
ATOM     20  C   UNL     1       5.518   4.239  18.774  0.00  0.00    +0.000 C 
ATOM     21  O   UNL     1       5.142   3.432  19.613  0.00  0.00    +0.000 OA
ATOM     22  C   UNL     1       4.998   5.656  18.621  0.00  0.00    +0.000 C 
ATOM     23  S   UNL     1       6.081   6.407  17.346  0.00  0.00    +0.000 S 
ATOM     24  H   UNL     1       6.904   3.025  17.841  0.00  0.00    +0.000 HD
ENDBRANCH  16  22
ENDBRANCH   1  16
TORSDOF 5
ENDMDL
MODEL 3
REMARK VINA RESULT:      -8.2      0.682      1.321
REMARK  Name = 
REMARK  5 active torsions:
REMARK  status: ('A' for Active; 'I' for Inactive)
REMARK    1  A    between atoms: C_6  and  C_7
REMARK    2  A    between atoms: C_7  and  C_8
REMARK    3  A    between atoms: C_11  and  C_12
REMARK    4  A    between atoms: C_12  and  C_14
REMARK    5  A    between atoms: C_15  and  C_16
REMARK                            x       y       z     vdW  Elec       q    Type
REMARK                         _______ _______ _______ _____ _____    ______ ____
ROOT
ATOM      1  C   UNL     1       3.392   5.619  19.143  0.00  0.00    +0.000 A 
ATOM      2  C   UNL     1       4.607   5.050  19.543  0.00  0.00    +0.000 A 
ATOM      3  C   UNL     1       5.789   5.348  18.854  0.00  0.00    +0.000 A 
ATOM      4  C   UNL     1       5.775   6.219  17.758  0.00  0.00    +0.000 A 
ATOM      5  C   UNL     1       4.559   6.777  17.348  0.00  0.00    +0.000 A 
ATOM      6  C   UNL     1       3.381   6.483  18.039  0.00  0.00    +0.000 A 
ENDROOT
BRANCH   4   7
ATOM      7  C   UNL     1       7.058   6.491  17.049  0.00  0.00    +0.000 C 
ATOM      8  O   UNL     1       7.597   5.612  16.383  0.00  0.00    +0.000 OA
BRANCH   7   9
ATOM      9  C   UNL     1       7.668   7.837  17.211  0.00  0.00    +0.000 C 
ATOM     10  C   UNL     1       8.131   8.242  18.404  0.00  0.00    +0.000 C 
BRANCH  10  11
ATOM     11  C   UNL     1       8.695   9.541  18.539  0.00  0.00    +0.000 A 
ATOM     12  C   UNL     1       8.553  10.651  17.714  0.00  0.00    +0.000 A 
ATOM     13  C   UNL     1       9.317  11.707  18.267  0.00  0.00    +0.000 A 
ATOM     14  C   UNL     1       9.890  11.201  19.403  0.00  0.00    +0.000 A 
ATOM     15  O   UNL     1       9.526   9.910  19.578  0.00  0.00    +0.000 OA
ENDBRANCH  10  11
ENDBRANCH   7   9
ENDBRANCH   4   7
BRANCH   1  16
ATOM     16  C   UNL     1       2.097   5.305  19.861  0.00  0.00    +0.000 C 
BRANCH  16  22
ATOM     17  O   UNL     1       3.736   1.057  18.526  0.00  0.00    +0.000 OA
ATOM     18  C   UNL     1       2.956   1.981  18.675  0.00  0.00    +0.000 C 
ATOM     19  N   UNL     1       2.350   2.665  17.680  0.00  0.00    +0.000 N 
ATOM     20  C   UNL     1       1.510   3.688  17.999  0.00  0.00    +0.000 C 
ATOM     21  O   UNL     1       0.872   4.296  17.151  0.00  0.00    +0.000 OA
ATOM     22  C   UNL     1       1.471   3.959  19.491  0.00  0.00    +0.000 C 
ATOM     23  S   UNL     1       2.466   2.606  20.228  0.00  0.00    +0.000 S 
ATOM     24  H   UNL     1       2.479   2.388  16.720  0.00  0.00    +0.000 HD
ENDBRANCH  16  22
ENDBRANCH   1  16
TORSDOF 5
ENDMDL
MODEL 4
REMARK VINA RESULT:      -8.1      5.391      7.980
REMARK  Name = 
REMARK  5 active torsions:
REMARK  status: ('A' for Active; 'I' for Inactive)
REMARK    1  A    between atoms: C_6  and  C_7
REMARK    2  A    between atoms: C_7  and  C_8
REMARK    3  A    between atoms: C_11  and  C_12
REMARK    4  A    between atoms: C_12  and  C_14
REMARK    5  A    between atoms: C_15  and  C_16
REMARK                            x       y       z     vdW  Elec       q    Type
REMARK                         _______ _______ _______ _____ _____    ______ ____
ROOT
ATOM      1  C   UNL     1       2.797   6.997  18.472  0.00  0.00    +0.000 A 
ATOM      2  C   UNL     1       2.538   8.063  17.601  0.00  0.00    +0.000 A 
ATOM      3  C   UNL     1       1.792   9.166  18.033  0.00  0.00    +0.000 A 
ATOM      4  C   UNL     1       1.296   9.222  19.341  0.00  0.00    +0.000 A 
ATOM      5  C   UNL     1       1.540   8.152  20.208  0.00  0.00    +0.000 A 
ATOM      6  C   UNL     1       2.289   7.053  19.778  0.00  0.00    +0.000 A 
ENDROOT
BRANCH   4   7
ATOM      7  C   UNL     1       0.494  10.411  19.747  0.00  0.00    +0.000 C 
ATOM      8  O   UNL     1       0.987  11.278  20.462  0.00  0.00    +0.000 OA
BRANCH   7   9
ATOM      9  C   UNL     1      -0.919  10.485  19.289  0.00  0.00    +0.000 C 
ATOM     10  C   UNL     1      -1.284  11.347  18.328  0.00  0.00    +0.000 C 
BRANCH  10  11
ATOM     11  C   UNL     1      -2.645  11.413  17.917  0.00  0.00    +0.000 A 
ATOM     12  C   UNL     1      -3.202  11.131  16.674  0.00  0.00    +0.000 A 
ATOM     13  C   UNL     1      -4.598  11.353  16.760  0.00  0.00    +0.000 A 
ATOM     14  C   UNL     1      -4.834  11.758  18.047  0.00  0.00    +0.000 A 
ATOM     15  O   UNL     1      -3.678  11.796  18.749  0.00  0.00    +0.000 OA
ENDBRANCH  10  11
ENDBRANCH   7   9
ENDBRANCH   4   7
BRANCH   1  16
ATOM     16  C   UNL     1       3.589   5.787  18.028  0.00  0.00    +0.000 C 
BRANCH  16  22
ATOM     17  O   UNL     1       7.802   4.697  16.137  0.00  0.00    +0.000 OA
ATOM     18  C   UNL     1       6.952   4.892  16.987  0.00  0.00    +0.000 C 
ATOM     19  N   UNL     1       6.503   3.977  17.874  0.00  0.00    +0.000 N 
ATOM     20  C   UNL     1       5.535   4.337  18.761  0.00  0.00    +0.000 C 
ATOM     21  O   UNL     1       5.140   3.581  19.638  0.00  0.00    +0.000 OA
ATOM     22  C   UNL     1       5.035   5.750  18.528  0.00  0.00    +0.000 C 
ATOM     23  S   UNL     1       6.142   6.418  17.227  0.00  0.00    +0.000 S 
ATOM     24  H   UNL     1       6.915   3.058  17.909  0.00  0.00    +0.000 HD
ENDBRANCH  16  22
ENDBRANCH   1  16
TORSDOF 5
ENDMDL
MODEL 5
REMARK VINA RESULT:      -8.1      5.101      7.819
REMARK  Name = 
REMARK  5 active torsions:
REMARK  status: ('A' for Active; 'I' for Inactive)
REMARK    1  A    between atoms: C_6  and  C_7
REMARK    2  A    between atoms: C_7  and  C_8
REMARK    3  A    between atoms: C_11  and  C_12
REMARK    4  A    between atoms: C_12  and  C_14
REMARK    5  A    between atoms: C_15  and  C_16
REMARK                            x       y       z     vdW  Elec       q    Type
REMARK                         _______ _______ _______ _____ _____    ______ ____
ROOT
ATOM      1  C   UNL     1       2.787   7.119  18.461  0.00  0.00    +0.000 A 
ATOM      2  C   UNL     1       2.246   7.189  19.751  0.00  0.00    +0.000 A 
ATOM      3  C   UNL     1       1.509   8.310  20.151  0.00  0.00    +0.000 A 
ATOM      4  C   UNL     1       1.302   9.378  19.269  0.00  0.00    +0.000 A 
ATOM      5  C   UNL     1       1.854   9.317  17.985  0.00  0.00    +0.000 A 
ATOM      6  C   UNL     1       2.585   8.196  17.584  0.00  0.00    +0.000 A 
ENDROOT
BRANCH   4   7
ATOM      7  C   UNL     1       0.524  10.556  19.749  0.00  0.00    +0.000 C 
ATOM      8  O   UNL     1       0.862  11.147  20.771  0.00  0.00    +0.000 OA
BRANCH   7   9
ATOM      9  C   UNL     1      -0.680  10.956  18.974  0.00  0.00    +0.000 C 
ATOM     10  C   UNL     1      -1.169  10.162  18.009  0.00  0.00    +0.000 C 
BRANCH  10  11
ATOM     11  C   UNL     1      -2.312  10.573  17.268  0.00  0.00    +0.000 A 
ATOM     12  C   UNL     1      -3.431  11.277  17.698  0.00  0.00    +0.000 A 
ATOM     13  C   UNL     1      -4.300  11.437  16.591  0.00  0.00    +0.000 A 
ATOM     14  C   UNL     1      -3.676  10.828  15.534  0.00  0.00    +0.000 A 
ATOM     15  O   UNL     1      -2.488  10.310  15.924  0.00  0.00    +0.000 OA
ENDBRANCH  10  11
ENDBRANCH   7   9
ENDBRANCH   4   7
BRANCH   1  16
ATOM     16  C   UNL     1       3.597   5.925  18.006  0.00  0.00    +0.000 C 
BRANCH  16  22
ATOM     17  O   UNL     1       7.991   4.540  16.872  0.00  0.00    +0.000 OA
ATOM     18  C   UNL     1       7.009   4.766  17.557  0.00  0.00    +0.000 C 
ATOM     19  N   UNL     1       6.317   3.846  18.265  0.00  0.00    +0.000 N 
ATOM     20  C   UNL     1       5.228   4.245  18.977  0.00  0.00    +0.000 C 
ATOM     21  O   UNL     1       4.604   3.479  19.698  0.00  0.00    +0.000 OA
ATOM     22  C   UNL     1       4.907   5.713  18.768  0.00  0.00    +0.000 C 
ATOM     23  S   UNL     1       6.302   6.347  17.760  0.00  0.00    +0.000 S 
ATOM     24  H   UNL     1       6.634   2.891  18.304  0.00  0.00    +0.000 HD
ENDBRANCH  16  22
ENDBRANCH   1  16
TORSDOF 5
ENDMDL
MODEL 6
REMARK VINA RESULT:      -8.0      4.806      7.319
REMARK  Name = 
REMARK  5 active torsions:
REMARK  status: ('A' for Active; 'I' for Inactive)
REMARK    1  A    between atoms: C_6  and  C_7
REMARK    2  A    between atoms: C_7  and  C_8
REMARK    3  A    between atoms: C_11  and  C_12
REMARK    4  A    between atoms: C_12  and  C_14
REMARK    5  A    between atoms: C_15  and  C_16
REMARK                            x       y       z     vdW  Elec       q    Type
REMARK                         _______ _______ _______ _____ _____    ______ ____
ROOT
ATOM      1  C   UNL     1       2.631   7.011  18.851  0.00  0.00    +0.000 A 
ATOM      2  C   UNL     1       2.585   7.979  17.841  0.00  0.00    +0.000 A 
ATOM      3  C   UNL     1       1.938   9.202  18.060  0.00  0.00    +0.000 A 
ATOM      4  C   UNL     1       1.330   9.475  19.291  0.00  0.00    +0.000 A 
ATOM      5  C   UNL     1       1.362   8.503  20.297  0.00  0.00    +0.000 A 
ATOM      6  C   UNL     1       2.012   7.285  20.079  0.00  0.00    +0.000 A 
ENDROOT
BRANCH   4   7
ATOM      7  C   UNL     1       0.640  10.785  19.468  0.00  0.00    +0.000 C 
ATOM      8  O   UNL     1       0.977  11.546  20.370  0.00  0.00    +0.000 OA
BRANCH   7   9
ATOM      9  C   UNL     1      -0.480  11.109  18.546  0.00  0.00    +0.000 C 
ATOM     10  C   UNL     1      -1.321  10.152  18.125  0.00  0.00    +0.000 C 
BRANCH  10  11
ATOM     11  C   UNL     1      -2.377  10.482  17.229  0.00  0.00    +0.000 A 
ATOM     12  C   UNL     1      -3.563  11.161  17.482  0.00  0.00    +0.000 A 
ATOM     13  C   UNL     1      -4.292  11.234  16.271  0.00  0.00    +0.000 A 
ATOM     14  C   UNL     1      -3.522  10.600  15.332  0.00  0.00    +0.000 A 
ATOM     15  O   UNL     1      -2.376  10.149  15.890  0.00  0.00    +0.000 OA
ENDBRANCH  10  11
ENDBRANCH   7   9
ENDBRANCH   4   7
BRANCH   1  16
ATOM     16  C   UNL     1       3.312   5.677  18.638  0.00  0.00    +0.000 C 
BRANCH  16  22
ATOM     17  O   UNL     1       3.848   0.968  18.407  0.00  0.00    +0.000 OA
ATOM     18  C   UNL     1       3.291   2.048  18.501  0.00  0.00    +0.000 C 
ATOM     19  N   UNL     1       2.364   2.530  17.645  0.00  0.00    +0.000 N 
ATOM     20  C   UNL     1       1.836   3.764  17.871  0.00  0.00    +0.000 C 
ATOM     21  O   UNL     1       0.939   4.226  17.179  0.00  0.00    +0.000 OA
ATOM     22  C   UNL     1       2.482   4.460  19.054  0.00  0.00    +0.000 C 
ATOM     23  S   UNL     1       3.589   3.193  19.782  0.00  0.00    +0.000 S 
ATOM     24  H   UNL     1       2.033   1.962  16.881  0.00  0.00    +0.000 HD
ENDBRANCH  16  22
ENDBRANCH   1  16
TORSDOF 5
ENDMDL
MODEL 7
REMARK VINA RESULT:      -8.0      5.189      7.968
REMARK  Name = 
REMARK  5 active torsions:
REMARK  status: ('A' for Active; 'I' for Inactive)
REMARK    1  A    between atoms: C_6  and  C_7
REMARK    2  A    between atoms: C_7  and  C_8
REMARK    3  A    between atoms: C_11  and  C_12
REMARK    4  A    between atoms: C_12  and  C_14
REMARK    5  A    between atoms: C_15  and  C_16
REMARK                            x       y       z     vdW  Elec       q    Type
REMARK                         _______ _______ _______ _____ _____    ______ ____
ROOT
ATOM      1  C   UNL     1       2.929   6.928  18.702  0.00  0.00    +0.000 A 
ATOM      2  C   UNL     1       2.265   7.069  19.927  0.00  0.00    +0.000 A 
ATOM      3  C   UNL     1       1.481   8.201  20.182  0.00  0.00    +0.000 A 
ATOM      4  C   UNL     1       1.347   9.206  19.217  0.00  0.00    +0.000 A 
ATOM      5  C   UNL     1       2.021   9.074  17.998  0.00  0.00    +0.000 A 
ATOM      6  C   UNL     1       2.800   7.943  17.742  0.00  0.00    +0.000 A 
ENDROOT
BRANCH   4   7
ATOM      7  C   UNL     1       0.513  10.399  19.543  0.00  0.00    +0.000 C 
ATOM      8  O   UNL     1       0.668  10.991  20.607  0.00  0.00    +0.000 OA
BRANCH   7   9
ATOM      9  C   UNL     1      -0.523  10.811  18.561  0.00  0.00    +0.000 C 
ATOM     10  C   UNL     1      -1.664  10.116  18.435  0.00  0.00    +0.000 C 
BRANCH  10  11
ATOM     11  C   UNL     1      -2.635  10.518  17.476  0.00  0.00    +0.000 A 
ATOM     12  C   UNL     1      -2.562  10.491  16.087  0.00  0.00    +0.000 A 
ATOM     13  C   UNL     1      -3.779  11.003  15.575  0.00  0.00    +0.000 A 
ATOM     14  C   UNL     1      -4.542  11.318  16.668  0.00  0.00    +0.000 A 
ATOM     15  O   UNL     1      -3.872  11.032  17.808  0.00  0.00    +0.000 OA
ENDBRANCH  10  11
ENDBRANCH   7   9
ENDBRANCH   4   7
BRANCH   1  16
ATOM     16  C   UNL     1       3.793   5.722  18.405  0.00  0.00    +0.000 C 
BRANCH  16  22
ATOM     17  O   UNL     1       6.861   3.874  15.292  0.00  0.00    +0.000 OA
ATOM     18  C   UNL     1       6.451   4.511  16.246  0.00  0.00    +0.000 C 
ATOM     19  N   UNL     1       6.796   4.303  17.536  0.00  0.00    +0.000 N 
ATOM     20  C   UNL     1       6.246   5.088  18.502  0.00  0.00    +0.000 C 
ATOM     21  O   UNL     1       6.573   5.002  19.677  0.00  0.00    +0.000 OA
ATOM     22  C   UNL     1       5.215   6.052  17.944  0.00  0.00    +0.000 C 
ATOM     23  S   UNL     1       5.325   5.838  16.126  0.00  0.00    +0.000 S 
ATOM     24  H   UNL     1       7.489   3.610  17.772  0.00  0.00    +0.000 HD
ENDBRANCH  16  22
ENDBRANCH   1  16
TORSDOF 5
ENDMDL
MODEL 8
REMARK VINA RESULT:      -8.0      1.681      1.985
REMARK  Name = 
REMARK  5 active torsions:
REMARK  status: ('A' for Active; 'I' for Inactive)
REMARK    1  A    between atoms: C_6  and  C_7
REMARK    2  A    between atoms: C_7  and  C_8
REMARK    3  A    between atoms: C_11  and  C_12
REMARK    4  A    between atoms: C_12  and  C_14
REMARK    5  A    between atoms: C_15  and  C_16
REMARK                            x       y       z     vdW  Elec       q    Type
REMARK                         _______ _______ _______ _____ _____    ______ ____
ROOT
ATOM      1  C   UNL     1       3.007   4.950  17.753  0.00  0.00    +0.000 A 
ATOM      2  C   UNL     1       3.888   3.936  17.357  0.00  0.00    +0.000 A 
ATOM      3  C   UNL     1       5.265   4.180  17.290  0.00  0.00    +0.000 A 
ATOM      4  C   UNL     1       5.782   5.439  17.619  0.00  0.00    +0.000 A 
ATOM      5  C   UNL     1       4.902   6.458  18.000  0.00  0.00    +0.000 A 
ATOM      6  C   UNL     1       3.529   6.213  18.071  0.00  0.00    +0.000 A 
ENDROOT
BRANCH   4   7
ATOM      7  C   UNL     1       7.254   5.653  17.516  0.00  0.00    +0.000 C 
ATOM      8  O   UNL     1       7.964   4.819  16.962  0.00  0.00    +0.000 OA
BRANCH   7   9
ATOM      9  C   UNL     1       7.823   6.879  18.135  0.00  0.00    +0.000 C 
ATOM     10  C   UNL     1       7.789   8.054  17.486  0.00  0.00    +0.000 C 
BRANCH  10  11
ATOM     11  C   UNL     1       8.355   9.211  18.090  0.00  0.00    +0.000 A 
ATOM     12  C   UNL     1       8.268  10.541  17.692  0.00  0.00    +0.000 A 
ATOM     13  C   UNL     1       9.007  11.322  18.613  0.00  0.00    +0.000 A 
ATOM     14  C   UNL     1       9.510  10.441  19.533  0.00  0.00    +0.000 A 
ATOM     15  O   UNL     1       9.127   9.178  19.234  0.00  0.00    +0.000 OA
ENDBRANCH  10  11
ENDBRANCH   7   9
ENDBRANCH   4   7
BRANCH   1  16
ATOM     16  C   UNL     1       1.513   4.718  17.822  0.00  0.00    +0.000 C 
BRANCH  16  22
ATOM     17  O   UNL     1       3.528   2.413  21.447  0.00  0.00    +0.000 OA
ATOM     18  C   UNL     1       2.660   2.799  20.684  0.00  0.00    +0.000 C 
ATOM     19  N   UNL     1       1.901   2.008  19.894  0.00  0.00    +0.000 N 
ATOM     20  C   UNL     1       0.975   2.584  19.080  0.00  0.00    +0.000 C 
ATOM     21  O   UNL     1       0.204   1.922  18.398  0.00  0.00    +0.000 OA
ATOM     22  C   UNL     1       1.022   4.099  19.132  0.00  0.00    +0.000 C 
ATOM     23  S   UNL     1       2.224   4.474  20.466  0.00  0.00    +0.000 S 
ATOM     24  H   UNL     1       1.985   1.006  19.947  0.00  0.00    +0.000 HD
ENDBRANCH  16  22
ENDBRANCH   1  16
TORSDOF 5
ENDMDL
MODEL 9
REMARK VINA RESULT:      -7.9      2.088      2.907
REMARK  Name = 
REMARK  5 active torsions:
REMARK  status: ('A' for Active; 'I' for Inactive)
REMARK    1  A    between atoms: C_6  and  C_7
REMARK    2  A    between atoms: C_7  and  C_8
REMARK    3  A    between atoms: C_11  and  C_12
REMARK    4  A    between atoms: C_12  and  C_14
REMARK    5  A    between atoms: C_15  and  C_16
REMARK                            x       y       z     vdW  Elec       q    Type
REMARK                         _______ _______ _______ _____ _____    ______ ____
ROOT
ATOM      1  C   UNL     1       4.472   3.565  18.788  0.00  0.00    +0.000 A 
ATOM      2  C   UNL     1       5.269   4.409  19.571  0.00  0.00    +0.000 A 
ATOM      3  C   UNL     1       6.171   5.294  18.968  0.00  0.00    +0.000 A 
ATOM      4  C   UNL     1       6.289   5.349  17.574  0.00  0.00    +0.000 A 
ATOM      5  C   UNL     1       5.505   4.496  16.789  0.00  0.00    +0.000 A 
ATOM      6  C   UNL     1       4.602   3.617  17.392  0.00  0.00    +0.000 A 
ENDROOT
BRANCH   4   7
ATOM      7  C   UNL     1       7.275   6.297  16.981  0.00  0.00    +0.000 C 
ATOM      8  O   UNL     1       7.639   6.166  15.816  0.00  0.00    +0.000 OA
BRANCH   7   9
ATOM      9  C   UNL     1       7.823   7.367  17.856  0.00  0.00    +0.000 C 
ATOM     10  C   UNL     1       7.997   8.613  17.389  0.00  0.00    +0.000 C 
BRANCH  10  11
ATOM     11  C   UNL     1       8.538   9.617  18.239  0.00  0.00    +0.000 A 
ATOM     12  C   UNL     1       8.681  10.981  18.007  0.00  0.00    +0.000 A 
ATOM     13  C   UNL     1       9.282  11.559  19.151  0.00  0.00    +0.000 A 
ATOM     14  C   UNL     1       9.478  10.529  20.032  0.00  0.00    +0.000 A 
ATOM     15  O   UNL     1       9.037   9.365  19.501  0.00  0.00    +0.000 OA
ENDBRANCH  10  11
ENDBRANCH   7   9
ENDBRANCH   4   7
BRANCH   1  16
ATOM     16  C   UNL     1       3.498   2.590  19.413  0.00  0.00    +0.000 C 
BRANCH  16  22
ATOM     17  O   UNL     1       1.929   7.004  20.170  0.00  0.00    +0.000 OA
ATOM     18  C   UNL     1       1.999   5.790  20.252  0.00  0.00    +0.000 C 
ATOM     19  N   UNL     1       2.218   5.091  21.387  0.00  0.00    +0.000 N 
ATOM     20  C   UNL     1       2.284   3.733  21.323  0.00  0.00    +0.000 C 
ATOM     21  O   UNL     1       2.403   3.038  22.323  0.00  0.00    +0.000 OA
ATOM     22  C   UNL     1       2.190   3.217  19.900  0.00  0.00    +0.000 C 
ATOM     23  S   UNL     1       1.823   4.707  18.896  0.00  0.00    +0.000 S 
ATOM     24  H   UNL     1       2.280   5.566  22.273  0.00  0.00    +0.000 HD
ENDBRANCH  16  22
ENDBRANCH   1  16
TORSDOF 5
ENDMDL
