MODEL 1
REMARK VINA RESULT:      -7.6      0.000      0.000
REMARK  Name = 
REMARK  3 active torsions:
REMARK  status: ('A' for Active; 'I' for Inactive)
REMARK    1  A    between atoms: C_1  and  C_2
REMARK    2  A    between atoms: C_5  and  N_6
REMARK    3  A    between atoms: C_17  and  C_18
REMARK                            x       y       z     vdW  Elec       q    Type
REMARK                         _______ _______ _______ _____ _____    ______ ____
ROOT
ATOM      1  N   UNL     1       5.050   3.305  17.337  0.00  0.00    +0.000 N 
ATOM      2  C   UNL     1       3.672   3.256  17.421  0.00  0.00    +0.000 C 
ATOM      3  O   UNL     1       2.909   3.623  16.533  0.00  0.00    +0.000 OA
ATOM      4  N   UNL     1       3.177   2.707  18.613  0.00  0.00    +0.000 N 
ATOM      5  C   UNL     1       1.743   2.420  18.662  0.00  0.00    +0.000 C 
ATOM      6  C   UNL     1       0.948   3.561  19.292  0.00  0.00    +0.000 C 
ATOM      7  C   UNL     1       1.005   3.584  20.817  0.00  0.00    +0.000 C 
ATOM      8  C   UNL     1       2.414   3.677  21.403  0.00  0.00    +0.000 C 
ATOM      9  C   UNL     1       3.252   2.427  21.143  0.00  0.00    +0.000 C 
ATOM     10  C   UNL     1       3.987   2.452  19.803  0.00  0.00    +0.000 C 
ATOM     11  H   UNL     1       5.555   2.718  17.980  0.00  0.00    +0.000 HD
ENDROOT
BRANCH   1  16
ATOM     12  C   UNL     1       7.925   5.515  12.883  0.00  0.00    +0.000 C 
ATOM     13  C   UNL     1       7.194   4.895  14.041  0.00  0.00    +0.000 A 
ATOM     14  C   UNL     1       7.486   5.324  15.342  0.00  0.00    +0.000 A 
ATOM     15  C   UNL     1       6.806   4.799  16.443  0.00  0.00    +0.000 A 
ATOM     16  C   UNL     1       5.810   3.841  16.272  0.00  0.00    +0.000 A 
ATOM     17  C   UNL     1       5.540   3.379  14.976  0.00  0.00    +0.000 A 
ATOM     18  C   UNL     1       6.216   3.901  13.855  0.00  0.00    +0.000 A 
ATOM     19  C   UNL     1       5.873   3.398  12.480  0.00  0.00    +0.000 C 
ENDBRANCH   1  16
TORSDOF 1
ENDMDL
MODEL 2
REMARK VINA RESULT:      -7.2      1.085      1.344
REMARK  Name = 
REMARK  3 active torsions:
REMARK  status: ('A' for Active; 'I' for Inactive)
REMARK    1  A    between atoms: C_1  and  C_2
REMARK    2  A    between atoms: C_5  and  N_6
REMARK    3  A    between atoms: C_17  and  C_18
REMARK                            x       y       z     vdW  Elec       q    Type
REMARK                         _______ _______ _______ _____ _____    ______ ____
ROOT
ATOM      1  N   UNL     1       4.311   3.742  16.679  0.00  0.00    +0.000 N 
ATOM      2  C   UNL     1       3.556   4.573  17.483  0.00  0.00    +0.000 C 
ATOM      3  O   UNL     1       3.623   5.798  17.473  0.00  0.00    +0.000 OA
ATOM      4  N   UNL     1       2.648   3.910  18.321  0.00  0.00    +0.000 N 
ATOM      5  C   UNL     1       1.668   4.741  19.022  0.00  0.00    +0.000 C 
ATOM      6  C   UNL     1       2.128   5.108  20.431  0.00  0.00    +0.000 C 
ATOM      7  C   UNL     1       1.930   3.994  21.454  0.00  0.00    +0.000 C 
ATOM      8  C   UNL     1       2.629   2.679  21.112  0.00  0.00    +0.000 C 
ATOM      9  C   UNL     1       2.040   1.992  19.882  0.00  0.00    +0.000 C 
ATOM     10  C   UNL     1       2.651   2.468  18.565  0.00  0.00    +0.000 C 
ATOM     11  H   UNL     1       3.968   2.804  16.563  0.00  0.00    +0.000 HD
ENDROOT
BRANCH   1  16
ATOM     12  C   UNL     1       8.244   5.389  12.830  0.00  0.00    +0.000 C 
ATOM     13  C   UNL     1       7.234   4.915  13.837  0.00  0.00    +0.000 A 
ATOM     14  C   UNL     1       7.286   5.414  15.145  0.00  0.00    +0.000 A 
ATOM     15  C   UNL     1       6.346   5.026  16.102  0.00  0.00    +0.000 A 
ATOM     16  C   UNL     1       5.324   4.138  15.774  0.00  0.00    +0.000 A 
ATOM     17  C   UNL     1       5.289   3.605  14.477  0.00  0.00    +0.000 A 
ATOM     18  C   UNL     1       6.229   3.989  13.500  0.00  0.00    +0.000 A 
ATOM     19  C   UNL     1       6.137   3.414  12.113  0.00  0.00    +0.000 C 
ENDBRANCH   1  16
TORSDOF 1
ENDMDL
MODEL 3
REMARK VINA RESULT:      -7.0      1.164      1.490
REMARK  Name = 
REMARK  3 active torsions:
REMARK  status: ('A' for Active; 'I' for Inactive)
REMARK    1  A    between atoms: C_1  and  C_2
REMARK    2  A    between atoms: C_5  and  N_6
REMARK    3  A    between atoms: C_17  and  C_18
REMARK                            x       y       z     vdW  Elec       q    Type
REMARK                         _______ _______ _______ _____ _____    ______ ____
ROOT
ATOM      1  N   UNL     1       4.980   4.576  17.546  0.00  0.00    +0.000 N 
ATOM      2  C   UNL     1       4.349   3.469  18.077  0.00  0.00    +0.000 C 
ATOM      3  O   UNL     1       4.372   2.349  17.575  0.00  0.00    +0.000 OA
ATOM      4  N   UNL     1       3.683   3.699  19.289  0.00  0.00    +0.000 N 
ATOM      5  C   UNL     1       3.194   2.522  20.009  0.00  0.00    +0.000 C 
ATOM      6  C   UNL     1       1.733   2.217  19.691  0.00  0.00    +0.000 C 
ATOM      7  C   UNL     1       0.742   3.100  20.444  0.00  0.00    +0.000 C 
ATOM      8  C   UNL     1       0.919   4.601  20.215  0.00  0.00    +0.000 C 
ATOM      9  C   UNL     1       2.224   5.143  20.796  0.00  0.00    +0.000 C 
ATOM     10  C   UNL     1       3.413   5.025  19.843  0.00  0.00    +0.000 C 
ATOM     11  H   UNL     1       5.138   5.342  18.178  0.00  0.00    +0.000 HD
ENDROOT
BRANCH   1  16
ATOM     12  C   UNL     1       7.642   4.908  12.467  0.00  0.00    +0.000 C 
ATOM     13  C   UNL     1       6.950   4.774  13.795  0.00  0.00    +0.000 A 
ATOM     14  C   UNL     1       7.574   5.280  14.943  0.00  0.00    +0.000 A 
ATOM     15  C   UNL     1       6.951   5.207  16.191  0.00  0.00    +0.000 A 
ATOM     16  C   UNL     1       5.687   4.637  16.322  0.00  0.00    +0.000 A 
ATOM     17  C   UNL     1       5.075   4.095  15.183  0.00  0.00    +0.000 A 
ATOM     18  C   UNL     1       5.689   4.163  13.917  0.00  0.00    +0.000 A 
ATOM     19  C   UNL     1       4.983   3.594  12.717  0.00  0.00    +0.000 C 
ENDBRANCH   1  16
TORSDOF 1
ENDMDL
MODEL 4
REMARK VINA RESULT:      -6.9      4.974      7.869
REMARK  Name = 
REMARK  3 active torsions:
REMARK  status: ('A' for Active; 'I' for Inactive)
REMARK    1  A    between atoms: C_1  and  C_2
REMARK    2  A    between atoms: C_5  and  N_6
REMARK    3  A    between atoms: C_17  and  C_18
REMARK                            x       y       z     vdW  Elec       q    Type
REMARK                         _______ _______ _______ _____ _____    ______ ____
ROOT
ATOM      1  N   UNL     1       1.645   7.100  20.817  0.00  0.00    +0.000 N 
ATOM      2  C   UNL     1       2.342   6.467  19.808  0.00  0.00    +0.000 C 
ATOM      3  O   UNL     1       2.633   6.985  18.734  0.00  0.00    +0.000 OA
ATOM      4  N   UNL     1       2.746   5.158  20.106  0.00  0.00    +0.000 N 
ATOM      5  C   UNL     1       3.678   4.524  19.173  0.00  0.00    +0.000 C 
ATOM      6  C   UNL     1       2.960   3.669  18.132  0.00  0.00    +0.000 C 
ATOM      7  C   UNL     1       2.532   2.299  18.649  0.00  0.00    +0.000 C 
ATOM      8  C   UNL     1       1.615   2.333  19.872  0.00  0.00    +0.000 C 
ATOM      9  C   UNL     1       2.310   2.864  21.124  0.00  0.00    +0.000 C 
ATOM     10  C   UNL     1       2.263   4.386  21.251  0.00  0.00    +0.000 C 
ATOM     11  H   UNL     1       1.725   6.695  21.734  0.00  0.00    +0.000 HD
ENDROOT
BRANCH   1  16
ATOM     12  C   UNL     1      -0.525  12.418  20.860  0.00  0.00    +0.000 C 
ATOM     13  C   UNL     1      -0.002  11.009  20.847  0.00  0.00    +0.000 A 
ATOM     14  C   UNL     1       0.718  10.559  19.733  0.00  0.00    +0.000 A 
ATOM     15  C   UNL     1       1.252   9.269  19.694  0.00  0.00    +0.000 A 
ATOM     16  C   UNL     1       1.089   8.401  20.770  0.00  0.00    +0.000 A 
ATOM     17  C   UNL     1       0.337   8.832  21.872  0.00  0.00    +0.000 A 
ATOM     18  C   UNL     1      -0.206  10.132  21.927  0.00  0.00    +0.000 A 
ATOM     19  C   UNL     1      -0.980  10.562  23.142  0.00  0.00    +0.000 C 
ENDBRANCH   1  16
TORSDOF 1
ENDMDL
MODEL 5
REMARK VINA RESULT:      -6.8      4.783      6.921
REMARK  Name = 
REMARK  3 active torsions:
REMARK  status: ('A' for Active; 'I' for Inactive)
REMARK    1  A    between atoms: C_1  and  C_2
REMARK    2  A    between atoms: C_5  and  N_6
REMARK    3  A    between atoms: C_17  and  C_18
REMARK                            x       y       z     vdW  Elec       q    Type
REMARK                         _______ _______ _______ _____ _____    ______ ____
ROOT
ATOM      1  N   UNL     1       2.140   6.851  20.012  0.00  0.00    +0.000 N 
ATOM      2  C   UNL     1       3.048   6.059  19.336  0.00  0.00    +0.000 C 
ATOM      3  O   UNL     1       3.699   6.425  18.363  0.00  0.00    +0.000 OA
ATOM      4  N   UNL     1       3.214   4.773  19.870  0.00  0.00    +0.000 N 
ATOM      5  C   UNL     1       4.320   3.975  19.340  0.00  0.00    +0.000 C 
ATOM      6  C   UNL     1       3.874   3.047  18.213  0.00  0.00    +0.000 C 
ATOM      7  C   UNL     1       3.180   1.778  18.698  0.00  0.00    +0.000 C 
ATOM      8  C   UNL     1       1.942   2.016  19.563  0.00  0.00    +0.000 C 
ATOM      9  C   UNL     1       2.271   2.650  20.914  0.00  0.00    +0.000 C 
ATOM     10  C   UNL     1       2.334   4.176  20.874  0.00  0.00    +0.000 C 
ATOM     11  H   UNL     1       1.899   6.555  20.942  0.00  0.00    +0.000 HD
ENDROOT
BRANCH   1  16
ATOM     12  C   UNL     1       0.669  12.278  18.840  0.00  0.00    +0.000 C 
ATOM     13  C   UNL     1       1.008  10.847  19.149  0.00  0.00    +0.000 A 
ATOM     14  C   UNL     1       1.609  10.059  18.160  0.00  0.00    +0.000 A 
ATOM     15  C   UNL     1       1.972   8.734  18.416  0.00  0.00    +0.000 A 
ATOM     16  C   UNL     1       1.753   8.168  19.670  0.00  0.00    +0.000 A 
ATOM     17  C   UNL     1       1.116   8.940  20.652  0.00  0.00    +0.000 A 
ATOM     18  C   UNL     1       0.747  10.278  20.409  0.00  0.00    +0.000 A 
ATOM     19  C   UNL     1       0.094  11.079  21.502  0.00  0.00    +0.000 C 
ENDBRANCH   1  16
TORSDOF 1
ENDMDL
MODEL 6
REMARK VINA RESULT:      -6.8      6.438      7.979
REMARK  Name = 
REMARK  3 active torsions:
REMARK  status: ('A' for Active; 'I' for Inactive)
REMARK    1  A    between atoms: C_1  and  C_2
REMARK    2  A    between atoms: C_5  and  N_6
REMARK    3  A    between atoms: C_17  and  C_18
REMARK                            x       y       z     vdW  Elec       q    Type
REMARK                         _______ _______ _______ _____ _____    ______ ____
ROOT
ATOM      1  N   UNL     1       8.892   8.876  18.959  0.00  0.00    +0.000 N 
ATOM      2  C   UNL     1       7.968   8.559  17.983  0.00  0.00    +0.000 C 
ATOM      3  O   UNL     1       7.501   9.363  17.182  0.00  0.00    +0.000 OA
ATOM      4  N   UNL     1       7.608   7.205  17.934  0.00  0.00    +0.000 N 
ATOM      5  C   UNL     1       6.815   6.773  16.782  0.00  0.00    +0.000 C 
ATOM      6  C   UNL     1       5.318   6.778  17.079  0.00  0.00    +0.000 C 
ATOM      7  C   UNL     1       4.843   5.565  17.873  0.00  0.00    +0.000 C 
ATOM      8  C   UNL     1       5.539   5.368  19.219  0.00  0.00    +0.000 C 
ATOM      9  C   UNL     1       7.017   5.009  19.080  0.00  0.00    +0.000 C 
ATOM     10  C   UNL     1       7.934   6.227  18.971  0.00  0.00    +0.000 C 
ATOM     11  H   UNL     1       9.411   8.106  19.346  0.00  0.00    +0.000 HD
ENDROOT
BRANCH   1  16
ATOM     12  C   UNL     1      10.828  14.191  19.955  0.00  0.00    +0.000 C 
ATOM     13  C   UNL     1      10.366  12.786  19.687  0.00  0.00    +0.000 A 
ATOM     14  C   UNL     1       9.828  12.032  20.737  0.00  0.00    +0.000 A 
ATOM     15  C   UNL     1       9.355  10.735  20.524  0.00  0.00    +0.000 A 
ATOM     16  C   UNL     1       9.398  10.164  19.255  0.00  0.00    +0.000 A 
ATOM     17  C   UNL     1       9.971  10.899  18.207  0.00  0.00    +0.000 A 
ATOM     18  C   UNL     1      10.450  12.209  18.406  0.00  0.00    +0.000 A 
ATOM     19  C   UNL     1      11.030  12.973  17.248  0.00  0.00    +0.000 C 
ENDBRANCH   1  16
TORSDOF 1
ENDMDL
MODEL 7
REMARK VINA RESULT:      -6.7      5.435      8.465
REMARK  Name = 
REMARK  3 active torsions:
REMARK  status: ('A' for Active; 'I' for Inactive)
REMARK    1  A    between atoms: C_1  and  C_2
REMARK    2  A    between atoms: C_5  and  N_6
REMARK    3  A    between atoms: C_17  and  C_18
REMARK                            x       y       z     vdW  Elec       q    Type
REMARK                         _______ _______ _______ _____ _____    ______ ____
ROOT
ATOM      1  N   UNL     1       1.080   7.481  21.219  0.00  0.00    +0.000 N 
ATOM      2  C   UNL     1       1.880   7.194  20.131  0.00  0.00    +0.000 C 
ATOM      3  O   UNL     1       2.225   8.015  19.287  0.00  0.00    +0.000 OA
ATOM      4  N   UNL     1       2.323   5.865  20.063  0.00  0.00    +0.000 N 
ATOM      5  C   UNL     1       3.352   5.561  19.068  0.00  0.00    +0.000 C 
ATOM      6  C   UNL     1       2.756   5.039  17.764  0.00  0.00    +0.000 C 
ATOM      7  C   UNL     1       2.357   3.567  17.815  0.00  0.00    +0.000 C 
ATOM      8  C   UNL     1       1.351   3.213  18.910  0.00  0.00    +0.000 C 
ATOM      9  C   UNL     1       1.925   3.363  20.318  0.00  0.00    +0.000 C 
ATOM     10  C   UNL     1       1.794   4.777  20.884  0.00  0.00    +0.000 C 
ATOM     11  H   UNL     1       1.111   6.822  21.979  0.00  0.00    +0.000 HD
ENDROOT
BRANCH   1  16
ATOM     12  C   UNL     1      -1.577  12.473  22.224  0.00  0.00    +0.000 C 
ATOM     13  C   UNL     1      -0.844  11.191  21.946  0.00  0.00    +0.000 A 
ATOM     14  C   UNL     1      -0.473  10.370  23.019  0.00  0.00    +0.000 A 
ATOM     15  C   UNL     1       0.179   9.154  22.803  0.00  0.00    +0.000 A 
ATOM     16  C   UNL     1       0.467   8.722  21.511  0.00  0.00    +0.000 A 
ATOM     17  C   UNL     1       0.134   9.558  20.435  0.00  0.00    +0.000 A 
ATOM     18  C   UNL     1      -0.527  10.786  20.636  0.00  0.00    +0.000 A 
ATOM     19  C   UNL     1      -0.893  11.636  19.451  0.00  0.00    +0.000 C 
ENDBRANCH   1  16
TORSDOF 1
ENDMDL
MODEL 8
REMARK VINA RESULT:      -6.7      5.192      8.418
REMARK  Name = 
REMARK  3 active torsions:
REMARK  status: ('A' for Active; 'I' for Inactive)
REMARK    1  A    between atoms: C_1  and  C_2
REMARK    2  A    between atoms: C_5  and  N_6
REMARK    3  A    between atoms: C_17  and  C_18
REMARK                            x       y       z     vdW  Elec       q    Type
REMARK                         _______ _______ _______ _____ _____    ______ ____
ROOT
ATOM      1  N   UNL     1       2.010   8.093  19.459  0.00  0.00    +0.000 N 
ATOM      2  C   UNL     1       2.344   6.757  19.559  0.00  0.00    +0.000 C 
ATOM      3  O   UNL     1       1.956   6.009  20.451  0.00  0.00    +0.000 OA
ATOM      4  N   UNL     1       3.156   6.276  18.521  0.00  0.00    +0.000 N 
ATOM      5  C   UNL     1       3.351   4.828  18.451  0.00  0.00    +0.000 C 
ATOM      6  C   UNL     1       4.629   4.383  19.157  0.00  0.00    +0.000 C 
ATOM      7  C   UNL     1       5.895   4.603  18.335  0.00  0.00    +0.000 C 
ATOM      8  C   UNL     1       6.134   6.049  17.901  0.00  0.00    +0.000 C 
ATOM      9  C   UNL     1       5.098   6.549  16.897  0.00  0.00    +0.000 C 
ATOM     10  C   UNL     1       3.843   7.127  17.550  0.00  0.00    +0.000 C 
ATOM     11  H   UNL     1       2.135   8.515  18.554  0.00  0.00    +0.000 HD
ENDROOT
BRANCH   1  16
ATOM     12  C   UNL     1      -1.314  11.093  23.057  0.00  0.00    +0.000 C 
ATOM     13  C   UNL     1      -0.419  10.348  22.106  0.00  0.00    +0.000 A 
ATOM     14  C   UNL     1       0.459   9.381  22.611  0.00  0.00    +0.000 A 
ATOM     15  C   UNL     1       1.282   8.641  21.759  0.00  0.00    +0.000 A 
ATOM     16  C   UNL     1       1.241   8.841  20.381  0.00  0.00    +0.000 A 
ATOM     17  C   UNL     1       0.391   9.834  19.873  0.00  0.00    +0.000 A 
ATOM     18  C   UNL     1      -0.447  10.587  20.719  0.00  0.00    +0.000 A 
ATOM     19  C   UNL     1      -1.364  11.622  20.128  0.00  0.00    +0.000 C 
ENDBRANCH   1  16
TORSDOF 1
ENDMDL
MODEL 9
REMARK VINA RESULT:      -6.7      4.345      6.995
REMARK  Name = 
REMARK  3 active torsions:
REMARK  status: ('A' for Active; 'I' for Inactive)
REMARK    1  A    between atoms: C_1  and  C_2
REMARK    2  A    between atoms: C_5  and  N_6
REMARK    3  A    between atoms: C_17  and  C_18
REMARK                            x       y       z     vdW  Elec       q    Type
REMARK                         _______ _______ _______ _____ _____    ______ ____
ROOT
ATOM      1  N   UNL     1       2.769   6.842  19.125  0.00  0.00    +0.000 N 
ATOM      2  C   UNL     1       2.452   5.774  18.310  0.00  0.00    +0.000 C 
ATOM      3  O   UNL     1       1.421   5.686  17.650  0.00  0.00    +0.000 OA
ATOM      4  N   UNL     1       3.431   4.771  18.250  0.00  0.00    +0.000 N 
ATOM      5  C   UNL     1       3.253   3.734  17.233  0.00  0.00    +0.000 C 
ATOM      6  C   UNL     1       2.551   2.497  17.788  0.00  0.00    +0.000 C 
ATOM      7  C   UNL     1       3.468   1.573  18.585  0.00  0.00    +0.000 C 
ATOM      8  C   UNL     1       4.164   2.232  19.775  0.00  0.00    +0.000 C 
ATOM      9  C   UNL     1       5.183   3.292  19.358  0.00  0.00    +0.000 C 
ATOM     10  C   UNL     1       4.574   4.679  19.157  0.00  0.00    +0.000 C 
ATOM     11  H   UNL     1       3.740   6.940  19.371  0.00  0.00    +0.000 HD
ENDROOT
BRANCH   1  16
ATOM     12  C   UNL     1      -0.421  11.430  20.453  0.00  0.00    +0.000 C 
ATOM     13  C   UNL     1       0.375  10.203  20.108  0.00  0.00    +0.000 A 
ATOM     14  C   UNL     1       0.927  10.085  18.826  0.00  0.00    +0.000 A 
ATOM     15  C   UNL     1       1.702   8.977  18.475  0.00  0.00    +0.000 A 
ATOM     16  C   UNL     1       1.953   7.965  19.398  0.00  0.00    +0.000 A 
ATOM     17  C   UNL     1       1.371   8.058  20.670  0.00  0.00    +0.000 A 
ATOM     18  C   UNL     1       0.589   9.171  21.040  0.00  0.00    +0.000 A 
ATOM     19  C   UNL     1       0.008   9.244  22.425  0.00  0.00    +0.000 C 
ENDBRANCH   1  16
TORSDOF 1
ENDMDL
