MODEL 1
REMARK VINA RESULT:      -6.9      0.000      0.000
REMARK  Name = 
REMARK  3 active torsions:
REMARK  status: ('A' for Active; 'I' for Inactive)
REMARK    1  A    between atoms: C_10  and  C_11
REMARK    2  A    between atoms: N_17  and  C_18
REMARK    3  A    between atoms: C_21  and  N_22
REMARK                            x       y       z     vdW  Elec       q    Type
REMARK                         _______ _______ _______ _____ _____    ______ ____
ROOT
ATOM      1  N   UNL     1       3.843   3.676  15.577  0.00  0.00    +0.000 NA
ATOM      2  C   UNL     1       4.962   4.287  15.404  0.00  0.00    +0.000 A 
ATOM      3  C   UNL     1       5.704   4.121  14.195  0.00  0.00    +0.000 A 
ATOM      4  C   UNL     1       5.291   3.296  13.115  0.00  0.00    +0.000 A 
ATOM      5  C   UNL     1       6.053   3.217  11.947  0.00  0.00    +0.000 A 
ATOM      6  C   UNL     1       7.237   3.941  11.828  0.00  0.00    +0.000 A 
ATOM      7  C   UNL     1       7.662   4.750  12.882  0.00  0.00    +0.000 A 
ATOM      8  C   UNL     1       6.902   4.845  14.052  0.00  0.00    +0.000 A 
ATOM      9  N   UNL     1       7.328   5.643  15.050  0.00  0.00    +0.000 NA
ATOM     10  C   UNL     1       6.643   5.805  16.212  0.00  0.00    +0.000 A 
ATOM     11  N   UNL     1       5.421   5.160  16.386  0.00  0.00    +0.000 N 
ATOM     12  H   UNL     1       3.401   3.021  14.923  0.00  0.00    +0.000 HD
ENDROOT
BRANCH  10  13
ATOM     13  C   UNL     1       7.311   6.657  17.252  0.00  0.00    +0.000 A 
ATOM     14  C   UNL     1       7.788   6.067  18.439  0.00  0.00    +0.000 A 
ATOM     15  C   UNL     1       8.465   6.835  19.393  0.00  0.00    +0.000 A 
ATOM     16  C   UNL     1       8.658   8.203  19.189  0.00  0.00    +0.000 A 
ATOM     17  C   UNL     1       8.158   8.811  18.039  0.00  0.00    +0.000 A 
ATOM     18  C   UNL     1       7.482   8.051  17.084  0.00  0.00    +0.000 A 
ENDBRANCH  10  13
BRANCH  11  19
ATOM     19  C   UNL     1       4.585   5.474  17.554  0.00  0.00    +0.000 A 
ATOM     20  C   UNL     1       4.553   4.582  18.655  0.00  0.00    +0.000 A 
ATOM     21  C   UNL     1       3.721   4.799  19.748  0.00  0.00    +0.000 A 
ATOM     22  C   UNL     1       2.919   5.938  19.803  0.00  0.00    +0.000 A 
ATOM     23  C   UNL     1       2.978   6.872  18.762  0.00  0.00    +0.000 A 
ATOM     24  C   UNL     1       3.797   6.647  17.646  0.00  0.00    +0.000 A 
BRANCH  22  25
ATOM     25  N   UNL     1       2.048   6.132  20.903  0.00  0.00    +0.000 N 
ATOM     26  H   UNL     1       1.028   6.175  20.761  0.00  0.00    +0.000 HD
ATOM     27  H   UNL     1       2.421   6.285  21.850  0.00  0.00    +0.000 HD
ENDBRANCH  22  25
ENDBRANCH  11  19
TORSDOF 3
ENDMDL
MODEL 2
REMARK VINA RESULT:      -6.7      2.761      4.328
REMARK  Name = 
REMARK  3 active torsions:
REMARK  status: ('A' for Active; 'I' for Inactive)
REMARK    1  A    between atoms: C_10  and  C_11
REMARK    2  A    between atoms: N_17  and  C_18
REMARK    3  A    between atoms: C_21  and  N_22
REMARK                            x       y       z     vdW  Elec       q    Type
REMARK                         _______ _______ _______ _____ _____    ______ ____
ROOT
ATOM      1  N   UNL     1       4.607   2.583  17.964  0.00  0.00    +0.000 NA
ATOM      2  C   UNL     1       4.473   3.813  17.606  0.00  0.00    +0.000 A 
ATOM      3  C   UNL     1       5.157   4.315  16.457  0.00  0.00    +0.000 A 
ATOM      4  C   UNL     1       6.017   3.536  15.639  0.00  0.00    +0.000 A 
ATOM      5  C   UNL     1       6.620   4.091  14.507  0.00  0.00    +0.000 A 
ATOM      6  C   UNL     1       6.392   5.424  14.171  0.00  0.00    +0.000 A 
ATOM      7  C   UNL     1       5.556   6.206  14.967  0.00  0.00    +0.000 A 
ATOM      8  C   UNL     1       4.939   5.658  16.097  0.00  0.00    +0.000 A 
ATOM      9  N   UNL     1       4.128   6.431  16.842  0.00  0.00    +0.000 NA
ATOM     10  C   UNL     1       3.477   5.975  17.945  0.00  0.00    +0.000 A 
ATOM     11  N   UNL     1       3.608   4.639  18.316  0.00  0.00    +0.000 N 
ATOM     12  H   UNL     1       5.204   1.881  17.514  0.00  0.00    +0.000 HD
ENDROOT
BRANCH  10  13
ATOM     13  C   UNL     1       2.689   6.998  18.710  0.00  0.00    +0.000 A 
ATOM     14  C   UNL     1       2.225   8.156  18.056  0.00  0.00    +0.000 A 
ATOM     15  C   UNL     1       1.439   9.092  18.739  0.00  0.00    +0.000 A 
ATOM     16  C   UNL     1       1.123   8.899  20.085  0.00  0.00    +0.000 A 
ATOM     17  C   UNL     1       1.608   7.780  20.759  0.00  0.00    +0.000 A 
ATOM     18  C   UNL     1       2.392   6.843  20.084  0.00  0.00    +0.000 A 
ENDBRANCH  10  13
BRANCH  11  19
ATOM     19  C   UNL     1       2.766   4.090  19.390  0.00  0.00    +0.000 A 
ATOM     20  C   UNL     1       3.297   3.947  20.696  0.00  0.00    +0.000 A 
ATOM     21  C   UNL     1       2.565   3.365  21.724  0.00  0.00    +0.000 A 
ATOM     22  C   UNL     1       1.257   2.939  21.499  0.00  0.00    +0.000 A 
ATOM     23  C   UNL     1       0.679   3.128  20.237  0.00  0.00    +0.000 A 
ATOM     24  C   UNL     1       1.421   3.693  19.190  0.00  0.00    +0.000 A 
BRANCH  22  25
ATOM     25  N   UNL     1       0.530   2.314  22.541  0.00  0.00    +0.000 N 
ATOM     26  H   UNL     1      -0.219   2.822  23.034  0.00  0.00    +0.000 HD
ATOM     27  H   UNL     1       0.773   1.364  22.857  0.00  0.00    +0.000 HD
ENDBRANCH  22  25
ENDBRANCH  11  19
TORSDOF 3
ENDMDL
MODEL 3
REMARK VINA RESULT:      -6.6      0.193      1.004
REMARK  Name = 
REMARK  3 active torsions:
REMARK  status: ('A' for Active; 'I' for Inactive)
REMARK    1  A    between atoms: C_10  and  C_11
REMARK    2  A    between atoms: N_17  and  C_18
REMARK    3  A    between atoms: C_21  and  N_22
REMARK                            x       y       z     vdW  Elec       q    Type
REMARK                         _______ _______ _______ _____ _____    ______ ____
ROOT
ATOM      1  N   UNL     1       3.737   3.628  15.432  0.00  0.00    +0.000 NA
ATOM      2  C   UNL     1       4.868   4.223  15.281  0.00  0.00    +0.000 A 
ATOM      3  C   UNL     1       5.621   4.061  14.078  0.00  0.00    +0.000 A 
ATOM      4  C   UNL     1       5.207   3.257  12.982  0.00  0.00    +0.000 A 
ATOM      5  C   UNL     1       5.982   3.182  11.822  0.00  0.00    +0.000 A 
ATOM      6  C   UNL     1       7.179   3.888  11.727  0.00  0.00    +0.000 A 
ATOM      7  C   UNL     1       7.604   4.676  12.796  0.00  0.00    +0.000 A 
ATOM      8  C   UNL     1       6.832   4.768  13.959  0.00  0.00    +0.000 A 
ATOM      9  N   UNL     1       7.259   5.545  14.972  0.00  0.00    +0.000 NA
ATOM     10  C   UNL     1       6.563   5.703  16.129  0.00  0.00    +0.000 A 
ATOM     11  N   UNL     1       5.329   5.075  16.279  0.00  0.00    +0.000 N 
ATOM     12  H   UNL     1       3.292   2.988  14.764  0.00  0.00    +0.000 HD
ENDROOT
BRANCH  10  13
ATOM     13  C   UNL     1       7.233   6.530  17.187  0.00  0.00    +0.000 A 
ATOM     14  C   UNL     1       7.670   5.920  18.379  0.00  0.00    +0.000 A 
ATOM     15  C   UNL     1       8.347   6.664  19.353  0.00  0.00    +0.000 A 
ATOM     16  C   UNL     1       8.581   8.027  19.162  0.00  0.00    +0.000 A 
ATOM     17  C   UNL     1       8.120   8.655  18.006  0.00  0.00    +0.000 A 
ATOM     18  C   UNL     1       7.443   7.920  17.033  0.00  0.00    +0.000 A 
ENDBRANCH  10  13
BRANCH  11  19
ATOM     19  C   UNL     1       4.484   5.387  17.442  0.00  0.00    +0.000 A 
ATOM     20  C   UNL     1       3.690   6.561  17.437  0.00  0.00    +0.000 A 
ATOM     21  C   UNL     1       2.933   6.936  18.542  0.00  0.00    +0.000 A 
ATOM     22  C   UNL     1       2.908   6.132  19.680  0.00  0.00    +0.000 A 
ATOM     23  C   UNL     1       3.629   4.931  19.691  0.00  0.00    +0.000 A 
ATOM     24  C   UNL     1       4.412   4.560  18.589  0.00  0.00    +0.000 A 
BRANCH  22  25
ATOM     25  N   UNL     1       2.164   6.540  20.814  0.00  0.00    +0.000 N 
ATOM     26  H   UNL     1       2.438   7.380  21.345  0.00  0.00    +0.000 HD
ATOM     27  H   UNL     1       1.372   5.977  21.155  0.00  0.00    +0.000 HD
ENDBRANCH  22  25
ENDBRANCH  11  19
TORSDOF 3
ENDMDL
MODEL 4
REMARK VINA RESULT:      -6.5      8.869     11.792
REMARK  Name = 
REMARK  3 active torsions:
REMARK  status: ('A' for Active; 'I' for Inactive)
REMARK    1  A    between atoms: C_10  and  C_11
REMARK    2  A    between atoms: N_17  and  C_18
REMARK    3  A    between atoms: C_21  and  N_22
REMARK                            x       y       z     vdW  Elec       q    Type
REMARK                         _______ _______ _______ _____ _____    ______ ____
ROOT
ATOM      1  N   UNL     1       9.407  11.208  21.474  0.00  0.00    +0.000 NA
ATOM      2  C   UNL     1       9.044  12.390  21.832  0.00  0.00    +0.000 A 
ATOM      3  C   UNL     1       8.462  12.616  23.117  0.00  0.00    +0.000 A 
ATOM      4  C   UNL     1       8.237  11.595  24.079  0.00  0.00    +0.000 A 
ATOM      5  C   UNL     1       7.698  11.903  25.331  0.00  0.00    +0.000 A 
ATOM      6  C   UNL     1       7.366  13.218  25.650  0.00  0.00    +0.000 A 
ATOM      7  C   UNL     1       7.573  14.231  24.715  0.00  0.00    +0.000 A 
ATOM      8  C   UNL     1       8.121  13.937  23.462  0.00  0.00    +0.000 A 
ATOM      9  N   UNL     1       8.322  14.936  22.582  0.00  0.00    +0.000 NA
ATOM     10  C   UNL     1       8.864  14.740  21.351  0.00  0.00    +0.000 A 
ATOM     11  N   UNL     1       9.275  13.463  20.976  0.00  0.00    +0.000 N 
ATOM     12  H   UNL     1       9.298  10.347  22.021  0.00  0.00    +0.000 HD
ENDROOT
BRANCH  10  13
ATOM     13  C   UNL     1       8.928  15.949  20.464  0.00  0.00    +0.000 A 
ATOM     14  C   UNL     1       7.888  16.201  19.548  0.00  0.00    +0.000 A 
ATOM     15  C   UNL     1       7.903  17.354  18.754  0.00  0.00    +0.000 A 
ATOM     16  C   UNL     1       8.961  18.260  18.848  0.00  0.00    +0.000 A 
ATOM     17  C   UNL     1      10.018  18.007  19.720  0.00  0.00    +0.000 A 
ATOM     18  C   UNL     1      10.010  16.859  20.513  0.00  0.00    +0.000 A 
ENDBRANCH  10  13
BRANCH  11  19
ATOM     19  C   UNL     1      10.031  13.272  19.729  0.00  0.00    +0.000 A 
ATOM     20  C   UNL     1      11.443  13.386  19.739  0.00  0.00    +0.000 A 
ATOM     21  C   UNL     1      12.194  13.288  18.573  0.00  0.00    +0.000 A 
ATOM     22  C   UNL     1      11.566  13.031  17.355  0.00  0.00    +0.000 A 
ATOM     23  C   UNL     1      10.178  12.846  17.322  0.00  0.00    +0.000 A 
ATOM     24  C   UNL     1       9.414  12.967  18.491  0.00  0.00    +0.000 A 
BRANCH  22  25
ATOM     25  N   UNL     1      12.333  12.969  16.167  0.00  0.00    +0.000 N 
ATOM     26  H   UNL     1      11.874  12.842  15.253  0.00  0.00    +0.000 HD
ATOM     27  H   UNL     1      13.362  12.997  16.202  0.00  0.00    +0.000 HD
ENDBRANCH  22  25
ENDBRANCH  11  19
TORSDOF 3
ENDMDL
MODEL 5
REMARK VINA RESULT:      -6.4      8.377     10.558
REMARK  Name = 
REMARK  3 active torsions:
REMARK  status: ('A' for Active; 'I' for Inactive)
REMARK    1  A    between atoms: C_10  and  C_11
REMARK    2  A    between atoms: N_17  and  C_18
REMARK    3  A    between atoms: C_21  and  N_22
REMARK                            x       y       z     vdW  Elec       q    Type
REMARK                         _______ _______ _______ _____ _____    ______ ____
ROOT
ATOM      1  N   UNL     1       2.344  12.726  17.402  0.00  0.00    +0.000 NA
ATOM      2  C   UNL     1       2.243  13.058  18.641  0.00  0.00    +0.000 A 
ATOM      3  C   UNL     1       3.210  13.918  19.247  0.00  0.00    +0.000 A 
ATOM      4  C   UNL     1       4.330  14.461  18.563  0.00  0.00    +0.000 A 
ATOM      5  C   UNL     1       5.211  15.327  19.215  0.00  0.00    +0.000 A 
ATOM      6  C   UNL     1       5.007  15.664  20.552  0.00  0.00    +0.000 A 
ATOM      7  C   UNL     1       3.917  15.135  21.240  0.00  0.00    +0.000 A 
ATOM      8  C   UNL     1       3.022  14.274  20.595  0.00  0.00    +0.000 A 
ATOM      9  N   UNL     1       1.970  13.786  21.279  0.00  0.00    +0.000 NA
ATOM     10  C   UNL     1       1.046  12.957  20.725  0.00  0.00    +0.000 A 
ATOM     11  N   UNL     1       1.148  12.618  19.378  0.00  0.00    +0.000 N 
ATOM     12  H   UNL     1       3.097  12.997  16.760  0.00  0.00    +0.000 HD
ENDROOT
BRANCH  10  13
ATOM     13  C   UNL     1      -0.006  12.433  21.658  0.00  0.00    +0.000 A 
ATOM     14  C   UNL     1      -1.046  13.281  22.087  0.00  0.00    +0.000 A 
ATOM     15  C   UNL     1      -2.067  12.793  22.911  0.00  0.00    +0.000 A 
ATOM     16  C   UNL     1      -2.057  11.463  23.334  0.00  0.00    +0.000 A 
ATOM     17  C   UNL     1      -1.015  10.621  22.952  0.00  0.00    +0.000 A 
ATOM     18  C   UNL     1       0.007  11.100  22.131  0.00  0.00    +0.000 A 
ENDBRANCH  10  13
BRANCH  11  19
ATOM     19  C   UNL     1       0.057  11.881  18.723  0.00  0.00    +0.000 A 
ATOM     20  C   UNL     1       0.172  10.481  18.530  0.00  0.00    +0.000 A 
ATOM     21  C   UNL     1      -0.799   9.754  17.850  0.00  0.00    +0.000 A 
ATOM     22  C   UNL     1      -1.944  10.390  17.371  0.00  0.00    +0.000 A 
ATOM     23  C   UNL     1      -2.119  11.759  17.605  0.00  0.00    +0.000 A 
ATOM     24  C   UNL     1      -1.132  12.502  18.269  0.00  0.00    +0.000 A 
BRANCH  22  25
ATOM     25  N   UNL     1      -2.910   9.649  16.648  0.00  0.00    +0.000 N 
ATOM     26  H   UNL     1      -3.745   9.274  17.123  0.00  0.00    +0.000 HD
ATOM     27  H   UNL     1      -2.768   9.429  15.652  0.00  0.00    +0.000 HD
ENDBRANCH  22  25
ENDBRANCH  11  19
TORSDOF 3
ENDMDL
MODEL 6
REMARK VINA RESULT:      -6.4      8.364     10.538
REMARK  Name = 
REMARK  3 active torsions:
REMARK  status: ('A' for Active; 'I' for Inactive)
REMARK    1  A    between atoms: C_10  and  C_11
REMARK    2  A    between atoms: N_17  and  C_18
REMARK    3  A    between atoms: C_21  and  N_22
REMARK                            x       y       z     vdW  Elec       q    Type
REMARK                         _______ _______ _______ _____ _____    ______ ____
ROOT
ATOM      1  N   UNL     1       2.330  12.708  17.429  0.00  0.00    +0.000 NA
ATOM      2  C   UNL     1       2.206  13.012  18.674  0.00  0.00    +0.000 A 
ATOM      3  C   UNL     1       3.133  13.897  19.304  0.00  0.00    +0.000 A 
ATOM      4  C   UNL     1       4.237  14.497  18.641  0.00  0.00    +0.000 A 
ATOM      5  C   UNL     1       5.077  15.384  19.317  0.00  0.00    +0.000 A 
ATOM      6  C   UNL     1       4.849  15.687  20.658  0.00  0.00    +0.000 A 
ATOM      7  C   UNL     1       3.775  15.101  21.327  0.00  0.00    +0.000 A 
ATOM      8  C   UNL     1       2.920  14.219  20.657  0.00  0.00    +0.000 A 
ATOM      9  N   UNL     1       1.883  13.676  21.323  0.00  0.00    +0.000 NA
ATOM     10  C   UNL     1       0.997  12.823  20.744  0.00  0.00    +0.000 A 
ATOM     11  N   UNL     1       1.122  12.514  19.392  0.00  0.00    +0.000 N 
ATOM     12  H   UNL     1       3.077  13.020  16.799  0.00  0.00    +0.000 HD
ENDROOT
BRANCH  10  13
ATOM     13  C   UNL     1      -0.041  12.240  21.657  0.00  0.00    +0.000 A 
ATOM     14  C   UNL     1       0.068  10.899  22.075  0.00  0.00    +0.000 A 
ATOM     15  C   UNL     1      -0.859  10.356  22.973  0.00  0.00    +0.000 A 
ATOM     16  C   UNL     1      -1.917  11.132  23.450  0.00  0.00    +0.000 A 
ATOM     17  C   UNL     1      -2.063  12.448  23.016  0.00  0.00    +0.000 A 
ATOM     18  C   UNL     1      -1.143  12.996  22.121  0.00  0.00    +0.000 A 
ENDBRANCH  10  13
BRANCH  11  19
ATOM     19  C   UNL     1       0.067  11.748  18.713  0.00  0.00    +0.000 A 
ATOM     20  C   UNL     1      -1.110  12.407  18.278  0.00  0.00    +0.000 A 
ATOM     21  C   UNL     1      -2.166  11.712  17.699  0.00  0.00    +0.000 A 
ATOM     22  C   UNL     1      -2.072  10.336  17.495  0.00  0.00    +0.000 A 
ATOM     23  C   UNL     1      -0.895   9.667  17.853  0.00  0.00    +0.000 A 
ATOM     24  C   UNL     1       0.164  10.358  18.458  0.00  0.00    +0.000 A 
BRANCH  22  25
ATOM     25  N   UNL     1      -3.166   9.630  16.939  0.00  0.00    +0.000 N 
ATOM     26  H   UNL     1      -3.270   8.617  17.097  0.00  0.00    +0.000 HD
ATOM     27  H   UNL     1      -3.844  10.106  16.327  0.00  0.00    +0.000 HD
ENDBRANCH  22  25
ENDBRANCH  11  19
TORSDOF 3
ENDMDL
MODEL 7
REMARK VINA RESULT:      -6.4      8.363     11.371
REMARK  Name = 
REMARK  3 active torsions:
REMARK  status: ('A' for Active; 'I' for Inactive)
REMARK    1  A    between atoms: C_10  and  C_11
REMARK    2  A    between atoms: N_17  and  C_18
REMARK    3  A    between atoms: C_21  and  N_22
REMARK                            x       y       z     vdW  Elec       q    Type
REMARK                         _______ _______ _______ _____ _____    ______ ____
ROOT
ATOM      1  N   UNL     1       8.795  10.853  22.239  0.00  0.00    +0.000 NA
ATOM      2  C   UNL     1       8.255  12.017  22.341  0.00  0.00    +0.000 A 
ATOM      3  C   UNL     1       7.454  12.351  23.475  0.00  0.00    +0.000 A 
ATOM      4  C   UNL     1       7.187  11.463  24.551  0.00  0.00    +0.000 A 
ATOM      5  C   UNL     1       6.425  11.879  25.646  0.00  0.00    +0.000 A 
ATOM      6  C   UNL     1       5.907  13.171  25.693  0.00  0.00    +0.000 A 
ATOM      7  C   UNL     1       6.152  14.054  24.642  0.00  0.00    +0.000 A 
ATOM      8  C   UNL     1       6.922  13.653  23.545  0.00  0.00    +0.000 A 
ATOM      9  N   UNL     1       7.154  14.528  22.549  0.00  0.00    +0.000 NA
ATOM     10  C   UNL     1       7.904  14.226  21.456  0.00  0.00    +0.000 A 
ATOM     11  N   UNL     1       8.504  12.972  21.361  0.00  0.00    +0.000 N 
ATOM     12  H   UNL     1       8.692  10.075  22.900  0.00  0.00    +0.000 HD
ENDROOT
BRANCH  10  13
ATOM     13  C   UNL     1       7.980  15.289  20.400  0.00  0.00    +0.000 A 
ATOM     14  C   UNL     1       6.996  15.346  19.393  0.00  0.00    +0.000 A 
ATOM     15  C   UNL     1       7.018  16.366  18.434  0.00  0.00    +0.000 A 
ATOM     16  C   UNL     1       8.029  17.328  18.452  0.00  0.00    +0.000 A 
ATOM     17  C   UNL     1       9.034  17.263  19.416  0.00  0.00    +0.000 A 
ATOM     18  C   UNL     1       9.018  16.249  20.375  0.00  0.00    +0.000 A 
ENDBRANCH  10  13
BRANCH  11  19
ATOM     19  C   UNL     1       9.466  12.700  20.282  0.00  0.00    +0.000 A 
ATOM     20  C   UNL     1      10.841  12.982  20.480  0.00  0.00    +0.000 A 
ATOM     21  C   UNL     1      11.776  12.812  19.465  0.00  0.00    +0.000 A 
ATOM     22  C   UNL     1      11.381  12.314  18.224  0.00  0.00    +0.000 A 
ATOM     23  C   UNL     1      10.040  11.963  18.019  0.00  0.00    +0.000 A 
ATOM     24  C   UNL     1       9.089  12.154  19.031  0.00  0.00    +0.000 A 
BRANCH  22  25
ATOM     25  N   UNL     1      12.332  12.179  17.185  0.00  0.00    +0.000 N 
ATOM     26  H   UNL     1      13.340  12.279  17.381  0.00  0.00    +0.000 HD
ATOM     27  H   UNL     1      12.032  12.029  16.211  0.00  0.00    +0.000 HD
ENDBRANCH  22  25
ENDBRANCH  11  19
TORSDOF 3
ENDMDL
MODEL 8
REMARK VINA RESULT:      -6.3      8.342     11.376
REMARK  Name = 
REMARK  3 active torsions:
REMARK  status: ('A' for Active; 'I' for Inactive)
REMARK    1  A    between atoms: C_10  and  C_11
REMARK    2  A    between atoms: N_17  and  C_18
REMARK    3  A    between atoms: C_21  and  N_22
REMARK                            x       y       z     vdW  Elec       q    Type
REMARK                         _______ _______ _______ _____ _____    ______ ____
ROOT
ATOM      1  N   UNL     1       8.741  10.893  22.452  0.00  0.00    +0.000 NA
ATOM      2  C   UNL     1       8.144  12.031  22.514  0.00  0.00    +0.000 A 
ATOM      3  C   UNL     1       7.284  12.345  23.610  0.00  0.00    +0.000 A 
ATOM      4  C   UNL     1       7.017  11.461  24.690  0.00  0.00    +0.000 A 
ATOM      5  C   UNL     1       6.194  11.856  25.747  0.00  0.00    +0.000 A 
ATOM      6  C   UNL     1       5.615  13.124  25.752  0.00  0.00    +0.000 A 
ATOM      7  C   UNL     1       5.860  14.001  24.697  0.00  0.00    +0.000 A 
ATOM      8  C   UNL     1       6.691  13.620  23.638  0.00  0.00    +0.000 A 
ATOM      9  N   UNL     1       6.921  14.491  22.637  0.00  0.00    +0.000 NA
ATOM     10  C   UNL     1       7.726  14.208  21.579  0.00  0.00    +0.000 A 
ATOM     11  N   UNL     1       8.388  12.983  21.528  0.00  0.00    +0.000 N 
ATOM     12  H   UNL     1       8.649  10.121  23.121  0.00  0.00    +0.000 HD
ENDROOT
BRANCH  10  13
ATOM     13  C   UNL     1       7.795  15.258  20.510  0.00  0.00    +0.000 A 
ATOM     14  C   UNL     1       6.853  15.251  19.461  0.00  0.00    +0.000 A 
ATOM     15  C   UNL     1       6.866  16.256  18.487  0.00  0.00    +0.000 A 
ATOM     16  C   UNL     1       7.827  17.268  18.531  0.00  0.00    +0.000 A 
ATOM     17  C   UNL     1       8.791  17.267  19.537  0.00  0.00    +0.000 A 
ATOM     18  C   UNL     1       8.784  16.268  20.511  0.00  0.00    +0.000 A 
ENDBRANCH  10  13
BRANCH  11  19
ATOM     19  C   UNL     1       9.403  12.740  20.492  0.00  0.00    +0.000 A 
ATOM     20  C   UNL     1       9.025  12.136  19.267  0.00  0.00    +0.000 A 
ATOM     21  C   UNL     1       9.961  11.819  18.288  0.00  0.00    +0.000 A 
ATOM     22  C   UNL     1      11.307  12.131  18.478  0.00  0.00    +0.000 A 
ATOM     23  C   UNL     1      11.702  12.789  19.650  0.00  0.00    +0.000 A 
ATOM     24  C   UNL     1      10.766  13.090  20.650  0.00  0.00    +0.000 A 
BRANCH  22  25
ATOM     25  N   UNL     1      12.258  11.772  17.493  0.00  0.00    +0.000 N 
ATOM     26  H   UNL     1      12.331  12.309  16.616  0.00  0.00    +0.000 HD
ATOM     27  H   UNL     1      12.854  10.941  17.614  0.00  0.00    +0.000 HD
ENDBRANCH  22  25
ENDBRANCH  11  19
TORSDOF 3
ENDMDL
MODEL 9
REMARK VINA RESULT:      -6.3      8.851     11.043
REMARK  Name = 
REMARK  3 active torsions:
REMARK  status: ('A' for Active; 'I' for Inactive)
REMARK    1  A    between atoms: C_10  and  C_11
REMARK    2  A    between atoms: N_17  and  C_18
REMARK    3  A    between atoms: C_21  and  N_22
REMARK                            x       y       z     vdW  Elec       q    Type
REMARK                         _______ _______ _______ _____ _____    ______ ____
ROOT
ATOM      1  N   UNL     1      -0.422  14.921  18.339  0.00  0.00    +0.000 NA
ATOM      2  C   UNL     1       0.317  14.281  19.177  0.00  0.00    +0.000 A 
ATOM      3  C   UNL     1       1.618  14.761  19.516  0.00  0.00    +0.000 A 
ATOM      4  C   UNL     1       2.196  15.942  18.977  0.00  0.00    +0.000 A 
ATOM      5  C   UNL     1       3.461  16.368  19.390  0.00  0.00    +0.000 A 
ATOM      6  C   UNL     1       4.180  15.633  20.331  0.00  0.00    +0.000 A 
ATOM      7  C   UNL     1       3.631  14.467  20.864  0.00  0.00    +0.000 A 
ATOM      8  C   UNL     1       2.360  14.037  20.467  0.00  0.00    +0.000 A 
ATOM      9  N   UNL     1       1.848  12.914  21.006  0.00  0.00    +0.000 NA
ATOM     10  C   UNL     1       0.617  12.435  20.688  0.00  0.00    +0.000 A 
ATOM     11  N   UNL     1      -0.187  13.142  19.797  0.00  0.00    +0.000 N 
ATOM     12  H   UNL     1      -0.164  15.774  17.830  0.00  0.00    +0.000 HD
ENDROOT
BRANCH  10  13
ATOM     13  C   UNL     1       0.245  11.122  21.312  0.00  0.00    +0.000 A 
ATOM     14  C   UNL     1       0.588   9.918  20.666  0.00  0.00    +0.000 A 
ATOM     15  C   UNL     1       0.300   8.684  21.262  0.00  0.00    +0.000 A 
ATOM     16  C   UNL     1      -0.350   8.631  22.496  0.00  0.00    +0.000 A 
ATOM     17  C   UNL     1      -0.733   9.812  23.130  0.00  0.00    +0.000 A 
ATOM     18  C   UNL     1      -0.449  11.045  22.542  0.00  0.00    +0.000 A 
ENDBRANCH  10  13
BRANCH  11  19
ATOM     19  C   UNL     1      -1.586  12.738  19.591  0.00  0.00    +0.000 A 
ATOM     20  C   UNL     1      -1.917  11.881  18.512  0.00  0.00    +0.000 A 
ATOM     21  C   UNL     1      -3.234  11.532  18.232  0.00  0.00    +0.000 A 
ATOM     22  C   UNL     1      -4.268  11.991  19.046  0.00  0.00    +0.000 A 
ATOM     23  C   UNL     1      -3.967  12.784  20.160  0.00  0.00    +0.000 A 
ATOM     24  C   UNL     1      -2.644  13.159  20.433  0.00  0.00    +0.000 A 
BRANCH  22  25
ATOM     25  N   UNL     1      -5.609  11.661  18.733  0.00  0.00    +0.000 N 
ATOM     26  H   UNL     1      -5.890  11.478  17.758  0.00  0.00    +0.000 HD
ATOM     27  H   UNL     1      -6.334  11.649  19.466  0.00  0.00    +0.000 HD
ENDBRANCH  22  25
ENDBRANCH  11  19
TORSDOF 3
ENDMDL
