MODEL 1
REMARK VINA RESULT:     -10.1      0.000      0.000
REMARK  Name = 
REMARK  7 active torsions:
REMARK  status: ('A' for Active; 'I' for Inactive)
REMARK    1  A    between atoms: C_1  and  O_2
REMARK    2  A    between atoms: O_2  and  C_3
REMARK    3  A    between atoms: C_8  and  C_9
REMARK    4  A    between atoms: C_9  and  N_10
REMARK    5  A    between atoms: C_9  and  C_19
REMARK    6  A    between atoms: C_11  and  C_13
REMARK    7  A    between atoms: C_28  and  O_29
REMARK                            x       y       z     vdW  Elec       q    Type
REMARK                         _______ _______ _______ _____ _____    ______ ____
ROOT
ATOM      1  C   UNL     1       3.580   5.846  17.725  0.00  0.00    +0.000 C 
ENDROOT
BRANCH   1   2
ATOM      2  C   UNL     1       2.932   7.122  18.307  0.00  0.00    +0.000 A 
ATOM      3  C   UNL     1       2.578   8.206  17.483  0.00  0.00    +0.000 A 
ATOM      4  C   UNL     1       1.656   9.162  17.912  0.00  0.00    +0.000 A 
ATOM      5  C   UNL     1       1.099   9.077  19.194  0.00  0.00    +0.000 A 
ATOM      6  C   UNL     1       0.043   9.905  19.592  0.00  0.00    +0.000 A 
ATOM      7  C   UNL     1      -0.468   9.798  20.879  0.00  0.00    +0.000 A 
ATOM      8  C   UNL     1       0.127   8.892  21.738  0.00  0.00    +0.000 A 
ATOM      9  N   UNL     1       1.121   8.048  21.378  0.00  0.00    +0.000 NA
ATOM     10  C   UNL     1       1.571   8.114  20.106  0.00  0.00    +0.000 A 
ATOM     11  C   UNL     1       2.472   7.154  19.634  0.00  0.00    +0.000 A 
BRANCH  11  12
ATOM     12  O   UNL     1       2.860   6.163  20.507  0.00  0.00    +0.000 OA
ATOM     13  H   UNL     1       2.040   5.937  20.996  0.00  0.00    +0.000 HD
ENDBRANCH  11  12
ENDBRANCH   1   2
BRANCH   1  19
ATOM     14  C   UNL     1       6.044   6.197  16.991  0.00  0.00    +0.000 A 
ATOM     15  C   UNL     1       7.407   6.265  17.309  0.00  0.00    +0.000 A 
ATOM     16  C   UNL     1       7.882   5.867  18.558  0.00  0.00    +0.000 A 
ATOM     17  C   UNL     1       6.988   5.394  19.503  0.00  0.00    +0.000 A 
ATOM     18  C   UNL     1       5.622   5.379  19.216  0.00  0.00    +0.000 A 
ATOM     19  C   UNL     1       5.110   5.822  17.976  0.00  0.00    +0.000 A 
BRANCH  14  21
ATOM     20  C   UNL     1       5.638   5.391  14.811  0.00  0.00    +0.000 C 
ATOM     21  O   UNL     1       5.585   6.484  15.730  0.00  0.00    +0.000 OA
ENDBRANCH  14  21
ENDBRANCH   1  19
BRANCH   1  22
ATOM     22  N   UNL     1       2.996   4.656  18.334  0.00  0.00    +0.000 N 
ATOM     23  C   UNL     1       1.834   4.066  17.888  0.00  0.00    +0.000 C 
ATOM     24  O   UNL     1       1.081   4.600  17.079  0.00  0.00    +0.000 OA
ATOM     25  H   UNL     1       3.618   4.111  18.905  0.00  0.00    +0.000 HD
BRANCH  23  26
ATOM     26  C   UNL     1       1.523   2.719  18.557  0.00  0.00    +0.000 C 
ATOM     27  C   UNL     1       2.805   2.019  19.037  0.00  0.00    +0.000 C 
ATOM     28  C   UNL     1       3.447   2.736  20.228  0.00  0.00    +0.000 C 
ATOM     29  C   UNL     1       2.464   2.985  21.369  0.00  0.00    +0.000 C 
ATOM     30  C   UNL     1       1.143   3.591  20.905  0.00  0.00    +0.000 C 
ATOM     31  C   UNL     1       0.543   2.815  19.737  0.00  0.00    +0.000 C 
ENDBRANCH  23  26
ENDBRANCH   1  22
TORSDOF 6
ENDMDL
MODEL 2
REMARK VINA RESULT:      -9.5      1.757      4.889
REMARK  Name = 
REMARK  7 active torsions:
REMARK  status: ('A' for Active; 'I' for Inactive)
REMARK    1  A    between atoms: C_1  and  O_2
REMARK    2  A    between atoms: O_2  and  C_3
REMARK    3  A    between atoms: C_8  and  C_9
REMARK    4  A    between atoms: C_9  and  N_10
REMARK    5  A    between atoms: C_9  and  C_19
REMARK    6  A    between atoms: C_11  and  C_13
REMARK    7  A    between atoms: C_28  and  O_29
REMARK                            x       y       z     vdW  Elec       q    Type
REMARK                         _______ _______ _______ _____ _____    ______ ____
ROOT
ATOM      1  C   UNL     1       3.322   5.959  19.501  0.00  0.00    +0.000 C 
ENDROOT
BRANCH   1   2
ATOM      2  C   UNL     1       2.688   7.349  19.266  0.00  0.00    +0.000 A 
ATOM      3  C   UNL     1       2.760   7.986  18.014  0.00  0.00    +0.000 A 
ATOM      4  C   UNL     1       1.878   9.015  17.681  0.00  0.00    +0.000 A 
ATOM      5  C   UNL     1       0.931   9.458  18.611  0.00  0.00    +0.000 A 
ATOM      6  C   UNL     1      -0.083  10.356  18.256  0.00  0.00    +0.000 A 
ATOM      7  C   UNL     1      -0.992  10.782  19.216  0.00  0.00    +0.000 A 
ATOM      8  C   UNL     1      -0.827  10.326  20.512  0.00  0.00    +0.000 A 
ATOM      9  N   UNL     1       0.114   9.429  20.884  0.00  0.00    +0.000 NA
ATOM     10  C   UNL     1       0.956   8.970  19.931  0.00  0.00    +0.000 A 
ATOM     11  C   UNL     1       1.832   7.919  20.223  0.00  0.00    +0.000 A 
BRANCH  11  12
ATOM     12  O   UNL     1       1.787   7.387  21.492  0.00  0.00    +0.000 OA
ATOM     13  H   UNL     1       1.584   6.438  21.349  0.00  0.00    +0.000 HD
ENDBRANCH  11  12
ENDBRANCH   1   2
BRANCH   1  19
ATOM     14  C   UNL     1       1.714   4.022  20.128  0.00  0.00    +0.000 A 
ATOM     15  C   UNL     1       0.743   3.080  19.757  0.00  0.00    +0.000 A 
ATOM     16  C   UNL     1       0.445   2.835  18.417  0.00  0.00    +0.000 A 
ATOM     17  C   UNL     1       1.123   3.535  17.434  0.00  0.00    +0.000 A 
ATOM     18  C   UNL     1       2.048   4.516  17.796  0.00  0.00    +0.000 A 
ATOM     19  C   UNL     1       2.333   4.818  19.146  0.00  0.00    +0.000 A 
BRANCH  14  21
ATOM     20  C   UNL     1       2.205   2.978  22.187  0.00  0.00    +0.000 C 
ATOM     21  O   UNL     1       2.087   4.189  21.438  0.00  0.00    +0.000 OA
ENDBRANCH  14  21
ENDBRANCH   1  19
BRANCH   1  22
ATOM     22  N   UNL     1       4.519   5.801  18.682  0.00  0.00    +0.000 N 
ATOM     23  C   UNL     1       5.358   4.712  18.765  0.00  0.00    +0.000 C 
ATOM     24  O   UNL     1       5.291   3.884  19.668  0.00  0.00    +0.000 OA
ATOM     25  H   UNL     1       4.556   6.370  17.854  0.00  0.00    +0.000 HD
BRANCH  23  26
ATOM     26  C   UNL     1       6.437   4.673  17.672  0.00  0.00    +0.000 C 
ATOM     27  C   UNL     1       6.129   5.666  16.540  0.00  0.00    +0.000 C 
ATOM     28  C   UNL     1       6.289   7.122  16.985  0.00  0.00    +0.000 C 
ATOM     29  C   UNL     1       7.641   7.396  17.639  0.00  0.00    +0.000 C 
ATOM     30  C   UNL     1       8.015   6.367  18.701  0.00  0.00    +0.000 C 
ATOM     31  C   UNL     1       7.861   4.940  18.187  0.00  0.00    +0.000 C 
ENDBRANCH  23  26
ENDBRANCH   1  22
TORSDOF 6
ENDMDL
MODEL 3
REMARK VINA RESULT:      -9.2      1.702      4.701
REMARK  Name = 
REMARK  7 active torsions:
REMARK  status: ('A' for Active; 'I' for Inactive)
REMARK    1  A    between atoms: C_1  and  O_2
REMARK    2  A    between atoms: O_2  and  C_3
REMARK    3  A    between atoms: C_8  and  C_9
REMARK    4  A    between atoms: C_9  and  N_10
REMARK    5  A    between atoms: C_9  and  C_19
REMARK    6  A    between atoms: C_11  and  C_13
REMARK    7  A    between atoms: C_28  and  O_29
REMARK                            x       y       z     vdW  Elec       q    Type
REMARK                         _______ _______ _______ _____ _____    ______ ____
ROOT
ATOM      1  C   UNL     1       3.439   6.299  19.399  0.00  0.00    +0.000 C 
ENDROOT
BRANCH   1   2
ATOM      2  C   UNL     1       2.675   7.625  19.189  0.00  0.00    +0.000 A 
ATOM      3  C   UNL     1       2.648   8.266  17.937  0.00  0.00    +0.000 A 
ATOM      4  C   UNL     1       1.667   9.211  17.636  0.00  0.00    +0.000 A 
ATOM      5  C   UNL     1       0.714   9.568  18.598  0.00  0.00    +0.000 A 
ATOM      6  C   UNL     1      -0.388  10.369  18.279  0.00  0.00    +0.000 A 
ATOM      7  C   UNL     1      -1.299  10.712  19.269  0.00  0.00    +0.000 A 
ATOM      8  C   UNL     1      -1.051  10.273  20.558  0.00  0.00    +0.000 A 
ATOM      9  N   UNL     1      -0.021   9.465  20.896  0.00  0.00    +0.000 NA
ATOM     10  C   UNL     1       0.827   9.084  19.915  0.00  0.00    +0.000 A 
ATOM     11  C   UNL     1       1.803   8.117  20.175  0.00  0.00    +0.000 A 
BRANCH  11  12
ATOM     12  O   UNL     1       1.848   7.583  21.443  0.00  0.00    +0.000 OA
ATOM     13  H   UNL     1       2.712   7.119  21.480  0.00  0.00    +0.000 HD
ENDBRANCH  11  12
ENDBRANCH   1   2
BRANCH   1  19
ATOM     14  C   UNL     1       1.927   4.264  19.952  0.00  0.00    +0.000 A 
ATOM     15  C   UNL     1       1.066   3.241  19.531  0.00  0.00    +0.000 A 
ATOM     16  C   UNL     1       0.907   2.936  18.180  0.00  0.00    +0.000 A 
ATOM     17  C   UNL     1       1.618   3.656  17.235  0.00  0.00    +0.000 A 
ATOM     18  C   UNL     1       2.433   4.714  17.642  0.00  0.00    +0.000 A 
ATOM     19  C   UNL     1       2.573   5.076  19.000  0.00  0.00    +0.000 A 
BRANCH  14  21
ATOM     20  C   UNL     1       2.253   3.321  22.091  0.00  0.00    +0.000 C 
ATOM     21  O   UNL     1       2.169   4.497  21.282  0.00  0.00    +0.000 OA
ENDBRANCH  14  21
ENDBRANCH   1  19
BRANCH   1  22
ATOM     22  N   UNL     1       4.657   6.280  18.596  0.00  0.00    +0.000 N 
ATOM     23  C   UNL     1       5.693   5.398  18.807  0.00  0.00    +0.000 C 
ATOM     24  O   UNL     1       5.777   4.693  19.808  0.00  0.00    +0.000 OA
ATOM     25  H   UNL     1       4.595   6.738  17.703  0.00  0.00    +0.000 HD
BRANCH  23  26
ATOM     26  C   UNL     1       6.776   5.438  17.719  0.00  0.00    +0.000 C 
ATOM     27  C   UNL     1       6.845   4.114  16.943  0.00  0.00    +0.000 C 
ATOM     28  C   UNL     1       5.618   3.897  16.053  0.00  0.00    +0.000 C 
ATOM     29  C   UNL     1       5.333   5.086  15.138  0.00  0.00    +0.000 C 
ATOM     30  C   UNL     1       5.355   6.426  15.868  0.00  0.00    +0.000 C 
ATOM     31  C   UNL     1       6.614   6.590  16.714  0.00  0.00    +0.000 C 
ENDBRANCH  23  26
ENDBRANCH   1  22
TORSDOF 6
ENDMDL
MODEL 4
REMARK VINA RESULT:      -9.1      1.774      4.957
REMARK  Name = 
REMARK  7 active torsions:
REMARK  status: ('A' for Active; 'I' for Inactive)
REMARK    1  A    between atoms: C_1  and  O_2
REMARK    2  A    between atoms: O_2  and  C_3
REMARK    3  A    between atoms: C_8  and  C_9
REMARK    4  A    between atoms: C_9  and  N_10
REMARK    5  A    between atoms: C_9  and  C_19
REMARK    6  A    between atoms: C_11  and  C_13
REMARK    7  A    between atoms: C_28  and  O_29
REMARK                            x       y       z     vdW  Elec       q    Type
REMARK                         _______ _______ _______ _____ _____    ______ ____
ROOT
ATOM      1  C   UNL     1       3.541   5.615  19.694  0.00  0.00    +0.000 C 
ENDROOT
BRANCH   1   2
ATOM      2  C   UNL     1       2.444   6.700  19.787  0.00  0.00    +0.000 A 
ATOM      3  C   UNL     1       1.631   6.825  20.928  0.00  0.00    +0.000 A 
ATOM      4  C   UNL     1       0.939   8.008  21.190  0.00  0.00    +0.000 A 
ATOM      5  C   UNL     1       1.010   9.078  20.290  0.00  0.00    +0.000 A 
ATOM      6  C   UNL     1       0.481  10.336  20.602  0.00  0.00    +0.000 A 
ATOM      7  C   UNL     1       0.560  11.365  19.672  0.00  0.00    +0.000 A 
ATOM      8  C   UNL     1       1.129  11.085  18.443  0.00  0.00    +0.000 A 
ATOM      9  N   UNL     1       1.686   9.895  18.120  0.00  0.00    +0.000 NA
ATOM     10  C   UNL     1       1.662   8.917  19.053  0.00  0.00    +0.000 A 
ATOM     11  C   UNL     1       2.370   7.731  18.836  0.00  0.00    +0.000 A 
BRANCH  11  12
ATOM     12  O   UNL     1       3.079   7.619  17.662  0.00  0.00    +0.000 OA
ATOM     13  H   UNL     1       2.390   7.606  16.964  0.00  0.00    +0.000 HD
ENDBRANCH  11  12
ENDBRANCH   1   2
BRANCH   1  19
ATOM     14  C   UNL     1       2.476   3.254  19.834  0.00  0.00    +0.000 A 
ATOM     15  C   UNL     1       1.893   2.145  19.205  0.00  0.00    +0.000 A 
ATOM     16  C   UNL     1       1.905   2.009  17.817  0.00  0.00    +0.000 A 
ATOM     17  C   UNL     1       2.507   2.988  17.046  0.00  0.00    +0.000 A 
ATOM     18  C   UNL     1       3.038   4.124  17.661  0.00  0.00    +0.000 A 
ATOM     19  C   UNL     1       2.996   4.309  19.061  0.00  0.00    +0.000 A 
BRANCH  14  21
ATOM     20  C   UNL     1       1.534   2.647  21.911  0.00  0.00    +0.000 C 
ATOM     21  O   UNL     1       2.563   3.340  21.201  0.00  0.00    +0.000 OA
ENDBRANCH  14  21
ENDBRANCH   1  19
BRANCH   1  22
ATOM     22  N   UNL     1       4.657   6.089  18.882  0.00  0.00    +0.000 N 
ATOM     23  C   UNL     1       5.921   5.545  18.936  0.00  0.00    +0.000 C 
ATOM     24  O   UNL     1       6.275   4.762  19.812  0.00  0.00    +0.000 OA
ATOM     25  H   UNL     1       4.405   6.630  18.073  0.00  0.00    +0.000 HD
BRANCH  23  26
ATOM     26  C   UNL     1       6.873   6.074  17.853  0.00  0.00    +0.000 C 
ATOM     27  C   UNL     1       7.549   4.926  17.088  0.00  0.00    +0.000 C 
ATOM     28  C   UNL     1       6.567   4.166  16.193  0.00  0.00    +0.000 C 
ATOM     29  C   UNL     1       5.774   5.086  15.268  0.00  0.00    +0.000 C 
ATOM     30  C   UNL     1       5.172   6.289  15.988  0.00  0.00    +0.000 C 
ATOM     31  C   UNL     1       6.208   7.018  16.838  0.00  0.00    +0.000 C 
ENDBRANCH  23  26
ENDBRANCH   1  22
TORSDOF 6
ENDMDL
MODEL 5
REMARK VINA RESULT:      -9.0      1.803      5.031
REMARK  Name = 
REMARK  7 active torsions:
REMARK  status: ('A' for Active; 'I' for Inactive)
REMARK    1  A    between atoms: C_1  and  O_2
REMARK    2  A    between atoms: O_2  and  C_3
REMARK    3  A    between atoms: C_8  and  C_9
REMARK    4  A    between atoms: C_9  and  N_10
REMARK    5  A    between atoms: C_9  and  C_19
REMARK    6  A    between atoms: C_11  and  C_13
REMARK    7  A    between atoms: C_28  and  O_29
REMARK                            x       y       z     vdW  Elec       q    Type
REMARK                         _______ _______ _______ _____ _____    ______ ____
ROOT
ATOM      1  C   UNL     1       2.937   6.318  19.667  0.00  0.00    +0.000 C 
ENDROOT
BRANCH   1   2
ATOM      2  C   UNL     1       1.923   7.451  19.944  0.00  0.00    +0.000 A 
ATOM      3  C   UNL     1       1.318   7.602  21.205  0.00  0.00    +0.000 A 
ATOM      4  C   UNL     1       0.736   8.812  21.581  0.00  0.00    +0.000 A 
ATOM      5  C   UNL     1       0.708   9.888  20.686  0.00  0.00    +0.000 A 
ATOM      6  C   UNL     1       0.299  11.166  21.085  0.00  0.00    +0.000 A 
ATOM      7  C   UNL     1       0.272  12.200  20.158  0.00  0.00    +0.000 A 
ATOM      8  C   UNL     1       0.614  11.907  18.850  0.00  0.00    +0.000 A 
ATOM      9  N   UNL     1       1.052  10.696  18.436  0.00  0.00    +0.000 NA
ATOM     10  C   UNL     1       1.137   9.711  19.357  0.00  0.00    +0.000 A 
ATOM     11  C   UNL     1       1.742   8.495  19.022  0.00  0.00    +0.000 A 
BRANCH  11  12
ATOM     12  O   UNL     1       2.240   8.362  17.745  0.00  0.00    +0.000 OA
ATOM     13  H   UNL     1       2.699   7.496  17.753  0.00  0.00    +0.000 HD
ENDBRANCH  11  12
ENDBRANCH   1   2
BRANCH   1  19
ATOM     14  C   UNL     1       1.816   4.021  20.114  0.00  0.00    +0.000 A 
ATOM     15  C   UNL     1       1.075   2.921  19.658  0.00  0.00    +0.000 A 
ATOM     16  C   UNL     1       0.817   2.733  18.301  0.00  0.00    +0.000 A 
ATOM     17  C   UNL     1       1.303   3.651  17.386  0.00  0.00    +0.000 A 
ATOM     18  C   UNL     1       1.991   4.779  17.836  0.00  0.00    +0.000 A 
ATOM     19  C   UNL     1       2.224   5.019  19.209  0.00  0.00    +0.000 A 
BRANCH  14  21
ATOM     20  C   UNL     1       2.158   2.935  22.181  0.00  0.00    +0.000 C 
ATOM     21  O   UNL     1       2.165   4.153  21.435  0.00  0.00    +0.000 OA
ENDBRANCH  14  21
ENDBRANCH   1  19
BRANCH   1  22
ATOM     22  N   UNL     1       3.875   6.718  18.624  0.00  0.00    +0.000 N 
ATOM     23  C   UNL     1       5.131   6.171  18.480  0.00  0.00    +0.000 C 
ATOM     24  O   UNL     1       5.649   5.454  19.331  0.00  0.00    +0.000 OA
ATOM     25  H   UNL     1       3.472   7.199  17.839  0.00  0.00    +0.000 HD
BRANCH  23  26
ATOM     26  C   UNL     1       5.857   6.608  17.199  0.00  0.00    +0.000 C 
ATOM     27  C   UNL     1       7.296   6.070  17.156  0.00  0.00    +0.000 C 
ATOM     28  C   UNL     1       7.344   4.553  16.954  0.00  0.00    +0.000 C 
ATOM     29  C   UNL     1       6.520   4.089  15.756  0.00  0.00    +0.000 C 
ATOM     30  C   UNL     1       5.116   4.687  15.722  0.00  0.00    +0.000 C 
ATOM     31  C   UNL     1       5.141   6.201  15.901  0.00  0.00    +0.000 C 
ENDBRANCH  23  26
ENDBRANCH   1  22
TORSDOF 6
ENDMDL
MODEL 6
REMARK VINA RESULT:      -8.9      0.791      1.227
REMARK  Name = 
REMARK  7 active torsions:
REMARK  status: ('A' for Active; 'I' for Inactive)
REMARK    1  A    between atoms: C_1  and  O_2
REMARK    2  A    between atoms: O_2  and  C_3
REMARK    3  A    between atoms: C_8  and  C_9
REMARK    4  A    between atoms: C_9  and  N_10
REMARK    5  A    between atoms: C_9  and  C_19
REMARK    6  A    between atoms: C_11  and  C_13
REMARK    7  A    between atoms: C_28  and  O_29
REMARK                            x       y       z     vdW  Elec       q    Type
REMARK                         _______ _______ _______ _____ _____    ______ ____
ROOT
ATOM      1  C   UNL     1       3.733   5.924  17.880  0.00  0.00    +0.000 C 
ENDROOT
BRANCH   1   2
ATOM      2  C   UNL     1       3.028   7.207  18.376  0.00  0.00    +0.000 A 
ATOM      3  C   UNL     1       2.702   8.253  17.493  0.00  0.00    +0.000 A 
ATOM      4  C   UNL     1       1.738   9.203  17.833  0.00  0.00    +0.000 A 
ATOM      5  C   UNL     1       1.111   9.154  19.083  0.00  0.00    +0.000 A 
ATOM      6  C   UNL     1       0.017   9.973  19.389  0.00  0.00    +0.000 A 
ATOM      7  C   UNL     1      -0.564   9.902  20.648  0.00  0.00    +0.000 A 
ATOM      8  C   UNL     1      -0.002   9.041  21.574  0.00  0.00    +0.000 A 
ATOM      9  N   UNL     1       1.027   8.206  21.303  0.00  0.00    +0.000 NA
ATOM     10  C   UNL     1       1.548   8.235  20.056  0.00  0.00    +0.000 A 
ATOM     11  C   UNL     1       2.493   7.278  19.673  0.00  0.00    +0.000 A 
BRANCH  11  12
ATOM     12  O   UNL     1       2.849   6.328  20.603  0.00  0.00    +0.000 OA
ATOM     13  H   UNL     1       2.677   5.473  20.154  0.00  0.00    +0.000 HD
ENDBRANCH  11  12
ENDBRANCH   1   2
BRANCH   1  19
ATOM     14  C   UNL     1       6.117   6.482  17.022  0.00  0.00    +0.000 A 
ATOM     15  C   UNL     1       7.487   6.656  17.266  0.00  0.00    +0.000 A 
ATOM     16  C   UNL     1       8.059   6.285  18.482  0.00  0.00    +0.000 A 
ATOM     17  C   UNL     1       7.259   5.731  19.466  0.00  0.00    +0.000 A 
ATOM     18  C   UNL     1       5.885   5.608  19.252  0.00  0.00    +0.000 A 
ATOM     19  C   UNL     1       5.272   6.021  18.049  0.00  0.00    +0.000 A 
BRANCH  14  21
ATOM     20  C   UNL     1       5.550   5.633  14.894  0.00  0.00    +0.000 C 
ATOM     21  O   UNL     1       5.569   6.745  15.791  0.00  0.00    +0.000 OA
ENDBRANCH  14  21
ENDBRANCH   1  19
BRANCH   1  22
ATOM     22  N   UNL     1       3.262   4.764  18.628  0.00  0.00    +0.000 N 
ATOM     23  C   UNL     1       3.458   3.464  18.217  0.00  0.00    +0.000 C 
ATOM     24  O   UNL     1       3.860   3.171  17.095  0.00  0.00    +0.000 OA
ATOM     25  H   UNL     1       3.044   4.930  19.595  0.00  0.00    +0.000 HD
BRANCH  23  26
ATOM     26  C   UNL     1       3.049   2.413  19.260  0.00  0.00    +0.000 C 
ATOM     27  C   UNL     1       2.740   3.059  20.619  0.00  0.00    +0.000 C 
ATOM     28  C   UNL     1       1.450   3.884  20.591  0.00  0.00    +0.000 C 
ATOM     29  C   UNL     1       0.260   3.103  20.041  0.00  0.00    +0.000 C 
ATOM     30  C   UNL     1       0.570   2.371  18.738  0.00  0.00    +0.000 C 
ATOM     31  C   UNL     1       1.849   1.548  18.842  0.00  0.00    +0.000 C 
ENDBRANCH  23  26
ENDBRANCH   1  22
TORSDOF 6
ENDMDL
MODEL 7
REMARK VINA RESULT:      -8.8      1.529      4.524
REMARK  Name = 
REMARK  7 active torsions:
REMARK  status: ('A' for Active; 'I' for Inactive)
REMARK    1  A    between atoms: C_1  and  O_2
REMARK    2  A    between atoms: O_2  and  C_3
REMARK    3  A    between atoms: C_8  and  C_9
REMARK    4  A    between atoms: C_9  and  N_10
REMARK    5  A    between atoms: C_9  and  C_19
REMARK    6  A    between atoms: C_11  and  C_13
REMARK    7  A    between atoms: C_28  and  O_29
REMARK                            x       y       z     vdW  Elec       q    Type
REMARK                         _______ _______ _______ _____ _____    ______ ____
ROOT
ATOM      1  C   UNL     1       3.242   6.129  19.690  0.00  0.00    +0.000 C 
ENDROOT
BRANCH   1   2
ATOM      2  C   UNL     1       2.543   7.456  19.317  0.00  0.00    +0.000 A 
ATOM      3  C   UNL     1       2.484   7.905  17.986  0.00  0.00    +0.000 A 
ATOM      4  C   UNL     1       1.542   8.854  17.590  0.00  0.00    +0.000 A 
ATOM      5  C   UNL     1       0.664   9.409  18.529  0.00  0.00    +0.000 A 
ATOM      6  C   UNL     1      -0.407  10.223  18.143  0.00  0.00    +0.000 A 
ATOM      7  C   UNL     1      -1.243  10.764  19.111  0.00  0.00    +0.000 A 
ATOM      8  C   UNL     1      -0.951  10.506  20.438  0.00  0.00    +0.000 A 
ATOM      9  N   UNL     1       0.050   9.693  20.848  0.00  0.00    +0.000 NA
ATOM     10  C   UNL     1       0.821   9.119  19.898  0.00  0.00    +0.000 A 
ATOM     11  C   UNL     1       1.754   8.141  20.256  0.00  0.00    +0.000 A 
BRANCH  11  12
ATOM     12  O   UNL     1       1.838   7.799  21.587  0.00  0.00    +0.000 OA
ATOM     13  H   UNL     1       2.793   7.630  21.734  0.00  0.00    +0.000 HD
ENDBRANCH  11  12
ENDBRANCH   1   2
BRANCH   1  19
ATOM     14  C   UNL     1       2.145   4.217  18.321  0.00  0.00    +0.000 A 
ATOM     15  C   UNL     1       1.352   3.063  18.267  0.00  0.00    +0.000 A 
ATOM     16  C   UNL     1       0.605   2.644  19.367  0.00  0.00    +0.000 A 
ATOM     17  C   UNL     1       0.647   3.384  20.536  0.00  0.00    +0.000 A 
ATOM     18  C   UNL     1       1.481   4.502  20.617  0.00  0.00    +0.000 A 
ATOM     19  C   UNL     1       2.284   4.919  19.534  0.00  0.00    +0.000 A 
BRANCH  14  21
ATOM     20  C   UNL     1       3.319   3.685  16.344  0.00  0.00    +0.000 C 
ATOM     21  O   UNL     1       2.796   4.694  17.211  0.00  0.00    +0.000 OA
ENDBRANCH  14  21
ENDBRANCH   1  19
BRANCH   1  22
ATOM     22  N   UNL     1       4.404   5.908  18.835  0.00  0.00    +0.000 N 
ATOM     23  C   UNL     1       5.404   5.008  19.129  0.00  0.00    +0.000 C 
ATOM     24  O   UNL     1       5.515   4.466  20.225  0.00  0.00    +0.000 OA
ATOM     25  H   UNL     1       4.308   6.221  17.885  0.00  0.00    +0.000 HD
BRANCH  23  26
ATOM     26  C   UNL     1       6.416   4.808  17.991  0.00  0.00    +0.000 C 
ATOM     27  C   UNL     1       6.075   5.684  16.774  0.00  0.00    +0.000 C 
ATOM     28  C   UNL     1       6.310   7.172  17.046  0.00  0.00    +0.000 C 
ATOM     29  C   UNL     1       7.706   7.462  17.591  0.00  0.00    +0.000 C 
ATOM     30  C   UNL     1       8.107   6.540  18.739  0.00  0.00    +0.000 C 
ATOM     31  C   UNL     1       7.875   5.073  18.395  0.00  0.00    +0.000 C 
ENDBRANCH  23  26
ENDBRANCH   1  22
TORSDOF 6
ENDMDL
MODEL 8
REMARK VINA RESULT:      -8.7      1.391      1.813
REMARK  Name = 
REMARK  7 active torsions:
REMARK  status: ('A' for Active; 'I' for Inactive)
REMARK    1  A    between atoms: C_1  and  O_2
REMARK    2  A    between atoms: O_2  and  C_3
REMARK    3  A    between atoms: C_8  and  C_9
REMARK    4  A    between atoms: C_9  and  N_10
REMARK    5  A    between atoms: C_9  and  C_19
REMARK    6  A    between atoms: C_11  and  C_13
REMARK    7  A    between atoms: C_28  and  O_29
REMARK                            x       y       z     vdW  Elec       q    Type
REMARK                         _______ _______ _______ _____ _____    ______ ____
ROOT
ATOM      1  C   UNL     1       3.557   5.610  17.786  0.00  0.00    +0.000 C 
ENDROOT
BRANCH   1   2
ATOM      2  C   UNL     1       2.646   6.661  18.459  0.00  0.00    +0.000 A 
ATOM      3  C   UNL     1       2.149   6.475  19.762  0.00  0.00    +0.000 A 
ATOM      4  C   UNL     1       1.680   7.554  20.511  0.00  0.00    +0.000 A 
ATOM      5  C   UNL     1       1.656   8.840  19.956  0.00  0.00    +0.000 A 
ATOM      6  C   UNL     1       1.366   9.969  20.730  0.00  0.00    +0.000 A 
ATOM      7  C   UNL     1       1.337  11.223  20.134  0.00  0.00    +0.000 A 
ATOM      8  C   UNL     1       1.560  11.297  18.771  0.00  0.00    +0.000 A 
ATOM      9  N   UNL     1       1.883  10.235  17.998  0.00  0.00    +0.000 NA
ATOM     10  C   UNL     1       1.970   9.026  18.597  0.00  0.00    +0.000 A 
ATOM     11  C   UNL     1       2.466   7.930  17.884  0.00  0.00    +0.000 A 
BRANCH  11  12
ATOM     12  O   UNL     1       2.855   8.142  16.580  0.00  0.00    +0.000 OA
ATOM     13  H   UNL     1       3.157   7.261  16.271  0.00  0.00    +0.000 HD
ENDBRANCH  11  12
ENDBRANCH   1   2
BRANCH   1  19
ATOM     14  C   UNL     1       5.870   6.568  17.103  0.00  0.00    +0.000 A 
ATOM     15  C   UNL     1       7.187   6.914  17.435  0.00  0.00    +0.000 A 
ATOM     16  C   UNL     1       7.754   6.530  18.650  0.00  0.00    +0.000 A 
ATOM     17  C   UNL     1       7.001   5.789  19.544  0.00  0.00    +0.000 A 
ATOM     18  C   UNL     1       5.670   5.490  19.247  0.00  0.00    +0.000 A 
ATOM     19  C   UNL     1       5.056   5.910  18.046  0.00  0.00    +0.000 A 
BRANCH  14  21
ATOM     20  C   UNL     1       5.447   5.790  14.916  0.00  0.00    +0.000 C 
ATOM     21  O   UNL     1       5.343   6.851  15.868  0.00  0.00    +0.000 OA
ENDBRANCH  14  21
ENDBRANCH   1  19
BRANCH   1  22
ATOM     22  N   UNL     1       3.260   4.277  18.298  0.00  0.00    +0.000 N 
ATOM     23  C   UNL     1       2.187   3.522  17.878  0.00  0.00    +0.000 C 
ATOM     24  O   UNL     1       1.276   3.979  17.196  0.00  0.00    +0.000 OA
ATOM     25  H   UNL     1       4.023   3.808  18.755  0.00  0.00    +0.000 HD
BRANCH  23  26
ATOM     26  C   UNL     1       2.192   2.082  18.412  0.00  0.00    +0.000 C 
ATOM     27  C   UNL     1       3.564   1.700  18.989  0.00  0.00    +0.000 C 
ATOM     28  C   UNL     1       3.873   2.439  20.293  0.00  0.00    +0.000 C 
ATOM     29  C   UNL     1       2.757   2.309  21.326  0.00  0.00    +0.000 C 
ATOM     30  C   UNL     1       1.371   2.590  20.754  0.00  0.00    +0.000 C 
ATOM     31  C   UNL     1       1.117   1.802  19.473  0.00  0.00    +0.000 C 
ENDBRANCH  23  26
ENDBRANCH   1  22
TORSDOF 6
ENDMDL
MODEL 9
REMARK VINA RESULT:      -8.6      0.970      1.013
REMARK  Name = 
REMARK  7 active torsions:
REMARK  status: ('A' for Active; 'I' for Inactive)
REMARK    1  A    between atoms: C_1  and  O_2
REMARK    2  A    between atoms: O_2  and  C_3
REMARK    3  A    between atoms: C_8  and  C_9
REMARK    4  A    between atoms: C_9  and  N_10
REMARK    5  A    between atoms: C_9  and  C_19
REMARK    6  A    between atoms: C_11  and  C_13
REMARK    7  A    between atoms: C_28  and  O_29
REMARK                            x       y       z     vdW  Elec       q    Type
REMARK                         _______ _______ _______ _____ _____    ______ ____
ROOT
ATOM      1  C   UNL     1       3.444   5.939  17.424  0.00  0.00    +0.000 C 
ENDROOT
BRANCH   1   2
ATOM      2  C   UNL     1       2.853   7.177  18.136  0.00  0.00    +0.000 A 
ATOM      3  C   UNL     1       2.358   8.274  17.408  0.00  0.00    +0.000 A 
ATOM      4  C   UNL     1       1.482   9.188  17.995  0.00  0.00    +0.000 A 
ATOM      5  C   UNL     1       1.115   9.048  19.339  0.00  0.00    +0.000 A 
ATOM      6  C   UNL     1       0.105   9.831  19.910  0.00  0.00    +0.000 A 
ATOM      7  C   UNL     1      -0.215   9.668  21.252  0.00  0.00    +0.000 A 
ATOM      8  C   UNL     1       0.519   8.755  21.987  0.00  0.00    +0.000 A 
ATOM      9  N   UNL     1       1.473   7.953  21.462  0.00  0.00    +0.000 NA
ATOM     10  C   UNL     1       1.736   8.072  20.141  0.00  0.00    +0.000 A 
ATOM     11  C   UNL     1       2.586   7.154  19.514  0.00  0.00    +0.000 A 
BRANCH  11  12
ATOM     12  O   UNL     1       3.118   6.149  20.289  0.00  0.00    +0.000 OA
ATOM     13  H   UNL     1       2.819   5.323  19.853  0.00  0.00    +0.000 HD
ENDBRANCH  11  12
ENDBRANCH   1   2
BRANCH   1  19
ATOM     14  C   UNL     1       5.772   4.897  16.947  0.00  0.00    +0.000 A 
ATOM     15  C   UNL     1       7.167   5.020  16.879  0.00  0.00    +0.000 A 
ATOM     16  C   UNL     1       7.822   6.142  17.386  0.00  0.00    +0.000 A 
ATOM     17  C   UNL     1       7.079   7.153  17.970  0.00  0.00    +0.000 A 
ATOM     18  C   UNL     1       5.685   7.066  17.989  0.00  0.00    +0.000 A 
ATOM     19  C   UNL     1       4.995   5.964  17.438  0.00  0.00    +0.000 A 
BRANCH  14  21
ATOM     20  C   UNL     1       5.521   3.264  15.261  0.00  0.00    +0.000 C 
ATOM     21  O   UNL     1       5.132   3.751  16.548  0.00  0.00    +0.000 OA
ENDBRANCH  14  21
ENDBRANCH   1  19
BRANCH   1  22
ATOM     22  N   UNL     1       2.999   4.714  18.080  0.00  0.00    +0.000 N 
ATOM     23  C   UNL     1       1.823   4.069  17.767  0.00  0.00    +0.000 C 
ATOM     24  O   UNL     1       0.952   4.570  17.063  0.00  0.00    +0.000 OA
ATOM     25  H   UNL     1       3.712   4.197  18.565  0.00  0.00    +0.000 HD
BRANCH  23  26
ATOM     26  C   UNL     1       1.664   2.701  18.448  0.00  0.00    +0.000 C 
ATOM     27  C   UNL     1       3.008   2.175  18.977  0.00  0.00    +0.000 C 
ATOM     28  C   UNL     1       3.517   2.981  20.174  0.00  0.00    +0.000 C 
ATOM     29  C   UNL     1       2.475   3.117  21.282  0.00  0.00    +0.000 C 
ATOM     30  C   UNL     1       1.103   3.546  20.770  0.00  0.00    +0.000 C 
ATOM     31  C   UNL     1       0.643   2.686  19.597  0.00  0.00    +0.000 C 
ENDBRANCH  23  26
ENDBRANCH   1  22
TORSDOF 6
ENDMDL
