MODEL 1
REMARK VINA RESULT:      -8.1      0.000      0.000
REMARK  Name = 
REMARK  7 active torsions:
REMARK  status: ('A' for Active; 'I' for Inactive)
REMARK    1  A    between atoms: C_2  and  O_3
REMARK    2  A    between atoms: C_2  and  C_4
REMARK    3  A    between atoms: C_4  and  C_5
REMARK    4  A    between atoms: C_7  and  C_8
REMARK    5  A    between atoms: C_15  and  C_16
REMARK    6  A    between atoms: N_23  and  C_24
REMARK    7  A    between atoms: C_24  and  C_25
REMARK                            x       y       z     vdW  Elec       q    Type
REMARK                         _______ _______ _______ _____ _____    ______ ____
ROOT
ATOM      1  C   UNL     1       2.416   3.153  18.796  0.00  0.00    +0.000 C 
ATOM      2  O   UNL     1       2.018   4.520  18.842  0.00  0.00    +0.000 OA
ATOM      3  C   UNL     1       3.131   5.427  18.809  0.00  0.00    +0.000 C 
ATOM      4  C   UNL     1       4.072   5.183  17.581  0.00  0.00    +0.000 C 
ATOM      5  N   UNL     1       4.288   3.752  17.258  0.00  0.00    +0.000 N 
ATOM      6  C   UNL     1       3.394   2.770  17.670  0.00  0.00    +0.000 C 
ATOM      7  O   UNL     1       3.430   1.614  17.250  0.00  0.00    +0.000 OA
ENDROOT
BRANCH   3   8
ATOM      8  C   UNL     1       2.524   6.820  18.845  0.00  0.00    +0.000 A 
ATOM      9  C   UNL     1       2.381   7.558  17.659  0.00  0.00    +0.000 A 
ATOM     10  C   UNL     1       1.800   8.828  17.676  0.00  0.00    +0.000 A 
ATOM     11  C   UNL     1       1.354   9.377  18.876  0.00  0.00    +0.000 A 
ATOM     12  C   UNL     1       1.502   8.660  20.060  0.00  0.00    +0.000 A 
ATOM     13 CL   UNL     1       0.945   9.332  21.543  0.00  0.00    +0.000 Cl
ATOM     14  C   UNL     1       2.088   7.394  20.052  0.00  0.00    +0.000 A 
ENDBRANCH   3   8
BRANCH   4  15
ATOM     15  C   UNL     1       5.381   5.933  17.845  0.00  0.00    +0.000 A 
ATOM     16  C   UNL     1       6.268   5.526  18.860  0.00  0.00    +0.000 A 
ATOM     17  C   UNL     1       7.424   6.261  19.132  0.00  0.00    +0.000 A 
ATOM     18  C   UNL     1       7.689   7.424  18.413  0.00  0.00    +0.000 A 
ATOM     19 CL   UNL     1       9.089   8.353  18.778  0.00  0.00    +0.000 Cl
ATOM     20  C   UNL     1       6.821   7.845  17.410  0.00  0.00    +0.000 A 
ATOM     21  C   UNL     1       5.676   7.099  17.120  0.00  0.00    +0.000 A 
ENDBRANCH   4  15
BRANCH   1  22
ATOM     22  C   UNL     1       2.992   2.696  20.138  0.00  0.00    +0.000 C 
BRANCH  22  24
ATOM     23  O   UNL     1       2.431   3.138  22.426  0.00  0.00    +0.000 OA
ATOM     24  C   UNL     1       2.044   2.876  21.296  0.00  0.00    +0.000 C 
BRANCH  24  25
ATOM     25  O   UNL     1       0.731   2.849  20.982  0.00  0.00    +0.000 OA
ATOM     26  H   UNL     1       0.193   3.573  21.373  0.00  0.00    +0.000 HD
ENDBRANCH  24  25
ENDBRANCH  22  24
ENDBRANCH   1  22
BRANCH   5  27
ATOM     27  C   UNL     1       5.273   3.389  16.233  0.00  0.00    +0.000 C 
BRANCH  27  28
ATOM     28  C   UNL     1       5.355   4.345  15.079  0.00  0.00    +0.000 C 
ATOM     29  C   UNL     1       6.631   4.838  14.442  0.00  0.00    +0.000 C 
ATOM     30  C   UNL     1       5.805   3.803  13.739  0.00  0.00    +0.000 C 
ENDBRANCH  27  28
ENDBRANCH   5  27
TORSDOF 7
ENDMDL
MODEL 2
REMARK VINA RESULT:      -7.0      6.136      8.799
REMARK  Name = 
REMARK  7 active torsions:
REMARK  status: ('A' for Active; 'I' for Inactive)
REMARK    1  A    between atoms: C_2  and  O_3
REMARK    2  A    between atoms: C_2  and  C_4
REMARK    3  A    between atoms: C_4  and  C_5
REMARK    4  A    between atoms: C_7  and  C_8
REMARK    5  A    between atoms: C_15  and  C_16
REMARK    6  A    between atoms: N_23  and  C_24
REMARK    7  A    between atoms: C_24  and  C_25
REMARK                            x       y       z     vdW  Elec       q    Type
REMARK                         _______ _______ _______ _____ _____    ______ ____
ROOT
ATOM      1  C   UNL     1      -2.156  13.088  20.425  0.00  0.00    +0.000 C 
ATOM      2  O   UNL     1      -0.838  13.573  20.186  0.00  0.00    +0.000 OA
ATOM      3  C   UNL     1       0.118  12.519  19.995  0.00  0.00    +0.000 C 
ATOM      4  C   UNL     1      -0.300  11.522  18.863  0.00  0.00    +0.000 C 
ATOM      5  N   UNL     1      -1.749  11.205  18.839  0.00  0.00    +0.000 N 
ATOM      6  C   UNL     1      -2.688  12.049  19.420  0.00  0.00    +0.000 C 
ATOM      7  O   UNL     1      -3.899  11.926  19.243  0.00  0.00    +0.000 OA
ENDROOT
BRANCH   3   8
ATOM      8  C   UNL     1       1.445  13.213  19.738  0.00  0.00    +0.000 A 
ATOM      9  C   UNL     1       1.811  13.572  18.430  0.00  0.00    +0.000 A 
ATOM     10  C   UNL     1       3.016  14.236  18.184  0.00  0.00    +0.000 A 
ATOM     11  C   UNL     1       3.870  14.548  19.239  0.00  0.00    +0.000 A 
ATOM     12  C   UNL     1       3.524  14.186  20.538  0.00  0.00    +0.000 A 
ATOM     13 CL   UNL     1       4.574  14.577  21.844  0.00  0.00    +0.000 Cl
ATOM     14  C   UNL     1       2.326  13.517  20.790  0.00  0.00    +0.000 A 
ENDBRANCH   3   8
BRANCH   4  15
ATOM     15  C   UNL     1       0.576  10.273  18.999  0.00  0.00    +0.000 A 
ATOM     16  C   UNL     1       1.277   9.744  17.899  0.00  0.00    +0.000 A 
ATOM     17  C   UNL     1       2.017   8.566  18.025  0.00  0.00    +0.000 A 
ATOM     18  C   UNL     1       2.039   7.892  19.243  0.00  0.00    +0.000 A 
ATOM     19 CL   UNL     1       2.914   6.418  19.387  0.00  0.00    +0.000 Cl
ATOM     20  C   UNL     1       1.349   8.396  20.342  0.00  0.00    +0.000 A 
ATOM     21  C   UNL     1       0.627   9.587  20.224  0.00  0.00    +0.000 A 
ENDBRANCH   4  15
BRANCH   1  22
ATOM     22  C   UNL     1      -2.296  12.532  21.843  0.00  0.00    +0.000 C 
BRANCH  22  24
ATOM     23  O   UNL     1      -2.530  14.261  23.486  0.00  0.00    +0.000 OA
ATOM     24  C   UNL     1      -1.796  13.470  22.912  0.00  0.00    +0.000 C 
BRANCH  24  25
ATOM     25  O   UNL     1      -0.508  13.298  23.280  0.00  0.00    +0.000 OA
ATOM     26  H   UNL     1      -0.321  13.459  24.232  0.00  0.00    +0.000 HD
ENDBRANCH  24  25
ENDBRANCH  22  24
ENDBRANCH   1  22
BRANCH   5  27
ATOM     27  C   UNL     1      -2.240  10.164  17.929  0.00  0.00    +0.000 C 
BRANCH  27  28
ATOM     28  C   UNL     1      -2.324  10.580  16.490  0.00  0.00    +0.000 C 
ATOM     29  C   UNL     1      -2.905   9.749  15.372  0.00  0.00    +0.000 C 
ATOM     30  C   UNL     1      -3.690  10.902  15.923  0.00  0.00    +0.000 C 
ENDBRANCH  27  28
ENDBRANCH   5  27
TORSDOF 7
ENDMDL
MODEL 3
REMARK VINA RESULT:      -6.9      6.441      9.190
REMARK  Name = 
REMARK  7 active torsions:
REMARK  status: ('A' for Active; 'I' for Inactive)
REMARK    1  A    between atoms: C_2  and  O_3
REMARK    2  A    between atoms: C_2  and  C_4
REMARK    3  A    between atoms: C_4  and  C_5
REMARK    4  A    between atoms: C_7  and  C_8
REMARK    5  A    between atoms: C_15  and  C_16
REMARK    6  A    between atoms: N_23  and  C_24
REMARK    7  A    between atoms: C_24  and  C_25
REMARK                            x       y       z     vdW  Elec       q    Type
REMARK                         _______ _______ _______ _____ _____    ______ ____
ROOT
ATOM      1  C   UNL     1      -2.688  13.200  20.460  0.00  0.00    +0.000 C 
ATOM      2  O   UNL     1      -1.380  13.749  20.316  0.00  0.00    +0.000 OA
ATOM      3  C   UNL     1      -0.367  12.744  20.166  0.00  0.00    +0.000 C 
ATOM      4  C   UNL     1      -0.666  11.756  18.988  0.00  0.00    +0.000 C 
ATOM      5  N   UNL     1      -2.094  11.375  18.865  0.00  0.00    +0.000 N 
ATOM      6  C   UNL     1      -3.106  12.163  19.402  0.00  0.00    +0.000 C 
ATOM      7  O   UNL     1      -4.297  11.990  19.145  0.00  0.00    +0.000 OA
ENDROOT
BRANCH   3   8
ATOM      8  C   UNL     1       0.940  13.502  20.008  0.00  0.00    +0.000 A 
ATOM      9  C   UNL     1       2.040  13.190  20.824  0.00  0.00    +0.000 A 
ATOM     10  C   UNL     1       3.255  13.862  20.670  0.00  0.00    +0.000 A 
ATOM     11  C   UNL     1       3.388  14.853  19.700  0.00  0.00    +0.000 A 
ATOM     12  C   UNL     1       2.302  15.179  18.894  0.00  0.00    +0.000 A 
ATOM     13 CL   UNL     1       2.465  16.398  17.689  0.00  0.00    +0.000 Cl
ATOM     14  C   UNL     1       1.083  14.518  19.047  0.00  0.00    +0.000 A 
ENDBRANCH   3   8
BRANCH   4  15
ATOM     15  C   UNL     1       0.256  10.544  19.155  0.00  0.00    +0.000 A 
ATOM     16  C   UNL     1       1.027  10.056  18.083  0.00  0.00    +0.000 A 
ATOM     17  C   UNL     1       1.811   8.910  18.234  0.00  0.00    +0.000 A 
ATOM     18  C   UNL     1       1.808   8.226  19.447  0.00  0.00    +0.000 A 
ATOM     19 CL   UNL     1       2.739   6.790  19.619  0.00  0.00    +0.000 Cl
ATOM     20  C   UNL     1       1.049   8.690  20.517  0.00  0.00    +0.000 A 
ATOM     21  C   UNL     1       0.282   9.850  20.376  0.00  0.00    +0.000 A 
ENDBRANCH   4  15
BRANCH   1  22
ATOM     22  C   UNL     1      -2.891  12.605  21.855  0.00  0.00    +0.000 C 
BRANCH  22  24
ATOM     23  O   UNL     1      -4.317  13.948  23.237  0.00  0.00    +0.000 OA
ATOM     24  C   UNL     1      -4.204  12.987  22.489  0.00  0.00    +0.000 C 
BRANCH  24  25
ATOM     25  O   UNL     1      -5.275  12.270  22.086  0.00  0.00    +0.000 OA
ATOM     26  H   UNL     1      -5.985  12.790  21.650  0.00  0.00    +0.000 HD
ENDBRANCH  24  25
ENDBRANCH  22  24
ENDBRANCH   1  22
BRANCH   5  27
ATOM     27  C   UNL     1      -2.479  10.335  17.904  0.00  0.00    +0.000 C 
BRANCH  27  28
ATOM     28  C   UNL     1      -2.476  10.777  16.470  0.00  0.00    +0.000 C 
ATOM     29  C   UNL     1      -2.801   9.901  15.285  0.00  0.00    +0.000 C 
ATOM     30  C   UNL     1      -3.808  10.903  15.764  0.00  0.00    +0.000 C 
ENDBRANCH  27  28
ENDBRANCH   5  27
TORSDOF 7
ENDMDL
MODEL 4
REMARK VINA RESULT:      -6.8      5.584      9.387
REMARK  Name = 
REMARK  7 active torsions:
REMARK  status: ('A' for Active; 'I' for Inactive)
REMARK    1  A    between atoms: C_2  and  O_3
REMARK    2  A    between atoms: C_2  and  C_4
REMARK    3  A    between atoms: C_4  and  C_5
REMARK    4  A    between atoms: C_7  and  C_8
REMARK    5  A    between atoms: C_15  and  C_16
REMARK    6  A    between atoms: N_23  and  C_24
REMARK    7  A    between atoms: C_24  and  C_25
REMARK                            x       y       z     vdW  Elec       q    Type
REMARK                         _______ _______ _______ _____ _____    ______ ____
ROOT
ATOM      1  C   UNL     1      -2.662  10.605  17.947  0.00  0.00    +0.000 C 
ATOM      2  O   UNL     1      -1.580   9.753  18.316  0.00  0.00    +0.000 OA
ATOM      3  C   UNL     1      -0.371  10.474  18.592  0.00  0.00    +0.000 C 
ATOM      4  C   UNL     1      -0.567  11.591  19.673  0.00  0.00    +0.000 C 
ATOM      5  N   UNL     1      -1.846  12.332  19.554  0.00  0.00    +0.000 N 
ATOM      6  C   UNL     1      -2.940  11.791  18.889  0.00  0.00    +0.000 C 
ATOM      7  O   UNL     1      -4.068  12.281  18.947  0.00  0.00    +0.000 OA
ENDROOT
BRANCH   3   8
ATOM      8  C   UNL     1       0.653   9.421  18.982  0.00  0.00    +0.000 A 
ATOM      9  C   UNL     1       0.683   8.918  20.293  0.00  0.00    +0.000 A 
ATOM     10  C   UNL     1       1.601   7.929  20.656  0.00  0.00    +0.000 A 
ATOM     11  C   UNL     1       2.501   7.432  19.716  0.00  0.00    +0.000 A 
ATOM     12  C   UNL     1       2.489   7.931  18.418  0.00  0.00    +0.000 A 
ATOM     13 CL   UNL     1       3.593   7.313  17.252  0.00  0.00    +0.000 Cl
ATOM     14  C   UNL     1       1.580   8.924  18.050  0.00  0.00    +0.000 A 
ENDBRANCH   3   8
BRANCH   4  15
ATOM     15  C   UNL     1       0.656  12.510  19.614  0.00  0.00    +0.000 A 
ATOM     16  C   UNL     1       1.049  13.134  18.415  0.00  0.00    +0.000 A 
ATOM     17  C   UNL     1       2.206  13.916  18.364  0.00  0.00    +0.000 A 
ATOM     18  C   UNL     1       2.995  14.057  19.502  0.00  0.00    +0.000 A 
ATOM     19 CL   UNL     1       4.442  14.983  19.428  0.00  0.00    +0.000 Cl
ATOM     20  C   UNL     1       2.626  13.444  20.697  0.00  0.00    +0.000 A 
ATOM     21  C   UNL     1       1.457  12.681  20.756  0.00  0.00    +0.000 A 
ENDBRANCH   4  15
BRANCH   1  22
ATOM     22  C   UNL     1      -2.496  11.126  16.518  0.00  0.00    +0.000 C 
BRANCH  22  24
ATOM     23  O   UNL     1      -3.575  10.333  14.531  0.00  0.00    +0.000 OA
ATOM     24  C   UNL     1      -3.684  10.851  15.633  0.00  0.00    +0.000 C 
BRANCH  24  25
ATOM     25  O   UNL     1      -4.891  11.104  16.184  0.00  0.00    +0.000 OA
ATOM     26  H   UNL     1      -4.988  10.825  17.121  0.00  0.00    +0.000 HD
ENDBRANCH  24  25
ENDBRANCH  22  24
ENDBRANCH   1  22
BRANCH   5  27
ATOM     27  C   UNL     1      -2.077  13.504  20.405  0.00  0.00    +0.000 C 
BRANCH  27  28
ATOM     28  C   UNL     1      -2.339  13.187  21.848  0.00  0.00    +0.000 C 
ATOM     29  C   UNL     1      -1.339  13.328  22.969  0.00  0.00    +0.000 C 
ATOM     30  C   UNL     1      -2.434  14.342  22.822  0.00  0.00    +0.000 C 
ENDBRANCH  27  28
ENDBRANCH   5  27
TORSDOF 7
ENDMDL
MODEL 5
REMARK VINA RESULT:      -6.8      5.857      9.871
REMARK  Name = 
REMARK  7 active torsions:
REMARK  status: ('A' for Active; 'I' for Inactive)
REMARK    1  A    between atoms: C_2  and  O_3
REMARK    2  A    between atoms: C_2  and  C_4
REMARK    3  A    between atoms: C_4  and  C_5
REMARK    4  A    between atoms: C_7  and  C_8
REMARK    5  A    between atoms: C_15  and  C_16
REMARK    6  A    between atoms: N_23  and  C_24
REMARK    7  A    between atoms: C_24  and  C_25
REMARK                            x       y       z     vdW  Elec       q    Type
REMARK                         _______ _______ _______ _____ _____    ______ ____
ROOT
ATOM      1  C   UNL     1      -3.079  10.488  17.453  0.00  0.00    +0.000 C 
ATOM      2  O   UNL     1      -1.974   9.768  17.992  0.00  0.00    +0.000 OA
ATOM      3  C   UNL     1      -0.979  10.625  18.570  0.00  0.00    +0.000 C 
ATOM      4  C   UNL     1      -1.569  11.590  19.653  0.00  0.00    +0.000 C 
ATOM      5  N   UNL     1      -2.899  12.148  19.308  0.00  0.00    +0.000 N 
ATOM      6  C   UNL     1      -3.732  11.523  18.387  0.00  0.00    +0.000 C 
ATOM      7  O   UNL     1      -4.912  11.838  18.231  0.00  0.00    +0.000 OA
ENDROOT
BRANCH   3   8
ATOM      8  C   UNL     1       0.100   9.696  19.104  0.00  0.00    +0.000 A 
ATOM      9  C   UNL     1       0.098   9.317  20.456  0.00  0.00    +0.000 A 
ATOM     10  C   UNL     1       1.068   8.442  20.952  0.00  0.00    +0.000 A 
ATOM     11  C   UNL     1       2.051   7.936  20.105  0.00  0.00    +0.000 A 
ATOM     12  C   UNL     1       2.070   8.314  18.766  0.00  0.00    +0.000 A 
ATOM     13 CL   UNL     1       3.278   7.684  17.714  0.00  0.00    +0.000 Cl
ATOM     14  C   UNL     1       1.110   9.193  18.265  0.00  0.00    +0.000 A 
ENDBRANCH   3   8
BRANCH   4  15
ATOM     15  C   UNL     1      -0.524  12.677  19.922  0.00  0.00    +0.000 A 
ATOM     16  C   UNL     1      -0.033  12.919  21.219  0.00  0.00    +0.000 A 
ATOM     17  C   UNL     1       0.869  13.959  21.457  0.00  0.00    +0.000 A 
ATOM     18  C   UNL     1       1.265  14.784  20.407  0.00  0.00    +0.000 A 
ATOM     19 CL   UNL     1       2.341  16.091  20.708  0.00  0.00    +0.000 Cl
ATOM     20  C   UNL     1       0.787  14.564  19.119  0.00  0.00    +0.000 A 
ATOM     21  C   UNL     1      -0.097  13.510  18.874  0.00  0.00    +0.000 A 
ENDBRANCH   4  15
BRANCH   1  22
ATOM     22  C   UNL     1      -2.711  11.165  16.132  0.00  0.00    +0.000 C 
BRANCH  22  24
ATOM     23  O   UNL     1      -2.555  10.022  14.031  0.00  0.00    +0.000 OA
ATOM     24  C   UNL     1      -3.269  10.466  14.918  0.00  0.00    +0.000 C 
BRANCH  24  25
ATOM     25  O   UNL     1      -4.603  10.255  14.930  0.00  0.00    +0.000 OA
ATOM     26  H   UNL     1      -4.930   9.616  14.259  0.00  0.00    +0.000 HD
ENDBRANCH  24  25
ENDBRANCH  22  24
ENDBRANCH   1  22
BRANCH   5  27
ATOM     27  C   UNL     1      -3.485  13.186  20.163  0.00  0.00    +0.000 C 
BRANCH  27  28
ATOM     28  C   UNL     1      -4.060  12.681  21.454  0.00  0.00    +0.000 C 
ATOM     29  C   UNL     1      -3.332  12.634  22.775  0.00  0.00    +0.000 C 
ATOM     30  C   UNL     1      -4.367  13.693  22.537  0.00  0.00    +0.000 C 
ENDBRANCH  27  28
ENDBRANCH   5  27
TORSDOF 7
ENDMDL
MODEL 6
REMARK VINA RESULT:      -6.7      0.904      1.174
REMARK  Name = 
REMARK  7 active torsions:
REMARK  status: ('A' for Active; 'I' for Inactive)
REMARK    1  A    between atoms: C_2  and  O_3
REMARK    2  A    between atoms: C_2  and  C_4
REMARK    3  A    between atoms: C_4  and  C_5
REMARK    4  A    between atoms: C_7  and  C_8
REMARK    5  A    between atoms: C_15  and  C_16
REMARK    6  A    between atoms: N_23  and  C_24
REMARK    7  A    between atoms: C_24  and  C_25
REMARK                            x       y       z     vdW  Elec       q    Type
REMARK                         _______ _______ _______ _____ _____    ______ ____
ROOT
ATOM      1  C   UNL     1       2.293   3.164  18.702  0.00  0.00    +0.000 C 
ATOM      2  O   UNL     1       1.920   4.537  18.785  0.00  0.00    +0.000 OA
ATOM      3  C   UNL     1       3.049   5.423  18.765  0.00  0.00    +0.000 C 
ATOM      4  C   UNL     1       3.977   5.194  17.525  0.00  0.00    +0.000 C 
ATOM      5  N   UNL     1       4.165   3.767  17.165  0.00  0.00    +0.000 N 
ATOM      6  C   UNL     1       3.255   2.792  17.559  0.00  0.00    +0.000 C 
ATOM      7  O   UNL     1       3.267   1.646  17.111  0.00  0.00    +0.000 OA
ENDROOT
BRANCH   3   8
ATOM      8  C   UNL     1       2.468   6.826  18.841  0.00  0.00    +0.000 A 
ATOM      9  C   UNL     1       2.322   7.592  17.673  0.00  0.00    +0.000 A 
ATOM     10  C   UNL     1       1.763   8.872  17.726  0.00  0.00    +0.000 A 
ATOM     11  C   UNL     1       1.345   9.402  18.945  0.00  0.00    +0.000 A 
ATOM     12  C   UNL     1       1.497   8.657  20.110  0.00  0.00    +0.000 A 
ATOM     13 CL   UNL     1       0.973   9.306  21.616  0.00  0.00    +0.000 Cl
ATOM     14  C   UNL     1       2.060   7.381  20.066  0.00  0.00    +0.000 A 
ENDBRANCH   3   8
BRANCH   4  15
ATOM     15  C   UNL     1       5.301   5.913  17.798  0.00  0.00    +0.000 A 
ATOM     16  C   UNL     1       6.182   5.472  18.803  0.00  0.00    +0.000 A 
ATOM     17  C   UNL     1       7.354   6.179  19.084  0.00  0.00    +0.000 A 
ATOM     18  C   UNL     1       7.639   7.348  18.384  0.00  0.00    +0.000 A 
ATOM     19 CL   UNL     1       9.059   8.243  18.760  0.00  0.00    +0.000 Cl
ATOM     20  C   UNL     1       6.778   7.803  17.390  0.00  0.00    +0.000 A 
ATOM     21  C   UNL     1       5.617   7.085  17.091  0.00  0.00    +0.000 A 
ENDBRANCH   4  15
BRANCH   1  22
ATOM     22  C   UNL     1       2.870   2.664  20.028  0.00  0.00    +0.000 C 
BRANCH  22  24
ATOM     23  O   UNL     1       5.217   2.970  20.402  0.00  0.00    +0.000 OA
ATOM     24  C   UNL     1       4.323   2.273  19.945  0.00  0.00    +0.000 C 
BRANCH  24  25
ATOM     25  O   UNL     1       4.567   1.044  19.439  0.00  0.00    +0.000 OA
ATOM     26  H   UNL     1       4.600   0.319  20.102  0.00  0.00    +0.000 HD
ENDBRANCH  24  25
ENDBRANCH  22  24
ENDBRANCH   1  22
BRANCH   5  27
ATOM     27  C   UNL     1       5.135   3.412  16.123  0.00  0.00    +0.000 C 
BRANCH  27  28
ATOM     28  C   UNL     1       5.272   4.426  15.025  0.00  0.00    +0.000 C 
ATOM     29  C   UNL     1       6.574   4.879  14.412  0.00  0.00    +0.000 C 
ATOM     30  C   UNL     1       5.689   3.935  13.655  0.00  0.00    +0.000 C 
ENDBRANCH  27  28
ENDBRANCH   5  27
TORSDOF 7
ENDMDL
MODEL 7
REMARK VINA RESULT:      -6.7      6.093     10.171
REMARK  Name = 
REMARK  7 active torsions:
REMARK  status: ('A' for Active; 'I' for Inactive)
REMARK    1  A    between atoms: C_2  and  O_3
REMARK    2  A    between atoms: C_2  and  C_4
REMARK    3  A    between atoms: C_4  and  C_5
REMARK    4  A    between atoms: C_7  and  C_8
REMARK    5  A    between atoms: C_15  and  C_16
REMARK    6  A    between atoms: N_23  and  C_24
REMARK    7  A    between atoms: C_24  and  C_25
REMARK                            x       y       z     vdW  Elec       q    Type
REMARK                         _______ _______ _______ _____ _____    ______ ____
ROOT
ATOM      1  C   UNL     1      -3.305  10.132  16.749  0.00  0.00    +0.000 C 
ATOM      2  O   UNL     1      -2.175   9.595  17.432  0.00  0.00    +0.000 OA
ATOM      3  C   UNL     1      -1.388  10.601  18.086  0.00  0.00    +0.000 C 
ATOM      4  C   UNL     1      -2.232  11.488  19.062  0.00  0.00    +0.000 C 
ATOM      5  N   UNL     1      -3.581  11.835  18.553  0.00  0.00    +0.000 N 
ATOM      6  C   UNL     1      -4.204  11.076  17.568  0.00  0.00    +0.000 C 
ATOM      7  O   UNL     1      -5.391  11.210  17.272  0.00  0.00    +0.000 OA
ENDROOT
BRANCH   3   8
ATOM      8  C   UNL     1      -0.254   9.853  18.768  0.00  0.00    +0.000 A 
ATOM      9  C   UNL     1      -0.273   9.658  20.158  0.00  0.00    +0.000 A 
ATOM     10  C   UNL     1       0.749   8.949  20.793  0.00  0.00    +0.000 A 
ATOM     11  C   UNL     1       1.804   8.425  20.047  0.00  0.00    +0.000 A 
ATOM     12  C   UNL     1       1.840   8.622  18.670  0.00  0.00    +0.000 A 
ATOM     13 CL   UNL     1       3.136   7.970  17.745  0.00  0.00    +0.000 Cl
ATOM     14  C   UNL     1       0.826   9.336  18.031  0.00  0.00    +0.000 A 
ENDBRANCH   3   8
BRANCH   4  15
ATOM     15  C   UNL     1      -1.394  12.723  19.406  0.00  0.00    +0.000 A 
ATOM     16  C   UNL     1      -0.676  13.421  18.416  0.00  0.00    +0.000 A 
ATOM     17  C   UNL     1       0.136  14.505  18.757  0.00  0.00    +0.000 A 
ATOM     18  C   UNL     1       0.261  14.882  20.092  0.00  0.00    +0.000 A 
ATOM     19 CL   UNL     1       1.296  16.188  20.517  0.00  0.00    +0.000 Cl
ATOM     20  C   UNL     1      -0.437  14.201  21.085  0.00  0.00    +0.000 A 
ATOM     21  C   UNL     1      -1.269  13.131  20.744  0.00  0.00    +0.000 A 
ENDBRANCH   4  15
BRANCH   1  22
ATOM     22  C   UNL     1      -2.891  10.832  15.453  0.00  0.00    +0.000 C 
BRANCH  22  24
ATOM     23  O   UNL     1      -4.503   9.850  13.977  0.00  0.00    +0.000 OA
ATOM     24  C   UNL     1      -3.330  10.106  14.207  0.00  0.00    +0.000 C 
BRANCH  24  25
ATOM     25  O   UNL     1      -2.357   9.862  13.303  0.00  0.00    +0.000 OA
ATOM     26  H   UNL     1      -2.281  10.525  12.583  0.00  0.00    +0.000 HD
ENDBRANCH  24  25
ENDBRANCH  22  24
ENDBRANCH   1  22
BRANCH   5  27
ATOM     27  C   UNL     1      -4.406  12.790  19.300  0.00  0.00    +0.000 C 
BRANCH  27  28
ATOM     28  C   UNL     1      -4.897  12.288  20.626  0.00  0.00    +0.000 C 
ATOM     29  C   UNL     1      -4.869  13.065  21.920  0.00  0.00    +0.000 C 
ATOM     30  C   UNL     1      -6.166  12.892  21.188  0.00  0.00    +0.000 C 
ENDBRANCH  27  28
ENDBRANCH   5  27
TORSDOF 7
ENDMDL
MODEL 8
REMARK VINA RESULT:      -6.6      6.056     10.116
REMARK  Name = 
REMARK  7 active torsions:
REMARK  status: ('A' for Active; 'I' for Inactive)
REMARK    1  A    between atoms: C_2  and  O_3
REMARK    2  A    between atoms: C_2  and  C_4
REMARK    3  A    between atoms: C_4  and  C_5
REMARK    4  A    between atoms: C_7  and  C_8
REMARK    5  A    between atoms: C_15  and  C_16
REMARK    6  A    between atoms: N_23  and  C_24
REMARK    7  A    between atoms: C_24  and  C_25
REMARK                            x       y       z     vdW  Elec       q    Type
REMARK                         _______ _______ _______ _____ _____    ______ ____
ROOT
ATOM      1  C   UNL     1      -3.404  10.234  16.790  0.00  0.00    +0.000 C 
ATOM      2  O   UNL     1      -2.241   9.686  17.404  0.00  0.00    +0.000 OA
ATOM      3  C   UNL     1      -1.430  10.678  18.050  0.00  0.00    +0.000 C 
ATOM      4  C   UNL     1      -2.233  11.531  19.090  0.00  0.00    +0.000 C 
ATOM      5  N   UNL     1      -3.606  11.883  18.653  0.00  0.00    +0.000 N 
ATOM      6  C   UNL     1      -4.270  11.148  17.677  0.00  0.00    +0.000 C 
ATOM      7  O   UNL     1      -5.470  11.282  17.439  0.00  0.00    +0.000 OA
ENDROOT
BRANCH   3   8
ATOM      8  C   UNL     1      -0.262   9.919  18.657  0.00  0.00    +0.000 A 
ATOM      9  C   UNL     1       0.749   9.402  17.831  0.00  0.00    +0.000 A 
ATOM     10  C   UNL     1       1.842   8.727  18.380  0.00  0.00    +0.000 A 
ATOM     11  C   UNL     1       1.939   8.559  19.759  0.00  0.00    +0.000 A 
ATOM     12  C   UNL     1       0.937   9.056  20.587  0.00  0.00    +0.000 A 
ATOM     13 CL   UNL     1       1.059   8.858  22.292  0.00  0.00    +0.000 Cl
ATOM     14  C   UNL     1      -0.161   9.725  20.046  0.00  0.00    +0.000 A 
ENDBRANCH   3   8
BRANCH   4  15
ATOM     15  C   UNL     1      -1.388  12.762  19.430  0.00  0.00    +0.000 A 
ATOM     16  C   UNL     1      -0.698  13.477  18.433  0.00  0.00    +0.000 A 
ATOM     17  C   UNL     1       0.122  14.557  18.769  0.00  0.00    +0.000 A 
ATOM     18  C   UNL     1       0.283  14.912  20.105  0.00  0.00    +0.000 A 
ATOM     19 CL   UNL     1       1.328  16.213  20.523  0.00  0.00    +0.000 Cl
ATOM     20  C   UNL     1      -0.387  14.214  21.106  0.00  0.00    +0.000 A 
ATOM     21  C   UNL     1      -1.227  13.149  20.770  0.00  0.00    +0.000 A 
ENDBRANCH   4  15
BRANCH   1  22
ATOM     22  C   UNL     1      -3.054  10.974  15.497  0.00  0.00    +0.000 C 
BRANCH  22  24
ATOM     23  O   UNL     1      -2.440   9.766  13.520  0.00  0.00    +0.000 OA
ATOM     24  C   UNL     1      -3.332  10.175  14.250  0.00  0.00    +0.000 C 
BRANCH  24  25
ATOM     25  O   UNL     1      -4.624   9.836  14.052  0.00  0.00    +0.000 OA
ATOM     26  H   UNL     1      -5.161  10.502  13.569  0.00  0.00    +0.000 HD
ENDBRANCH  24  25
ENDBRANCH  22  24
ENDBRANCH   1  22
BRANCH   5  27
ATOM     27  C   UNL     1      -4.402  12.810  19.465  0.00  0.00    +0.000 C 
BRANCH  27  28
ATOM     28  C   UNL     1      -4.826  12.268  20.798  0.00  0.00    +0.000 C 
ATOM     29  C   UNL     1      -4.740  13.008  22.111  0.00  0.00    +0.000 C 
ATOM     30  C   UNL     1      -6.070  12.847  21.437  0.00  0.00    +0.000 C 
ENDBRANCH  27  28
ENDBRANCH   5  27
TORSDOF 7
ENDMDL
MODEL 9
REMARK VINA RESULT:      -6.6      6.516      9.287
REMARK  Name = 
REMARK  7 active torsions:
REMARK  status: ('A' for Active; 'I' for Inactive)
REMARK    1  A    between atoms: C_2  and  O_3
REMARK    2  A    between atoms: C_2  and  C_4
REMARK    3  A    between atoms: C_4  and  C_5
REMARK    4  A    between atoms: C_7  and  C_8
REMARK    5  A    between atoms: C_15  and  C_16
REMARK    6  A    between atoms: N_23  and  C_24
REMARK    7  A    between atoms: C_24  and  C_25
REMARK                            x       y       z     vdW  Elec       q    Type
REMARK                         _______ _______ _______ _____ _____    ______ ____
ROOT
ATOM      1  C   UNL     1      -2.120  13.562  20.955  0.00  0.00    +0.000 C 
ATOM      2  O   UNL     1      -0.795  14.009  20.679  0.00  0.00    +0.000 OA
ATOM      3  C   UNL     1       0.112  12.931  20.407  0.00  0.00    +0.000 C 
ATOM      4  C   UNL     1      -0.389  11.996  19.255  0.00  0.00    +0.000 C 
ATOM      5  N   UNL     1      -1.848  11.731  19.280  0.00  0.00    +0.000 N 
ATOM      6  C   UNL     1      -2.730  12.584  19.934  0.00  0.00    +0.000 C 
ATOM      7  O   UNL     1      -3.952  12.511  19.804  0.00  0.00    +0.000 OA
ENDROOT
BRANCH   3   8
ATOM      8  C   UNL     1       1.452  13.588  20.120  0.00  0.00    +0.000 A 
ATOM      9  C   UNL     1       2.474  13.558  21.083  0.00  0.00    +0.000 A 
ATOM     10  C   UNL     1       3.719  14.134  20.820  0.00  0.00    +0.000 A 
ATOM     11  C   UNL     1       3.960  14.748  19.593  0.00  0.00    +0.000 A 
ATOM     12  C   UNL     1       2.951  14.795  18.635  0.00  0.00    +0.000 A 
ATOM     13 CL   UNL     1       3.248  15.545  17.115  0.00  0.00    +0.000 Cl
ATOM     14  C   UNL     1       1.703  14.228  18.893  0.00  0.00    +0.000 A 
ENDBRANCH   3   8
BRANCH   4  15
ATOM     15  C   UNL     1       0.445  10.713  19.304  0.00  0.00    +0.000 A 
ATOM     16  C   UNL     1       1.096  10.215  18.159  0.00  0.00    +0.000 A 
ATOM     17  C   UNL     1       1.797   9.008  18.206  0.00  0.00    +0.000 A 
ATOM     18  C   UNL     1       1.829   8.273  19.388  0.00  0.00    +0.000 A 
ATOM     19 CL   UNL     1       2.654   6.765  19.434  0.00  0.00    +0.000 Cl
ATOM     20  C   UNL     1       1.188   8.746  20.530  0.00  0.00    +0.000 A 
ATOM     21  C   UNL     1       0.506   9.965  20.492  0.00  0.00    +0.000 A 
ENDBRANCH   4  15
BRANCH   1  22
ATOM     22  C   UNL     1      -2.221  12.953  22.356  0.00  0.00    +0.000 C 
BRANCH  22  24
ATOM     23  O   UNL     1      -2.789  14.283  24.267  0.00  0.00    +0.000 OA
ATOM     24  C   UNL     1      -1.936  13.935  23.463  0.00  0.00    +0.000 C 
BRANCH  24  25
ATOM     25  O   UNL     1      -0.647  14.317  23.585  0.00  0.00    +0.000 OA
ATOM     26  H   UNL     1      -0.457  15.240  23.308  0.00  0.00    +0.000 HD
ENDBRANCH  24  25
ENDBRANCH  22  24
ENDBRANCH   1  22
BRANCH   5  27
ATOM     27  C   UNL     1      -2.414  10.746  18.353  0.00  0.00    +0.000 C 
BRANCH  27  28
ATOM     28  C   UNL     1      -2.433  11.179  16.916  0.00  0.00    +0.000 C 
ATOM     29  C   UNL     1      -2.581  10.260  15.728  0.00  0.00    +0.000 C 
ATOM     30  C   UNL     1      -3.746  11.097  16.167  0.00  0.00    +0.000 C 
ENDBRANCH  27  28
ENDBRANCH   5  27
TORSDOF 7
ENDMDL
