MODEL 1
REMARK VINA RESULT:      -8.8      0.000      0.000
REMARK  Name = 
REMARK  2 active torsions:
REMARK  status: ('A' for Active; 'I' for Inactive)
REMARK    1  A    between atoms: C_10  and  C_11
REMARK    2  A    between atoms: N_20  and  C_21
REMARK                            x       y       z     vdW  Elec       q    Type
REMARK                         _______ _______ _______ _____ _____    ______ ____
ROOT
ATOM      1  O   UNL     1       4.465   2.341  17.747  0.00  0.00    +0.000 OA
ATOM      2  C   UNL     1       4.019   3.472  17.935  0.00  0.00    +0.000 A 
ATOM      3  C   UNL     1       2.959   3.627  18.964  0.00  0.00    +0.000 A 
ATOM      4  C   UNL     1       2.546   2.479  19.661  0.00  0.00    +0.000 A 
ATOM      5  C   UNL     1       1.537   2.560  20.615  0.00  0.00    +0.000 A 
ATOM      6  C   UNL     1       0.894   3.775  20.825  0.00  0.00    +0.000 A 
ATOM      7  C   UNL     1       1.268   4.910  20.098  0.00  0.00    +0.000 A 
ATOM      8  C   UNL     1       2.348   4.863  19.213  0.00  0.00    +0.000 A 
ATOM      9  N   UNL     1       2.875   5.989  18.533  0.00  0.00    +0.000 N 
ATOM     10  C   UNL     1       2.660   7.366  18.626  0.00  0.00    +0.000 A 
ATOM     11  N   UNL     1       3.371   7.952  17.674  0.00  0.00    +0.000 NA
ATOM     12  N   UNL     1       4.098   7.012  17.009  0.00  0.00    +0.000 NA
ATOM     13  C   UNL     1       3.823   5.837  17.530  0.00  0.00    +0.000 A 
ATOM     14  N   UNL     1       4.382   4.605  17.211  0.00  0.00    +0.000 N 
ENDROOT
BRANCH  10  15
ATOM     15  C   UNL     1       1.798   8.135  19.532  0.00  0.00    +0.000 A 
ATOM     16  C   UNL     1       1.684   7.880  20.900  0.00  0.00    +0.000 A 
ATOM     17  C   UNL     1       0.724   8.547  21.675  0.00  0.00    +0.000 A 
ATOM     18  C   UNL     1      -0.049   9.561  21.114  0.00  0.00    +0.000 A 
ATOM     19  C   UNL     1       0.151   9.925  19.787  0.00  0.00    +0.000 A 
ATOM     20  C   UNL     1       1.059   9.214  19.001  0.00  0.00    +0.000 A 
ENDBRANCH  10  15
BRANCH  14  21
ATOM     21  C   UNL     1       5.323   4.525  16.144  0.00  0.00    +0.000 A 
ATOM     22  C   UNL     1       6.660   4.910  16.320  0.00  0.00    +0.000 A 
ATOM     23  C   UNL     1       7.530   4.977  15.226  0.00  0.00    +0.000 A 
ATOM     24  C   UNL     1       7.085   4.623  13.952  0.00  0.00    +0.000 A 
ATOM     25  C   UNL     1       5.772   4.200  13.770  0.00  0.00    +0.000 A 
ATOM     26  C   UNL     1       4.896   4.164  14.856  0.00  0.00    +0.000 A 
ENDBRANCH  14  21
TORSDOF 2
ENDMDL
MODEL 2
REMARK VINA RESULT:      -8.3      0.349      1.372
REMARK  Name = 
REMARK  2 active torsions:
REMARK  status: ('A' for Active; 'I' for Inactive)
REMARK    1  A    between atoms: C_10  and  C_11
REMARK    2  A    between atoms: N_20  and  C_21
REMARK                            x       y       z     vdW  Elec       q    Type
REMARK                         _______ _______ _______ _____ _____    ______ ____
ROOT
ATOM      1  O   UNL     1       4.596   2.650  17.908  0.00  0.00    +0.000 OA
ATOM      2  C   UNL     1       4.079   3.750  18.098  0.00  0.00    +0.000 A 
ATOM      3  C   UNL     1       3.032   3.841  19.148  0.00  0.00    +0.000 A 
ATOM      4  C   UNL     1       2.712   2.671  19.860  0.00  0.00    +0.000 A 
ATOM      5  C   UNL     1       1.719   2.691  20.834  0.00  0.00    +0.000 A 
ATOM      6  C   UNL     1       1.000   3.861  21.050  0.00  0.00    +0.000 A 
ATOM      7  C   UNL     1       1.281   5.014  20.310  0.00  0.00    +0.000 A 
ATOM      8  C   UNL     1       2.344   5.034  19.404  0.00  0.00    +0.000 A 
ATOM      9  N   UNL     1       2.780   6.188  18.706  0.00  0.00    +0.000 N 
ATOM     10  C   UNL     1       2.474   7.548  18.796  0.00  0.00    +0.000 A 
ATOM     11  N   UNL     1       3.125   8.175  17.827  0.00  0.00    +0.000 NA
ATOM     12  N   UNL     1       3.900   7.281  17.152  0.00  0.00    +0.000 NA
ATOM     13  C   UNL     1       3.716   6.094  17.685  0.00  0.00    +0.000 A 
ATOM     14  N   UNL     1       4.350   4.899  17.362  0.00  0.00    +0.000 N 
ENDROOT
BRANCH  10  15
ATOM     15  C   UNL     1       1.581   8.263  19.716  0.00  0.00    +0.000 A 
ATOM     16  C   UNL     1       0.592   9.157  19.302  0.00  0.00    +0.000 A 
ATOM     17  C   UNL     1      -0.116   9.926  20.238  0.00  0.00    +0.000 A 
ATOM     18  C   UNL     1       0.075   9.721  21.602  0.00  0.00    +0.000 A 
ATOM     19  C   UNL     1       0.956   8.734  22.033  0.00  0.00    +0.000 A 
ATOM     20  C   UNL     1       1.708   8.018  21.101  0.00  0.00    +0.000 A 
ENDBRANCH  10  15
BRANCH  14  21
ATOM     21  C   UNL     1       5.273   4.876  16.276  0.00  0.00    +0.000 A 
ATOM     22  C   UNL     1       4.884   4.455  14.996  0.00  0.00    +0.000 A 
ATOM     23  C   UNL     1       5.835   4.287  13.984  0.00  0.00    +0.000 A 
ATOM     24  C   UNL     1       7.178   4.574  14.226  0.00  0.00    +0.000 A 
ATOM     25  C   UNL     1       7.572   5.032  15.480  0.00  0.00    +0.000 A 
ATOM     26  C   UNL     1       6.628   5.170  16.499  0.00  0.00    +0.000 A 
ENDBRANCH  14  21
TORSDOF 2
ENDMDL
MODEL 3
REMARK VINA RESULT:      -8.3      5.058     10.169
REMARK  Name = 
REMARK  2 active torsions:
REMARK  status: ('A' for Active; 'I' for Inactive)
REMARK    1  A    between atoms: C_10  and  C_11
REMARK    2  A    between atoms: N_20  and  C_21
REMARK                            x       y       z     vdW  Elec       q    Type
REMARK                         _______ _______ _______ _____ _____    ______ ____
ROOT
ATOM      1  O   UNL     1      -3.896  13.210  20.133  0.00  0.00    +0.000 OA
ATOM      2  C   UNL     1      -2.926  12.456  20.213  0.00  0.00    +0.000 A 
ATOM      3  C   UNL     1      -2.609  11.622  19.025  0.00  0.00    +0.000 A 
ATOM      4  C   UNL     1      -3.425  11.758  17.889  0.00  0.00    +0.000 A 
ATOM      5  C   UNL     1      -3.192  10.982  16.759  0.00  0.00    +0.000 A 
ATOM      6  C   UNL     1      -2.186  10.023  16.787  0.00  0.00    +0.000 A 
ATOM      7  C   UNL     1      -1.403   9.850  17.933  0.00  0.00    +0.000 A 
ATOM      8  C   UNL     1      -1.561  10.693  19.035  0.00  0.00    +0.000 A 
ATOM      9  N   UNL     1      -0.731  10.674  20.183  0.00  0.00    +0.000 N 
ATOM     10  C   UNL     1       0.469  10.033  20.501  0.00  0.00    +0.000 A 
ATOM     11  N   UNL     1       0.755  10.312  21.765  0.00  0.00    +0.000 NA
ATOM     12  N   UNL     1      -0.179  11.169  22.261  0.00  0.00    +0.000 NA
ATOM     13  C   UNL     1      -1.060  11.408  21.315  0.00  0.00    +0.000 A 
ATOM     14  N   UNL     1      -2.147  12.275  21.351  0.00  0.00    +0.000 N 
ENDROOT
BRANCH  10  15
ATOM     15  C   UNL     1       1.322   9.154  19.692  0.00  0.00    +0.000 A 
ATOM     16  C   UNL     1       1.798   9.486  18.423  0.00  0.00    +0.000 A 
ATOM     17  C   UNL     1       2.472   8.537  17.639  0.00  0.00    +0.000 A 
ATOM     18  C   UNL     1       2.781   7.286  18.166  0.00  0.00    +0.000 A 
ATOM     19  C   UNL     1       2.437   6.988  19.480  0.00  0.00    +0.000 A 
ATOM     20  C   UNL     1       1.708   7.908  20.233  0.00  0.00    +0.000 A 
ENDBRANCH  10  15
BRANCH  14  21
ATOM     21  C   UNL     1      -2.441  12.966  22.562  0.00  0.00    +0.000 A 
ATOM     22  C   UNL     1      -3.398  12.481  23.465  0.00  0.00    +0.000 A 
ATOM     23  C   UNL     1      -3.788  13.250  24.567  0.00  0.00    +0.000 A 
ATOM     24  C   UNL     1      -3.202  14.494  24.800  0.00  0.00    +0.000 A 
ATOM     25  C   UNL     1      -2.222  14.970  23.935  0.00  0.00    +0.000 A 
ATOM     26  C   UNL     1      -1.854  14.216  22.818  0.00  0.00    +0.000 A 
ENDBRANCH  14  21
TORSDOF 2
ENDMDL
MODEL 4
REMARK VINA RESULT:      -8.1      5.253     10.314
REMARK  Name = 
REMARK  2 active torsions:
REMARK  status: ('A' for Active; 'I' for Inactive)
REMARK    1  A    between atoms: C_10  and  C_11
REMARK    2  A    between atoms: N_20  and  C_21
REMARK                            x       y       z     vdW  Elec       q    Type
REMARK                         _______ _______ _______ _____ _____    ______ ____
ROOT
ATOM      1  O   UNL     1      -4.215  13.344  20.071  0.00  0.00    +0.000 OA
ATOM      2  C   UNL     1      -3.217  12.631  20.167  0.00  0.00    +0.000 A 
ATOM      3  C   UNL     1      -2.903  11.735  19.025  0.00  0.00    +0.000 A 
ATOM      4  C   UNL     1      -3.756  11.769  17.908  0.00  0.00    +0.000 A 
ATOM      5  C   UNL     1      -3.527  10.931  16.823  0.00  0.00    +0.000 A 
ATOM      6  C   UNL     1      -2.486  10.012  16.879  0.00  0.00    +0.000 A 
ATOM      7  C   UNL     1      -1.664   9.939  18.009  0.00  0.00    +0.000 A 
ATOM      8  C   UNL     1      -1.821  10.845  19.060  0.00  0.00    +0.000 A 
ATOM      9  N   UNL     1      -0.959  10.928  20.181  0.00  0.00    +0.000 N 
ATOM     10  C   UNL     1       0.273  10.351  20.501  0.00  0.00    +0.000 A 
ATOM     11  N   UNL     1       0.584  10.720  21.736  0.00  0.00    +0.000 NA
ATOM     12  N   UNL     1      -0.366  11.575  22.205  0.00  0.00    +0.000 NA
ATOM     13  C   UNL     1      -1.282  11.722  21.274  0.00  0.00    +0.000 A 
ATOM     14  N   UNL     1      -2.398  12.550  21.290  0.00  0.00    +0.000 N 
ENDROOT
BRANCH  10  15
ATOM     15  C   UNL     1       1.134   9.453  19.722  0.00  0.00    +0.000 A 
ATOM     16  C   UNL     1       1.606   9.745  18.442  0.00  0.00    +0.000 A 
ATOM     17  C   UNL     1       2.289   8.776  17.692  0.00  0.00    +0.000 A 
ATOM     18  C   UNL     1       2.611   7.547  18.262  0.00  0.00    +0.000 A 
ATOM     19  C   UNL     1       2.271   7.292  19.586  0.00  0.00    +0.000 A 
ATOM     20  C   UNL     1       1.533   8.231  20.307  0.00  0.00    +0.000 A 
ENDBRANCH  10  15
BRANCH  14  21
ATOM     21  C   UNL     1      -2.683  13.307  22.464  0.00  0.00    +0.000 A 
ATOM     22  C   UNL     1      -2.087  14.556  22.689  0.00  0.00    +0.000 A 
ATOM     23  C   UNL     1      -2.253  15.211  23.914  0.00  0.00    +0.000 A 
ATOM     24  C   UNL     1      -3.045  14.645  24.913  0.00  0.00    +0.000 A 
ATOM     25  C   UNL     1      -3.675  13.425  24.688  0.00  0.00    +0.000 A 
ATOM     26  C   UNL     1      -3.485  12.757  23.477  0.00  0.00    +0.000 A 
ENDBRANCH  14  21
TORSDOF 2
ENDMDL
MODEL 5
REMARK VINA RESULT:      -7.9      4.879      9.924
REMARK  Name = 
REMARK  2 active torsions:
REMARK  status: ('A' for Active; 'I' for Inactive)
REMARK    1  A    between atoms: C_10  and  C_11
REMARK    2  A    between atoms: N_20  and  C_21
REMARK                            x       y       z     vdW  Elec       q    Type
REMARK                         _______ _______ _______ _____ _____    ______ ____
ROOT
ATOM      1  O   UNL     1      -3.388  13.299  20.097  0.00  0.00    +0.000 OA
ATOM      2  C   UNL     1      -2.498  12.456  20.199  0.00  0.00    +0.000 A 
ATOM      3  C   UNL     1      -2.257  11.571  19.030  0.00  0.00    +0.000 A 
ATOM      4  C   UNL     1      -3.050  11.763  17.885  0.00  0.00    +0.000 A 
ATOM      5  C   UNL     1      -2.888  10.945  16.773  0.00  0.00    +0.000 A 
ATOM      6  C   UNL     1      -1.981   9.893  16.827  0.00  0.00    +0.000 A 
ATOM      7  C   UNL     1      -1.225   9.667  17.982  0.00  0.00    +0.000 A 
ATOM      8  C   UNL     1      -1.305  10.544  19.065  0.00  0.00    +0.000 A 
ATOM      9  N   UNL     1      -0.488  10.467  20.220  0.00  0.00    +0.000 N 
ATOM     10  C   UNL     1       0.642   9.718  20.560  0.00  0.00    +0.000 A 
ATOM     11  N   UNL     1       0.947   9.993  21.820  0.00  0.00    +0.000 NA
ATOM     12  N   UNL     1       0.098  10.948  22.292  0.00  0.00    +0.000 NA
ATOM     13  C   UNL     1      -0.749  11.253  21.335  0.00  0.00    +0.000 A 
ATOM     14  N   UNL     1      -1.746  12.222  21.346  0.00  0.00    +0.000 N 
ENDROOT
BRANCH  10  15
ATOM     15  C   UNL     1       1.409   8.743  19.774  0.00  0.00    +0.000 A 
ATOM     16  C   UNL     1       1.750   7.470  20.233  0.00  0.00    +0.000 A 
ATOM     17  C   UNL     1       2.619   6.652  19.497  0.00  0.00    +0.000 A 
ATOM     18  C   UNL     1       3.059   7.052  18.238  0.00  0.00    +0.000 A 
ATOM     19  C   UNL     1       2.616   8.257  17.704  0.00  0.00    +0.000 A 
ATOM     20  C   UNL     1       1.806   9.099  18.467  0.00  0.00    +0.000 A 
ENDBRANCH  10  15
BRANCH  14  21
ATOM     21  C   UNL     1      -1.978  12.964  22.541  0.00  0.00    +0.000 A 
ATOM     22  C   UNL     1      -3.071  12.684  23.373  0.00  0.00    +0.000 A 
ATOM     23  C   UNL     1      -3.374  13.520  24.453  0.00  0.00    +0.000 A 
ATOM     24  C   UNL     1      -2.568  14.622  24.737  0.00  0.00    +0.000 A 
ATOM     25  C   UNL     1      -1.456  14.889  23.944  0.00  0.00    +0.000 A 
ATOM     26  C   UNL     1      -1.172  14.072  22.848  0.00  0.00    +0.000 A 
ENDBRANCH  14  21
TORSDOF 2
ENDMDL
MODEL 6
REMARK VINA RESULT:      -7.7      1.345      6.428
REMARK  Name = 
REMARK  2 active torsions:
REMARK  status: ('A' for Active; 'I' for Inactive)
REMARK    1  A    between atoms: C_10  and  C_11
REMARK    2  A    between atoms: N_20  and  C_21
REMARK                            x       y       z     vdW  Elec       q    Type
REMARK                         _______ _______ _______ _____ _____    ______ ____
ROOT
ATOM      1  O   UNL     1       0.920   5.146  20.538  0.00  0.00    +0.000 OA
ATOM      2  C   UNL     1       1.793   5.329  19.691  0.00  0.00    +0.000 A 
ATOM      3  C   UNL     1       2.400   4.127  19.064  0.00  0.00    +0.000 A 
ATOM      4  C   UNL     1       1.929   2.865  19.469  0.00  0.00    +0.000 A 
ATOM      5  C   UNL     1       2.481   1.705  18.938  0.00  0.00    +0.000 A 
ATOM      6  C   UNL     1       3.547   1.802  18.051  0.00  0.00    +0.000 A 
ATOM      7  C   UNL     1       4.052   3.053  17.682  0.00  0.00    +0.000 A 
ATOM      8  C   UNL     1       3.439   4.226  18.130  0.00  0.00    +0.000 A 
ATOM      9  N   UNL     1       3.801   5.530  17.709  0.00  0.00    +0.000 N 
ATOM     10  C   UNL     1       4.643   6.027  16.712  0.00  0.00    +0.000 A 
ATOM     11  N   UNL     1       4.669   7.348  16.825  0.00  0.00    +0.000 NA
ATOM     12  N   UNL     1       3.817   7.733  17.815  0.00  0.00    +0.000 NA
ATOM     13  C   UNL     1       3.278   6.653  18.335  0.00  0.00    +0.000 A 
ATOM     14  N   UNL     1       2.303   6.571  19.324  0.00  0.00    +0.000 N 
ENDROOT
BRANCH  10  15
ATOM     15  C   UNL     1       5.441   5.322  15.701  0.00  0.00    +0.000 A 
ATOM     16  C   UNL     1       6.836   5.316  15.676  0.00  0.00    +0.000 A 
ATOM     17  C   UNL     1       7.531   4.758  14.593  0.00  0.00    +0.000 A 
ATOM     18  C   UNL     1       6.839   4.095  13.583  0.00  0.00    +0.000 A 
ATOM     19  C   UNL     1       5.456   3.969  13.664  0.00  0.00    +0.000 A 
ATOM     20  C   UNL     1       4.763   4.583  14.707  0.00  0.00    +0.000 A 
ENDBRANCH  10  15
BRANCH  14  21
ATOM     21  C   UNL     1       1.843   7.768  19.944  0.00  0.00    +0.000 A 
ATOM     22  C   UNL     1       1.745   7.876  21.339  0.00  0.00    +0.000 A 
ATOM     23  C   UNL     1       1.143   8.996  21.924  0.00  0.00    +0.000 A 
ATOM     24  C   UNL     1       0.667  10.036  21.126  0.00  0.00    +0.000 A 
ATOM     25  C   UNL     1       0.794   9.960  19.743  0.00  0.00    +0.000 A 
ATOM     26  C   UNL     1       1.366   8.829  19.157  0.00  0.00    +0.000 A 
ENDBRANCH  14  21
TORSDOF 2
ENDMDL
MODEL 7
REMARK VINA RESULT:      -7.7      5.211     10.220
REMARK  Name = 
REMARK  2 active torsions:
REMARK  status: ('A' for Active; 'I' for Inactive)
REMARK    1  A    between atoms: C_10  and  C_11
REMARK    2  A    between atoms: N_20  and  C_21
REMARK                            x       y       z     vdW  Elec       q    Type
REMARK                         _______ _______ _______ _____ _____    ______ ____
ROOT
ATOM      1  O   UNL     1      -3.872  13.589  20.224  0.00  0.00    +0.000 OA
ATOM      2  C   UNL     1      -2.931  12.801  20.307  0.00  0.00    +0.000 A 
ATOM      3  C   UNL     1      -2.735  11.850  19.183  0.00  0.00    +0.000 A 
ATOM      4  C   UNL     1      -3.626  11.921  18.098  0.00  0.00    +0.000 A 
ATOM      5  C   UNL     1      -3.507  11.037  17.031  0.00  0.00    +0.000 A 
ATOM      6  C   UNL     1      -2.542  10.038  17.079  0.00  0.00    +0.000 A 
ATOM      7  C   UNL     1      -1.685   9.931  18.179  0.00  0.00    +0.000 A 
ATOM      8  C   UNL     1      -1.727  10.876  19.206  0.00  0.00    +0.000 A 
ATOM      9  N   UNL     1      -0.818  10.921  20.292  0.00  0.00    +0.000 N 
ATOM     10  C   UNL     1       0.375  10.255  20.585  0.00  0.00    +0.000 A 
ATOM     11  N   UNL     1       0.763  10.633  21.795  0.00  0.00    +0.000 NA
ATOM     12  N   UNL     1      -0.097  11.575  22.272  0.00  0.00    +0.000 NA
ATOM     13  C   UNL     1      -1.033  11.769  21.371  0.00  0.00    +0.000 A 
ATOM     14  N   UNL     1      -2.079  12.686  21.401  0.00  0.00    +0.000 N 
ENDROOT
BRANCH  10  15
ATOM     15  C   UNL     1       1.130   9.268  19.804  0.00  0.00    +0.000 A 
ATOM     16  C   UNL     1       1.494   8.009  20.285  0.00  0.00    +0.000 A 
ATOM     17  C   UNL     1       2.352   7.181  19.546  0.00  0.00    +0.000 A 
ATOM     18  C   UNL     1       2.756   7.553  18.267  0.00  0.00    +0.000 A 
ATOM     19  C   UNL     1       2.288   8.741  17.715  0.00  0.00    +0.000 A 
ATOM     20  C   UNL     1       1.490   9.594  18.478  0.00  0.00    +0.000 A 
ENDBRANCH  10  15
BRANCH  14  21
ATOM     21  C   UNL     1      -2.256  13.496  22.560  0.00  0.00    +0.000 A 
ATOM     22  C   UNL     1      -1.419  14.591  22.819  0.00  0.00    +0.000 A 
ATOM     23  C   UNL     1      -1.505  15.278  24.036  0.00  0.00    +0.000 A 
ATOM     24  C   UNL     1      -2.450  14.903  24.989  0.00  0.00    +0.000 A 
ATOM     25  C   UNL     1      -3.314  13.844  24.729  0.00  0.00    +0.000 A 
ATOM     26  C   UNL     1      -3.208  13.139  23.528  0.00  0.00    +0.000 A 
ENDBRANCH  14  21
TORSDOF 2
ENDMDL
MODEL 8
REMARK VINA RESULT:      -7.5      2.811      5.322
REMARK  Name = 
REMARK  2 active torsions:
REMARK  status: ('A' for Active; 'I' for Inactive)
REMARK    1  A    between atoms: C_10  and  C_11
REMARK    2  A    between atoms: N_20  and  C_21
REMARK                            x       y       z     vdW  Elec       q    Type
REMARK                         _______ _______ _______ _____ _____    ______ ____
ROOT
ATOM      1  O   UNL     1       1.451   6.433  21.215  0.00  0.00    +0.000 OA
ATOM      2  C   UNL     1       1.462   7.490  20.585  0.00  0.00    +0.000 A 
ATOM      3  C   UNL     1       0.829   8.673  21.224  0.00  0.00    +0.000 A 
ATOM      4  C   UNL     1       0.274   8.510  22.505  0.00  0.00    +0.000 A 
ATOM      5  C   UNL     1      -0.356   9.576  23.139  0.00  0.00    +0.000 A 
ATOM      6  C   UNL     1      -0.491  10.785  22.466  0.00  0.00    +0.000 A 
ATOM      7  C   UNL     1       0.015  10.937  21.171  0.00  0.00    +0.000 A 
ATOM      8  C   UNL     1       0.739   9.907  20.567  0.00  0.00    +0.000 A 
ATOM      9  N   UNL     1       1.395  10.017  19.315  0.00  0.00    +0.000 N 
ATOM     10  C   UNL     1       1.668  11.082  18.454  0.00  0.00    +0.000 A 
ATOM     11  N   UNL     1       2.244  10.588  17.367  0.00  0.00    +0.000 NA
ATOM     12  N   UNL     1       2.420   9.246  17.520  0.00  0.00    +0.000 NA
ATOM     13  C   UNL     1       1.935   8.900  18.691  0.00  0.00    +0.000 A 
ATOM     14  N   UNL     1       1.958   7.647  19.294  0.00  0.00    +0.000 N 
ENDROOT
BRANCH  10  15
ATOM     15  C   UNL     1       1.380  12.515  18.593  0.00  0.00    +0.000 A 
ATOM     16  C   UNL     1       2.352  13.482  18.855  0.00  0.00    +0.000 A 
ATOM     17  C   UNL     1       1.987  14.807  19.135  0.00  0.00    +0.000 A 
ATOM     18  C   UNL     1       0.656  15.203  19.036  0.00  0.00    +0.000 A 
ATOM     19  C   UNL     1      -0.309  14.284  18.638  0.00  0.00    +0.000 A 
ATOM     20  C   UNL     1       0.048  12.951  18.426  0.00  0.00    +0.000 A 
ENDBRANCH  10  15
BRANCH  14  21
ATOM     21  C   UNL     1       2.497   6.541  18.574  0.00  0.00    +0.000 A 
ATOM     22  C   UNL     1       1.678   5.498  18.120  0.00  0.00    +0.000 A 
ATOM     23  C   UNL     1       2.240   4.347  17.556  0.00  0.00    +0.000 A 
ATOM     24  C   UNL     1       3.622   4.242  17.406  0.00  0.00    +0.000 A 
ATOM     25  C   UNL     1       4.445   5.287  17.816  0.00  0.00    +0.000 A 
ATOM     26  C   UNL     1       3.886   6.422  18.406  0.00  0.00    +0.000 A 
ENDBRANCH  14  21
TORSDOF 2
ENDMDL
MODEL 9
REMARK VINA RESULT:      -7.3      5.340      8.817
REMARK  Name = 
REMARK  2 active torsions:
REMARK  status: ('A' for Active; 'I' for Inactive)
REMARK    1  A    between atoms: C_10  and  C_11
REMARK    2  A    between atoms: N_20  and  C_21
REMARK                            x       y       z     vdW  Elec       q    Type
REMARK                         _______ _______ _______ _____ _____    ______ ____
ROOT
ATOM      1  O   UNL     1       1.078  12.107  20.900  0.00  0.00    +0.000 OA
ATOM      2  C   UNL     1      -0.002  11.867  20.359  0.00  0.00    +0.000 A 
ATOM      3  C   UNL     1      -1.137  12.775  20.667  0.00  0.00    +0.000 A 
ATOM      4  C   UNL     1      -0.900  13.851  21.540  0.00  0.00    +0.000 A 
ATOM      5  C   UNL     1      -1.933  14.715  21.885  0.00  0.00    +0.000 A 
ATOM      6  C   UNL     1      -3.217  14.467  21.413  0.00  0.00    +0.000 A 
ATOM      7  C   UNL     1      -3.467  13.369  20.583  0.00  0.00    +0.000 A 
ATOM      8  C   UNL     1      -2.419  12.555  20.147  0.00  0.00    +0.000 A 
ATOM      9  N   UNL     1      -2.559  11.502  19.209  0.00  0.00    +0.000 N 
ATOM     10  C   UNL     1      -3.596  11.082  18.373  0.00  0.00    +0.000 A 
ATOM     11  N   UNL     1      -3.200   9.974  17.762  0.00  0.00    +0.000 NA
ATOM     12  N   UNL     1      -1.915   9.697  18.117  0.00  0.00    +0.000 NA
ATOM     13  C   UNL     1      -1.517  10.618  18.966  0.00  0.00    +0.000 A 
ATOM     14  N   UNL     1      -0.259  10.773  19.538  0.00  0.00    +0.000 N 
ENDROOT
BRANCH  10  15
ATOM     15  C   UNL     1      -4.934  11.647  18.157  0.00  0.00    +0.000 A 
ATOM     16  C   UNL     1      -5.293  12.388  17.030  0.00  0.00    +0.000 A 
ATOM     17  C   UNL     1      -6.536  13.034  16.964  0.00  0.00    +0.000 A 
ATOM     18  C   UNL     1      -7.479  12.845  17.971  0.00  0.00    +0.000 A 
ATOM     19  C   UNL     1      -7.190  11.995  19.034  0.00  0.00    +0.000 A 
ATOM     20  C   UNL     1      -5.928  11.409  19.131  0.00  0.00    +0.000 A 
ENDBRANCH  10  15
BRANCH  14  21
ATOM     21  C   UNL     1       0.749   9.803  19.268  0.00  0.00    +0.000 A 
ATOM     22  C   UNL     1       1.392   9.746  18.024  0.00  0.00    +0.000 A 
ATOM     23  C   UNL     1       2.263   8.692  17.721  0.00  0.00    +0.000 A 
ATOM     24  C   UNL     1       2.529   7.706  18.671  0.00  0.00    +0.000 A 
ATOM     25  C   UNL     1       1.929   7.772  19.924  0.00  0.00    +0.000 A 
ATOM     26  C   UNL     1       1.037   8.806  20.215  0.00  0.00    +0.000 A 
ENDBRANCH  14  21
TORSDOF 2
ENDMDL
