MODEL 1
REMARK VINA RESULT:      -7.2      0.000      0.000
REMARK  Name = 
REMARK  6 active torsions:
REMARK  status: ('A' for Active; 'I' for Inactive)
REMARK    1  A    between atoms: C_1  and  C_2
REMARK    2  A    between atoms: C_4  and  C_5
REMARK    3  A    between atoms: C_6  and  S_7
REMARK    4  A    between atoms: S_7  and  N_8
REMARK    5  A    between atoms: C_11  and  C_12
REMARK    6  A    between atoms: N_14  and  C_15
REMARK                            x       y       z     vdW  Elec       q    Type
REMARK                         _______ _______ _______ _____ _____    ______ ____
ROOT
ATOM      1  C   UNL     1       3.790   7.469  17.438  0.00  0.00    +0.000 C 
ATOM      2  C   UNL     1       3.533   6.171  18.110  0.00  0.00    +0.000 A 
ATOM      3  O   UNL     1       2.575   6.196  19.069  0.00  0.00    +0.000 OA
ATOM      4  C   UNL     1       2.442   4.932  19.548  0.00  0.00    +0.000 A 
ATOM      5  C   UNL     1       1.405   4.760  20.589  0.00  0.00    +0.000 C 
ATOM      6  C   UNL     1       3.326   4.092  18.900  0.00  0.00    +0.000 A 
ATOM      7  C   UNL     1       4.064   4.893  17.966  0.00  0.00    +0.000 A 
ENDROOT
BRANCH   7   8
ATOM      8  C   UNL     1       5.088   4.584  16.970  0.00  0.00    +0.000 C 
ATOM      9  O   UNL     1       6.185   4.188  17.349  0.00  0.00    +0.000 OA
ATOM     10  N   UNL     1       4.764   4.800  15.639  0.00  0.00    +0.000 N 
ATOM     11  H   UNL     1       3.829   5.124  15.401  0.00  0.00    +0.000 HD
BRANCH  10  12
ATOM     12  C   UNL     1       5.619   4.575  14.531  0.00  0.00    +0.000 A 
ATOM     13  C   UNL     1       6.873   5.175  14.387  0.00  0.00    +0.000 A 
ATOM     14  C   UNL     1       7.667   4.922  13.266  0.00  0.00    +0.000 A 
ATOM     15  C   UNL     1       7.210   4.072  12.264  0.00  0.00    +0.000 A 
ATOM     16  C   UNL     1       5.967   3.456  12.398  0.00  0.00    +0.000 A 
ATOM     17  C   UNL     1       5.181   3.692  13.533  0.00  0.00    +0.000 A 
ENDBRANCH  10  12
ENDBRANCH   7   8
BRANCH   6  18
ATOM     18  S   UNL     1       3.449   2.395  19.134  0.00  0.00    +0.000 S 
ATOM     19  O   UNL     1       2.596   2.151  20.275  0.00  0.00    +0.000 OA
ATOM     20  O   UNL     1       3.249   1.789  17.845  0.00  0.00    +0.000 OA
BRANCH  18  21
ATOM     21  N   UNL     1       5.009   2.060  19.620  0.00  0.00    +0.000 NA
ATOM     22  H   UNL     1       5.738   2.470  19.038  0.00  0.00    +0.000 HD
ATOM     23  H   UNL     1       5.155   1.094  19.907  0.00  0.00    +0.000 HD
ENDBRANCH  18  21
ENDBRANCH   6  18
TORSDOF 4
ENDMDL
MODEL 2
REMARK VINA RESULT:      -7.1      0.740      1.366
REMARK  Name = 
REMARK  6 active torsions:
REMARK  status: ('A' for Active; 'I' for Inactive)
REMARK    1  A    between atoms: C_1  and  C_2
REMARK    2  A    between atoms: C_4  and  C_5
REMARK    3  A    between atoms: C_6  and  S_7
REMARK    4  A    between atoms: S_7  and  N_8
REMARK    5  A    between atoms: C_11  and  C_12
REMARK    6  A    between atoms: N_14  and  C_15
REMARK                            x       y       z     vdW  Elec       q    Type
REMARK                         _______ _______ _______ _____ _____    ______ ____
ROOT
ATOM      1  C   UNL     1       4.037   7.398  17.427  0.00  0.00    +0.000 C 
ATOM      2  C   UNL     1       3.808   6.121  18.147  0.00  0.00    +0.000 A 
ATOM      3  O   UNL     1       2.932   6.188  19.180  0.00  0.00    +0.000 OA
ATOM      4  C   UNL     1       2.813   4.938  19.697  0.00  0.00    +0.000 A 
ATOM      5  C   UNL     1       1.861   4.812  20.822  0.00  0.00    +0.000 C 
ATOM      6  C   UNL     1       3.622   4.064  18.998  0.00  0.00    +0.000 A 
ATOM      7  C   UNL     1       4.297   4.828  17.989  0.00  0.00    +0.000 A 
ENDROOT
BRANCH   7   8
ATOM      8  C   UNL     1       5.230   4.474  16.920  0.00  0.00    +0.000 C 
ATOM      9  O   UNL     1       6.321   4.002  17.216  0.00  0.00    +0.000 OA
ATOM     10  N   UNL     1       4.831   4.737  15.618  0.00  0.00    +0.000 N 
ATOM     11  H   UNL     1       3.904   5.124  15.450  0.00  0.00    +0.000 HD
BRANCH  10  12
ATOM     12  C   UNL     1       5.592   4.479  14.450  0.00  0.00    +0.000 A 
ATOM     13  C   UNL     1       5.183   3.605  13.439  0.00  0.00    +0.000 A 
ATOM     14  C   UNL     1       5.982   3.383  12.315  0.00  0.00    +0.000 A 
ATOM     15  C   UNL     1       7.210   4.023  12.193  0.00  0.00    +0.000 A 
ATOM     16  C   UNL     1       7.627   4.907  13.187  0.00  0.00    +0.000 A 
ATOM     17  C   UNL     1       6.815   5.148  14.303  0.00  0.00    +0.000 A 
ENDBRANCH  10  12
ENDBRANCH   7   8
BRANCH   6  18
ATOM     18  S   UNL     1       3.727   2.370  19.260  0.00  0.00    +0.000 S 
ATOM     19  O   UNL     1       4.856   2.238  20.152  0.00  0.00    +0.000 OA
ATOM     20  O   UNL     1       2.398   1.924  19.585  0.00  0.00    +0.000 OA
BRANCH  18  21
ATOM     21  N   UNL     1       4.167   1.658  17.818  0.00  0.00    +0.000 NA
ATOM     22  H   UNL     1       3.391   1.326  17.247  0.00  0.00    +0.000 HD
ATOM     23  H   UNL     1       4.968   1.033  17.892  0.00  0.00    +0.000 HD
ENDBRANCH  18  21
ENDBRANCH   6  18
TORSDOF 4
ENDMDL
MODEL 3
REMARK VINA RESULT:      -7.1      3.645      6.376
REMARK  Name = 
REMARK  6 active torsions:
REMARK  status: ('A' for Active; 'I' for Inactive)
REMARK    1  A    between atoms: C_1  and  C_2
REMARK    2  A    between atoms: C_4  and  C_5
REMARK    3  A    between atoms: C_6  and  S_7
REMARK    4  A    between atoms: S_7  and  N_8
REMARK    5  A    between atoms: C_11  and  C_12
REMARK    6  A    between atoms: N_14  and  C_15
REMARK                            x       y       z     vdW  Elec       q    Type
REMARK                         _______ _______ _______ _____ _____    ______ ____
ROOT
ATOM      1  C   UNL     1       5.676   5.870  18.241  0.00  0.00    +0.000 C 
ATOM      2  C   UNL     1       4.790   4.884  18.908  0.00  0.00    +0.000 A 
ATOM      3  O   UNL     1       5.383   3.715  19.254  0.00  0.00    +0.000 OA
ATOM      4  C   UNL     1       4.449   2.953  19.881  0.00  0.00    +0.000 A 
ATOM      5  C   UNL     1       4.932   1.641  20.365  0.00  0.00    +0.000 C 
ATOM      6  C   UNL     1       3.248   3.632  19.930  0.00  0.00    +0.000 A 
ATOM      7  C   UNL     1       3.449   4.895  19.279  0.00  0.00    +0.000 A 
ENDROOT
BRANCH   7   8
ATOM      8  C   UNL     1       2.589   6.056  19.056  0.00  0.00    +0.000 C 
ATOM      9  O   UNL     1       2.110   6.235  17.942  0.00  0.00    +0.000 OA
ATOM     10  N   UNL     1       2.398   6.918  20.125  0.00  0.00    +0.000 N 
ATOM     11  H   UNL     1       2.824   6.698  21.024  0.00  0.00    +0.000 HD
BRANCH  10  12
ATOM     12  C   UNL     1       1.614   8.099  20.108  0.00  0.00    +0.000 A 
ATOM     13  C   UNL     1       1.586   8.992  19.033  0.00  0.00    +0.000 A 
ATOM     14  C   UNL     1       0.801  10.147  19.078  0.00  0.00    +0.000 A 
ATOM     15  C   UNL     1       0.041  10.431  20.208  0.00  0.00    +0.000 A 
ATOM     16  C   UNL     1       0.049   9.545  21.284  0.00  0.00    +0.000 A 
ATOM     17  C   UNL     1       0.818   8.375  21.229  0.00  0.00    +0.000 A 
ENDBRANCH  10  12
ENDBRANCH   7   8
BRANCH   6  18
ATOM     18  S   UNL     1       1.815   3.078  20.699  0.00  0.00    +0.000 S 
ATOM     19  O   UNL     1       1.422   1.943  19.896  0.00  0.00    +0.000 OA
ATOM     20  O   UNL     1       2.111   2.996  22.104  0.00  0.00    +0.000 OA
BRANCH  18  21
ATOM     21  N   UNL     1       0.642   4.245  20.490  0.00  0.00    +0.000 NA
ATOM     22  H   UNL     1       0.102   4.466  21.325  0.00  0.00    +0.000 HD
ATOM     23  H   UNL     1       0.112   4.149  19.625  0.00  0.00    +0.000 HD
ENDBRANCH  18  21
ENDBRANCH   6  18
TORSDOF 4
ENDMDL
MODEL 4
REMARK VINA RESULT:      -7.0      3.552      6.344
REMARK  Name = 
REMARK  6 active torsions:
REMARK  status: ('A' for Active; 'I' for Inactive)
REMARK    1  A    between atoms: C_1  and  C_2
REMARK    2  A    between atoms: C_4  and  C_5
REMARK    3  A    between atoms: C_6  and  S_7
REMARK    4  A    between atoms: S_7  and  N_8
REMARK    5  A    between atoms: C_11  and  C_12
REMARK    6  A    between atoms: N_14  and  C_15
REMARK                            x       y       z     vdW  Elec       q    Type
REMARK                         _______ _______ _______ _____ _____    ______ ____
ROOT
ATOM      1  C   UNL     1       5.703   5.973  18.162  0.00  0.00    +0.000 C 
ATOM      2  C   UNL     1       4.780   4.995  18.790  0.00  0.00    +0.000 A 
ATOM      3  O   UNL     1       5.332   3.794  19.096  0.00  0.00    +0.000 OA
ATOM      4  C   UNL     1       4.371   3.042  19.692  0.00  0.00    +0.000 A 
ATOM      5  C   UNL     1       4.807   1.698  20.130  0.00  0.00    +0.000 C 
ATOM      6  C   UNL     1       3.193   3.759  19.762  0.00  0.00    +0.000 A 
ATOM      7  C   UNL     1       3.439   5.037  19.156  0.00  0.00    +0.000 A 
ENDROOT
BRANCH   7   8
ATOM      8  C   UNL     1       2.620   6.234  18.973  0.00  0.00    +0.000 C 
ATOM      9  O   UNL     1       2.232   6.521  17.846  0.00  0.00    +0.000 OA
ATOM     10  N   UNL     1       2.361   7.004  20.096  0.00  0.00    +0.000 N 
ATOM     11  H   UNL     1       2.711   6.696  21.001  0.00  0.00    +0.000 HD
BRANCH  10  12
ATOM     12  C   UNL     1       1.601   8.201  20.123  0.00  0.00    +0.000 A 
ATOM     13  C   UNL     1       1.552   9.109  19.062  0.00  0.00    +0.000 A 
ATOM     14  C   UNL     1       0.793  10.278  19.153  0.00  0.00    +0.000 A 
ATOM     15  C   UNL     1       0.082  10.562  20.313  0.00  0.00    +0.000 A 
ATOM     16  C   UNL     1       0.111   9.661  21.376  0.00  0.00    +0.000 A 
ATOM     17  C   UNL     1       0.853   8.477  21.277  0.00  0.00    +0.000 A 
ENDBRANCH  10  12
ENDBRANCH   7   8
BRANCH   6  18
ATOM     18  S   UNL     1       1.739   3.226  20.504  0.00  0.00    +0.000 S 
ATOM     19  O   UNL     1       0.908   4.408  20.502  0.00  0.00    +0.000 OA
ATOM     20  O   UNL     1       1.376   1.995  19.854  0.00  0.00    +0.000 OA
BRANCH  18  21
ATOM     21  N   UNL     1       2.080   2.881  22.100  0.00  0.00    +0.000 NA
ATOM     22  H   UNL     1       2.101   3.688  22.720  0.00  0.00    +0.000 HD
ATOM     23  H   UNL     1       2.828   2.200  22.225  0.00  0.00    +0.000 HD
ENDBRANCH  18  21
ENDBRANCH   6  18
TORSDOF 4
ENDMDL
MODEL 5
REMARK VINA RESULT:      -6.9      3.642      6.129
REMARK  Name = 
REMARK  6 active torsions:
REMARK  status: ('A' for Active; 'I' for Inactive)
REMARK    1  A    between atoms: C_1  and  C_2
REMARK    2  A    between atoms: C_4  and  C_5
REMARK    3  A    between atoms: C_6  and  S_7
REMARK    4  A    between atoms: S_7  and  N_8
REMARK    5  A    between atoms: C_11  and  C_12
REMARK    6  A    between atoms: N_14  and  C_15
REMARK                            x       y       z     vdW  Elec       q    Type
REMARK                         _______ _______ _______ _____ _____    ______ ____
ROOT
ATOM      1  C   UNL     1       5.824   5.799  18.441  0.00  0.00    +0.000 C 
ATOM      2  C   UNL     1       4.859   4.823  19.004  0.00  0.00    +0.000 A 
ATOM      3  O   UNL     1       5.394   3.640  19.394  0.00  0.00    +0.000 OA
ATOM      4  C   UNL     1       4.389   2.888  19.915  0.00  0.00    +0.000 A 
ATOM      5  C   UNL     1       4.799   1.563  20.430  0.00  0.00    +0.000 C 
ATOM      6  C   UNL     1       3.201   3.588  19.852  0.00  0.00    +0.000 A 
ATOM      7  C   UNL     1       3.488   4.854  19.238  0.00  0.00    +0.000 A 
ENDROOT
BRANCH   7   8
ATOM      8  C   UNL     1       2.674   6.032  18.944  0.00  0.00    +0.000 C 
ATOM      9  O   UNL     1       2.237   6.183  17.809  0.00  0.00    +0.000 OA
ATOM     10  N   UNL     1       2.478   6.941  19.973  0.00  0.00    +0.000 N 
ATOM     11  H   UNL     1       2.868   6.742  20.893  0.00  0.00    +0.000 HD
BRANCH  10  12
ATOM     12  C   UNL     1       1.735   8.144  19.885  0.00  0.00    +0.000 A 
ATOM     13  C   UNL     1       0.937   8.637  20.921  0.00  0.00    +0.000 A 
ATOM     14  C   UNL     1       0.217   9.824  20.772  0.00  0.00    +0.000 A 
ATOM     15  C   UNL     1       0.276  10.531  19.576  0.00  0.00    +0.000 A 
ATOM     16  C   UNL     1       1.077  10.061  18.537  0.00  0.00    +0.000 A 
ATOM     17  C   UNL     1       1.817   8.881  18.695  0.00  0.00    +0.000 A 
ENDBRANCH  10  12
ENDBRANCH   7   8
BRANCH   6  18
ATOM     18  S   UNL     1       1.689   3.052  20.465  0.00  0.00    +0.000 S 
ATOM     19  O   UNL     1       0.895   4.258  20.501  0.00  0.00    +0.000 OA
ATOM     20  O   UNL     1       1.331   1.884  19.705  0.00  0.00    +0.000 OA
BRANCH  18  21
ATOM     21  N   UNL     1       1.921   2.581  22.048  0.00  0.00    +0.000 NA
ATOM     22  H   UNL     1       2.706   1.949  22.199  0.00  0.00    +0.000 HD
ATOM     23  H   UNL     1       1.060   2.351  22.542  0.00  0.00    +0.000 HD
ENDBRANCH  18  21
ENDBRANCH   6  18
TORSDOF 4
ENDMDL
MODEL 6
REMARK VINA RESULT:      -6.9      1.156      1.438
REMARK  Name = 
REMARK  6 active torsions:
REMARK  status: ('A' for Active; 'I' for Inactive)
REMARK    1  A    between atoms: C_1  and  C_2
REMARK    2  A    between atoms: C_4  and  C_5
REMARK    3  A    between atoms: C_6  and  S_7
REMARK    4  A    between atoms: S_7  and  N_8
REMARK    5  A    between atoms: C_11  and  C_12
REMARK    6  A    between atoms: N_14  and  C_15
REMARK                            x       y       z     vdW  Elec       q    Type
REMARK                         _______ _______ _______ _____ _____    ______ ____
ROOT
ATOM      1  C   UNL     1       2.768   8.219  17.532  0.00  0.00    +0.000 C 
ATOM      2  C   UNL     1       3.035   6.929  18.215  0.00  0.00    +0.000 A 
ATOM      3  O   UNL     1       2.257   6.675  19.296  0.00  0.00    +0.000 OA
ATOM      4  C   UNL     1       2.604   5.451  19.772  0.00  0.00    +0.000 A 
ATOM      5  C   UNL     1       1.826   4.988  20.942  0.00  0.00    +0.000 C 
ATOM      6  C   UNL     1       3.617   4.919  18.998  0.00  0.00    +0.000 A 
ATOM      7  C   UNL     1       3.925   5.885  17.983  0.00  0.00    +0.000 A 
ENDROOT
BRANCH   7   8
ATOM      8  C   UNL     1       4.852   5.890  16.852  0.00  0.00    +0.000 C 
ATOM      9  O   UNL     1       5.581   6.861  16.687  0.00  0.00    +0.000 OA
ATOM     10  N   UNL     1       4.819   4.796  16.001  0.00  0.00    +0.000 N 
ATOM     11  H   UNL     1       4.191   4.023  16.209  0.00  0.00    +0.000 HD
BRANCH  10  12
ATOM     12  C   UNL     1       5.626   4.619  14.849  0.00  0.00    +0.000 A 
ATOM     13  C   UNL     1       6.904   5.166  14.709  0.00  0.00    +0.000 A 
ATOM     14  C   UNL     1       7.648   4.965  13.543  0.00  0.00    +0.000 A 
ATOM     15  C   UNL     1       7.116   4.223  12.494  0.00  0.00    +0.000 A 
ATOM     16  C   UNL     1       5.847   3.660  12.623  0.00  0.00    +0.000 A 
ATOM     17  C   UNL     1       5.111   3.842  13.801  0.00  0.00    +0.000 A 
ENDBRANCH  10  12
ENDBRANCH   7   8
BRANCH   6  18
ATOM     18  S   UNL     1       4.310   3.360  19.191  0.00  0.00    +0.000 S 
ATOM     19  O   UNL     1       5.724   3.634  19.306  0.00  0.00    +0.000 OA
ATOM     20  O   UNL     1       3.542   2.694  20.210  0.00  0.00    +0.000 OA
BRANCH  18  21
ATOM     21  N   UNL     1       4.095   2.527  17.763  0.00  0.00    +0.000 NA
ATOM     22  H   UNL     1       3.803   1.557  17.869  0.00  0.00    +0.000 HD
ATOM     23  H   UNL     1       4.820   2.703  17.068  0.00  0.00    +0.000 HD
ENDBRANCH  18  21
ENDBRANCH   6  18
TORSDOF 4
ENDMDL
MODEL 7
REMARK VINA RESULT:      -6.9      0.825      1.126
REMARK  Name = 
REMARK  6 active torsions:
REMARK  status: ('A' for Active; 'I' for Inactive)
REMARK    1  A    between atoms: C_1  and  C_2
REMARK    2  A    between atoms: C_4  and  C_5
REMARK    3  A    between atoms: C_6  and  S_7
REMARK    4  A    between atoms: S_7  and  N_8
REMARK    5  A    between atoms: C_11  and  C_12
REMARK    6  A    between atoms: N_14  and  C_15
REMARK                            x       y       z     vdW  Elec       q    Type
REMARK                         _______ _______ _______ _____ _____    ______ ____
ROOT
ATOM      1  C   UNL     1       3.838   7.397  17.523  0.00  0.00    +0.000 C 
ATOM      2  C   UNL     1       3.557   6.062  18.109  0.00  0.00    +0.000 A 
ATOM      3  O   UNL     1       2.583   6.038  19.052  0.00  0.00    +0.000 OA
ATOM      4  C   UNL     1       2.430   4.748  19.449  0.00  0.00    +0.000 A 
ATOM      5  C   UNL     1       1.373   4.524  20.459  0.00  0.00    +0.000 C 
ATOM      6  C   UNL     1       3.316   3.940  18.764  0.00  0.00    +0.000 A 
ATOM      7  C   UNL     1       4.077   4.790  17.894  0.00  0.00    +0.000 A 
ENDROOT
BRANCH   7   8
ATOM      8  C   UNL     1       5.116   4.532  16.898  0.00  0.00    +0.000 C 
ATOM      9  O   UNL     1       6.238   4.217  17.277  0.00  0.00    +0.000 OA
ATOM     10  N   UNL     1       4.772   4.702  15.565  0.00  0.00    +0.000 N 
ATOM     11  H   UNL     1       3.815   4.958  15.327  0.00  0.00    +0.000 HD
BRANCH  10  12
ATOM     12  C   UNL     1       5.635   4.514  14.456  0.00  0.00    +0.000 A 
ATOM     13  C   UNL     1       6.864   5.163  14.315  0.00  0.00    +0.000 A 
ATOM     14  C   UNL     1       7.666   4.945  13.192  0.00  0.00    +0.000 A 
ATOM     15  C   UNL     1       7.243   4.083  12.188  0.00  0.00    +0.000 A 
ATOM     16  C   UNL     1       6.026   3.417  12.319  0.00  0.00    +0.000 A 
ATOM     17  C   UNL     1       5.231   3.618  13.455  0.00  0.00    +0.000 A 
ENDBRANCH  10  12
ENDBRANCH   7   8
BRANCH   6  18
ATOM     18  S   UNL     1       3.418   2.231  18.895  0.00  0.00    +0.000 S 
ATOM     19  O   UNL     1       3.796   1.815  17.564  0.00  0.00    +0.000 OA
ATOM     20  O   UNL     1       4.203   1.957  20.069  0.00  0.00    +0.000 OA
BRANCH  18  21
ATOM     21  N   UNL     1       1.878   1.648  19.162  0.00  0.00    +0.000 NA
ATOM     22  H   UNL     1       1.723   0.687  18.862  0.00  0.00    +0.000 HD
ATOM     23  H   UNL     1       1.139   2.313  18.936  0.00  0.00    +0.000 HD
ENDBRANCH  18  21
ENDBRANCH   6  18
TORSDOF 4
ENDMDL
MODEL 8
REMARK VINA RESULT:      -6.9      1.233      1.873
REMARK  Name = 
REMARK  6 active torsions:
REMARK  status: ('A' for Active; 'I' for Inactive)
REMARK    1  A    between atoms: C_1  and  C_2
REMARK    2  A    between atoms: C_4  and  C_5
REMARK    3  A    between atoms: C_6  and  S_7
REMARK    4  A    between atoms: S_7  and  N_8
REMARK    5  A    between atoms: C_11  and  C_12
REMARK    6  A    between atoms: N_14  and  C_15
REMARK                            x       y       z     vdW  Elec       q    Type
REMARK                         _______ _______ _______ _____ _____    ______ ____
ROOT
ATOM      1  C   UNL     1       2.344   7.911  17.820  0.00  0.00    +0.000 C 
ATOM      2  C   UNL     1       2.804   6.647  18.447  0.00  0.00    +0.000 A 
ATOM      3  O   UNL     1       2.184   6.319  19.608  0.00  0.00    +0.000 OA
ATOM      4  C   UNL     1       2.693   5.128  20.020  0.00  0.00    +0.000 A 
ATOM      5  C   UNL     1       2.103   4.591  21.266  0.00  0.00    +0.000 C 
ATOM      6  C   UNL     1       3.650   4.694  19.125  0.00  0.00    +0.000 A 
ATOM      7  C   UNL     1       3.749   5.689  18.095  0.00  0.00    +0.000 A 
ENDROOT
BRANCH   7   8
ATOM      8  C   UNL     1       4.531   5.783  16.864  0.00  0.00    +0.000 C 
ATOM      9  O   UNL     1       4.853   6.890  16.447  0.00  0.00    +0.000 OA
ATOM     10  N   UNL     1       4.831   4.596  16.211  0.00  0.00    +0.000 N 
ATOM     11  H   UNL     1       4.536   3.713  16.624  0.00  0.00    +0.000 HD
BRANCH  10  12
ATOM     12  C   UNL     1       5.565   4.478  15.004  0.00  0.00    +0.000 A 
ATOM     13  C   UNL     1       5.096   3.794  13.879  0.00  0.00    +0.000 A 
ATOM     14  C   UNL     1       5.870   3.701  12.720  0.00  0.00    +0.000 A 
ATOM     15  C   UNL     1       7.133   4.281  12.676  0.00  0.00    +0.000 A 
ATOM     16  C   UNL     1       7.611   4.977  13.785  0.00  0.00    +0.000 A 
ATOM     17  C   UNL     1       6.824   5.090  14.939  0.00  0.00    +0.000 A 
ENDBRANCH  10  12
ENDBRANCH   7   8
BRANCH   6  18
ATOM     18  S   UNL     1       4.496   3.202  19.210  0.00  0.00    +0.000 S 
ATOM     19  O   UNL     1       5.879   3.592  19.062  0.00  0.00    +0.000 OA
ATOM     20  O   UNL     1       3.983   2.506  20.360  0.00  0.00    +0.000 OA
BRANCH  18  21
ATOM     21  N   UNL     1       4.100   2.313  17.856  0.00  0.00    +0.000 NA
ATOM     22  H   UNL     1       3.488   1.517  18.027  0.00  0.00    +0.000 HD
ATOM     23  H   UNL     1       4.882   2.149  17.224  0.00  0.00    +0.000 HD
ENDBRANCH  18  21
ENDBRANCH   6  18
TORSDOF 4
ENDMDL
MODEL 9
REMARK VINA RESULT:      -6.9      3.906      6.322
REMARK  Name = 
REMARK  6 active torsions:
REMARK  status: ('A' for Active; 'I' for Inactive)
REMARK    1  A    between atoms: C_1  and  C_2
REMARK    2  A    between atoms: C_4  and  C_5
REMARK    3  A    between atoms: C_6  and  S_7
REMARK    4  A    between atoms: S_7  and  N_8
REMARK    5  A    between atoms: C_11  and  C_12
REMARK    6  A    between atoms: N_14  and  C_15
REMARK                            x       y       z     vdW  Elec       q    Type
REMARK                         _______ _______ _______ _____ _____    ______ ____
ROOT
ATOM      1  C   UNL     1       6.216   5.569  19.290  0.00  0.00    +0.000 C 
ATOM      2  C   UNL     1       5.003   4.740  19.078  0.00  0.00    +0.000 A 
ATOM      3  O   UNL     1       5.213   3.401  19.067  0.00  0.00    +0.000 OA
ATOM      4  C   UNL     1       4.006   2.799  18.903  0.00  0.00    +0.000 A 
ATOM      5  C   UNL     1       4.037   1.320  18.903  0.00  0.00    +0.000 C 
ATOM      6  C   UNL     1       3.017   3.757  18.800  0.00  0.00    +0.000 A 
ATOM      7  C   UNL     1       3.657   5.038  18.893  0.00  0.00    +0.000 A 
ENDROOT
BRANCH   7   8
ATOM      8  C   UNL     1       3.155   6.411  18.904  0.00  0.00    +0.000 C 
ATOM      9  O   UNL     1       3.529   7.186  18.031  0.00  0.00    +0.000 OA
ATOM     10  N   UNL     1       2.304   6.767  19.939  0.00  0.00    +0.000 N 
ATOM     11  H   UNL     1       2.032   6.064  20.624  0.00  0.00    +0.000 HD
BRANCH  10  12
ATOM     12  C   UNL     1       1.723   8.046  20.132  0.00  0.00    +0.000 A 
ATOM     13  C   UNL     1       1.488   8.952  19.094  0.00  0.00    +0.000 A 
ATOM     14  C   UNL     1       0.923  10.204  19.347  0.00  0.00    +0.000 A 
ATOM     15  C   UNL     1       0.595  10.572  20.647  0.00  0.00    +0.000 A 
ATOM     16  C   UNL     1       0.812   9.676  21.692  0.00  0.00    +0.000 A 
ATOM     17  C   UNL     1       1.358   8.411  21.435  0.00  0.00    +0.000 A 
ENDBRANCH  10  12
ENDBRANCH   7   8
BRANCH   6  18
ATOM     18  S   UNL     1       1.334   3.446  18.660  0.00  0.00    +0.000 S 
ATOM     19  O   UNL     1       0.802   3.902  19.923  0.00  0.00    +0.000 OA
ATOM     20  O   UNL     1       0.926   3.974  17.385  0.00  0.00    +0.000 OA
BRANCH  18  21
ATOM     21  N   UNL     1       1.124   1.792  18.619  0.00  0.00    +0.000 NA
ATOM     22  H   UNL     1       1.800   1.286  18.049  0.00  0.00    +0.000 HD
ATOM     23  H   UNL     1       0.152   1.500  18.526  0.00  0.00    +0.000 HD
ENDBRANCH  18  21
ENDBRANCH   6  18
TORSDOF 4
ENDMDL
