MODEL 1
REMARK VINA RESULT:      -7.5      0.000      0.000
REMARK  Name = 
REMARK  4 active torsions:
REMARK  status: ('A' for Active; 'I' for Inactive)
REMARK    1  A    between atoms: C_1  and  O_2
REMARK    2  A    between atoms: O_2  and  C_3
REMARK    3  A    between atoms: C_14  and  N_15
REMARK    4  A    between atoms: C_16  and  C_17
REMARK                            x       y       z     vdW  Elec       q    Type
REMARK                         _______ _______ _______ _____ _____    ______ ____
ROOT
ATOM      1  C   UNL     1       5.860   3.660  13.243  0.00  0.00    +0.000 A 
ATOM      2  C   UNL     1       7.045   4.317  12.968  0.00  0.00    +0.000 A 
ATOM      3  C   UNL     1       7.544   5.250  13.900  0.00  0.00    +0.000 A 
ATOM      4  C   UNL     1       6.861   5.526  15.144  0.00  0.00    +0.000 A 
ATOM      5  C   UNL     1       7.211   6.518  16.094  0.00  0.00    +0.000 A 
ATOM      6  C   UNL     1       6.394   6.782  17.233  0.00  0.00    +0.000 A 
ATOM      7  C   UNL     1       5.306   5.946  17.529  0.00  0.00    +0.000 A 
ATOM      8  C   UNL     1       5.154   4.857  16.716  0.00  0.00    +0.000 A 
ATOM      9  C   UNL     1       5.766   4.779  15.423  0.00  0.00    +0.000 A 
ATOM     10  C   UNL     1       5.237   3.865  14.468  0.00  0.00    +0.000 A 
ATOM     11  C   UNL     1       4.772   3.541  17.236  0.00  0.00    +0.000 C 
ATOM     12  C   UNL     1       4.578   3.717  18.695  0.00  0.00    +0.000 C 
ATOM     13  C   UNL     1       3.975   5.005  19.321  0.00  0.00    +0.000 C 
ATOM     14  O   UNL     1       4.416   6.185  18.574  0.00  0.00    +0.000 OA
ENDROOT
BRANCH  13  15
ATOM     15  C   UNL     1       2.526   4.491  19.707  0.00  0.00    +0.000 A 
ATOM     16  C   UNL     1       2.390   3.957  21.051  0.00  0.00    +0.000 A 
ATOM     17  C   UNL     1       1.511   2.908  21.355  0.00  0.00    +0.000 A 
ATOM     18  C   UNL     1       0.616   2.484  20.388  0.00  0.00    +0.000 A 
ATOM     19  C   UNL     1       0.605   3.123  19.139  0.00  0.00    +0.000 A 
ATOM     20  C   UNL     1       1.560   4.105  18.788  0.00  0.00    +0.000 A 
ATOM     21 CL   UNL     1       1.551   4.721  17.186  0.00  0.00    +0.000 Cl
ENDBRANCH  13  15
BRANCH  12  22
ATOM     22  N   UNL     1       5.869   3.487  19.386  0.00  0.00    +0.000 NA
ATOM     23  H   UNL     1       6.503   4.260  19.175  0.00  0.00    +0.000 HD
ATOM     24  H   UNL     1       5.704   3.692  20.383  0.00  0.00    +0.000 HD
ENDBRANCH  12  22
BRANCH   1  26
ATOM     25  C   UNL     1       4.252   3.359  11.505  0.00  0.00    +0.000 C 
ATOM     26  O   UNL     1       5.142   2.815  12.453  0.00  0.00    +0.000 OA
ENDBRANCH   1  26
TORSDOF 3
ENDMDL
MODEL 2
REMARK VINA RESULT:      -6.9      2.967      6.970
REMARK  Name = 
REMARK  4 active torsions:
REMARK  status: ('A' for Active; 'I' for Inactive)
REMARK    1  A    between atoms: C_1  and  O_2
REMARK    2  A    between atoms: O_2  and  C_3
REMARK    3  A    between atoms: C_14  and  N_15
REMARK    4  A    between atoms: C_16  and  C_17
REMARK                            x       y       z     vdW  Elec       q    Type
REMARK                         _______ _______ _______ _____ _____    ______ ____
ROOT
ATOM      1  C   UNL     1       1.818   8.519  18.563  0.00  0.00    +0.000 A 
ATOM      2  C   UNL     1       1.668   8.193  19.896  0.00  0.00    +0.000 A 
ATOM      3  C   UNL     1       2.213   6.981  20.371  0.00  0.00    +0.000 A 
ATOM      4  C   UNL     1       2.940   6.081  19.505  0.00  0.00    +0.000 A 
ATOM      5  C   UNL     1       3.430   4.796  19.848  0.00  0.00    +0.000 A 
ATOM      6  C   UNL     1       4.032   3.943  18.876  0.00  0.00    +0.000 A 
ATOM      7  C   UNL     1       4.307   4.426  17.587  0.00  0.00    +0.000 A 
ATOM      8  C   UNL     1       4.036   5.751  17.378  0.00  0.00    +0.000 A 
ATOM      9  C   UNL     1       3.161   6.494  18.234  0.00  0.00    +0.000 A 
ATOM     10  C   UNL     1       2.578   7.696  17.741  0.00  0.00    +0.000 A 
ATOM     11  C   UNL     1       4.925   6.615  16.597  0.00  0.00    +0.000 C 
ATOM     12  C   UNL     1       6.028   5.747  16.122  0.00  0.00    +0.000 C 
ATOM     13  C   UNL     1       5.822   4.265  15.704  0.00  0.00    +0.000 C 
ATOM     14  O   UNL     1       4.817   3.633  16.562  0.00  0.00    +0.000 OA
ENDROOT
BRANCH  13  15
ATOM     15  C   UNL     1       5.924   4.389  14.127  0.00  0.00    +0.000 A 
ATOM     16  C   UNL     1       4.882   3.707  13.379  0.00  0.00    +0.000 A 
ATOM     17  C   UNL     1       5.118   3.127  12.124  0.00  0.00    +0.000 A 
ATOM     18  C   UNL     1       6.329   3.362  11.497  0.00  0.00    +0.000 A 
ATOM     19  C   UNL     1       7.278   4.182  12.125  0.00  0.00    +0.000 A 
ATOM     20  C   UNL     1       7.092   4.680  13.436  0.00  0.00    +0.000 A 
ATOM     21 CL   UNL     1       8.373   5.552  14.171  0.00  0.00    +0.000 Cl
ENDBRANCH  13  15
BRANCH  12  22
ATOM     22  N   UNL     1       7.111   5.745  17.133  0.00  0.00    +0.000 NA
ATOM     23  H   UNL     1       7.604   4.850  17.094  0.00  0.00    +0.000 HD
ATOM     24  H   UNL     1       7.860   6.348  16.757  0.00  0.00    +0.000 HD
ENDBRANCH  12  22
BRANCH   1  26
ATOM     25  C   UNL     1       0.257  10.323  18.459  0.00  0.00    +0.000 C 
ATOM     26  O   UNL     1       1.288   9.565  17.869  0.00  0.00    +0.000 OA
ENDBRANCH   1  26
TORSDOF 3
ENDMDL
MODEL 3
REMARK VINA RESULT:      -6.8      5.941      8.175
REMARK  Name = 
REMARK  4 active torsions:
REMARK  status: ('A' for Active; 'I' for Inactive)
REMARK    1  A    between atoms: C_1  and  O_2
REMARK    2  A    between atoms: O_2  and  C_3
REMARK    3  A    between atoms: C_14  and  N_15
REMARK    4  A    between atoms: C_16  and  C_17
REMARK                            x       y       z     vdW  Elec       q    Type
REMARK                         _______ _______ _______ _____ _____    ______ ____
ROOT
ATOM      1  C   UNL     1      -2.936  11.073  17.856  0.00  0.00    +0.000 A 
ATOM      2  C   UNL     1      -3.021  12.094  18.782  0.00  0.00    +0.000 A 
ATOM      3  C   UNL     1      -2.080  12.147  19.832  0.00  0.00    +0.000 A 
ATOM      4  C   UNL     1      -1.019  11.173  19.955  0.00  0.00    +0.000 A 
ATOM      5  C   UNL     1      -0.095  11.067  21.024  0.00  0.00    +0.000 A 
ATOM      6  C   UNL     1       0.838   9.991  21.100  0.00  0.00    +0.000 A 
ATOM      7  C   UNL     1       0.976   9.100  20.024  0.00  0.00    +0.000 A 
ATOM      8  C   UNL     1       0.231   9.389  18.914  0.00  0.00    +0.000 A 
ATOM      9  C   UNL     1      -0.906  10.258  18.963  0.00  0.00    +0.000 A 
ATOM     10  C   UNL     1      -1.877  10.177  17.924  0.00  0.00    +0.000 A 
ATOM     11  C   UNL     1       0.762   9.236  17.556  0.00  0.00    +0.000 C 
ATOM     12  C   UNL     1       2.137   8.705  17.711  0.00  0.00    +0.000 C 
ATOM     13  C   UNL     1       2.536   7.691  18.819  0.00  0.00    +0.000 C 
ATOM     14  O   UNL     1       1.804   7.981  20.055  0.00  0.00    +0.000 OA
ENDROOT
BRANCH  13  15
ATOM     15  C   UNL     1       2.666   6.362  17.966  0.00  0.00    +0.000 A 
ATOM     16  C   UNL     1       1.567   5.421  18.106  0.00  0.00    +0.000 A 
ATOM     17  C   UNL     1       1.756   4.034  18.034  0.00  0.00    +0.000 A 
ATOM     18  C   UNL     1       2.991   3.546  17.643  0.00  0.00    +0.000 A 
ATOM     19  C   UNL     1       4.012   4.451  17.318  0.00  0.00    +0.000 A 
ATOM     20  C   UNL     1       3.864   5.847  17.493  0.00  0.00    +0.000 A 
ATOM     21 CL   UNL     1       5.221   6.857  17.204  0.00  0.00    +0.000 Cl
ENDBRANCH  13  15
BRANCH  12  22
ATOM     22  N   UNL     1       3.083   9.839  17.828  0.00  0.00    +0.000 NA
ATOM     23  H   UNL     1       3.645   9.895  16.976  0.00  0.00    +0.000 HD
ATOM     24  H   UNL     1       2.524  10.697  17.698  0.00  0.00    +0.000 HD
ENDBRANCH  12  22
BRANCH   1  26
ATOM     25  C   UNL     1      -3.320  10.835  15.511  0.00  0.00    +0.000 C 
ATOM     26  O   UNL     1      -3.788  10.762  16.839  0.00  0.00    +0.000 OA
ENDBRANCH   1  26
TORSDOF 3
ENDMDL
MODEL 4
REMARK VINA RESULT:      -6.8      2.527      6.986
REMARK  Name = 
REMARK  4 active torsions:
REMARK  status: ('A' for Active; 'I' for Inactive)
REMARK    1  A    between atoms: C_1  and  O_2
REMARK    2  A    between atoms: O_2  and  C_3
REMARK    3  A    between atoms: C_14  and  N_15
REMARK    4  A    between atoms: C_16  and  C_17
REMARK                            x       y       z     vdW  Elec       q    Type
REMARK                         _______ _______ _______ _____ _____    ______ ____
ROOT
ATOM      1  C   UNL     1       1.838   7.982  19.658  0.00  0.00    +0.000 A 
ATOM      2  C   UNL     1       1.332   7.347  20.777  0.00  0.00    +0.000 A 
ATOM      3  C   UNL     1       1.463   5.947  20.889  0.00  0.00    +0.000 A 
ATOM      4  C   UNL     1       2.127   5.160  19.875  0.00  0.00    +0.000 A 
ATOM      5  C   UNL     1       2.216   3.746  19.832  0.00  0.00    +0.000 A 
ATOM      6  C   UNL     1       2.795   3.068  18.719  0.00  0.00    +0.000 A 
ATOM      7  C   UNL     1       3.447   3.796  17.710  0.00  0.00    +0.000 A 
ATOM      8  C   UNL     1       3.546   5.144  17.920  0.00  0.00    +0.000 A 
ATOM      9  C   UNL     1       2.707   5.835  18.853  0.00  0.00    +0.000 A 
ATOM     10  C   UNL     1       2.542   7.243  18.716  0.00  0.00    +0.000 A 
ATOM     11  C   UNL     1       4.759   5.898  17.592  0.00  0.00    +0.000 C 
ATOM     12  C   UNL     1       5.703   4.919  17.003  0.00  0.00    +0.000 C 
ATOM     13  C   UNL     1       5.250   3.744  16.094  0.00  0.00    +0.000 C 
ATOM     14  O   UNL     1       3.965   3.215  16.556  0.00  0.00    +0.000 OA
ENDROOT
BRANCH  13  15
ATOM     15  C   UNL     1       5.714   4.277  14.675  0.00  0.00    +0.000 A 
ATOM     16  C   UNL     1       5.106   3.618  13.532  0.00  0.00    +0.000 A 
ATOM     17  C   UNL     1       5.793   3.427  12.324  0.00  0.00    +0.000 A 
ATOM     18  C   UNL     1       7.022   4.038  12.151  0.00  0.00    +0.000 A 
ATOM     19  C   UNL     1       7.539   4.839  13.180  0.00  0.00    +0.000 A 
ATOM     20  C   UNL     1       6.906   4.948  14.440  0.00  0.00    +0.000 A 
ATOM     21 CL   UNL     1       7.693   5.835  15.680  0.00  0.00    +0.000 Cl
ENDBRANCH  13  15
BRANCH  12  22
ATOM     22  N   UNL     1       6.512   4.315  18.088  0.00  0.00    +0.000 NA
ATOM     23  H   UNL     1       7.443   4.095  17.727  0.00  0.00    +0.000 HD
ATOM     24  H   UNL     1       6.773   5.089  18.720  0.00  0.00    +0.000 HD
ENDBRANCH  12  22
BRANCH   1  26
ATOM     25  C   UNL     1       1.739   9.612  17.916  0.00  0.00    +0.000 C 
ATOM     26  O   UNL     1       1.730   9.288  19.288  0.00  0.00    +0.000 OA
ENDBRANCH   1  26
TORSDOF 3
ENDMDL
MODEL 5
REMARK VINA RESULT:      -6.8      6.084      7.908
REMARK  Name = 
REMARK  4 active torsions:
REMARK  status: ('A' for Active; 'I' for Inactive)
REMARK    1  A    between atoms: C_1  and  O_2
REMARK    2  A    between atoms: O_2  and  C_3
REMARK    3  A    between atoms: C_14  and  N_15
REMARK    4  A    between atoms: C_16  and  C_17
REMARK                            x       y       z     vdW  Elec       q    Type
REMARK                         _______ _______ _______ _____ _____    ______ ____
ROOT
ATOM      1  C   UNL     1       3.937   6.126  17.427  0.00  0.00    +0.000 A 
ATOM      2  C   UNL     1       3.590   5.007  18.159  0.00  0.00    +0.000 A 
ATOM      3  C   UNL     1       2.741   5.154  19.276  0.00  0.00    +0.000 A 
ATOM      4  C   UNL     1       2.208   6.441  19.664  0.00  0.00    +0.000 A 
ATOM      5  C   UNL     1       1.443   6.719  20.824  0.00  0.00    +0.000 A 
ATOM      6  C   UNL     1       1.070   8.051  21.170  0.00  0.00    +0.000 A 
ATOM      7  C   UNL     1       1.310   9.106  20.275  0.00  0.00    +0.000 A 
ATOM      8  C   UNL     1       1.833   8.750  19.063  0.00  0.00    +0.000 A 
ATOM      9  C   UNL     1       2.483   7.490  18.853  0.00  0.00    +0.000 A 
ATOM     10  C   UNL     1       3.372   7.353  17.749  0.00  0.00    +0.000 A 
ATOM     11  C   UNL     1       1.394   9.370  17.810  0.00  0.00    +0.000 C 
ATOM     12  C   UNL     1       0.387  10.390  18.188  0.00  0.00    +0.000 C 
ATOM     13  C   UNL     1       0.489  11.244  19.482  0.00  0.00    +0.000 C 
ATOM     14  O   UNL     1       1.048  10.441  20.573  0.00  0.00    +0.000 OA
ENDROOT
BRANCH  13  15
ATOM     15  C   UNL     1       0.931  12.641  18.877  0.00  0.00    +0.000 A 
ATOM     16  C   UNL     1       2.269  12.681  18.314  0.00  0.00    +0.000 A 
ATOM     17  C   UNL     1       3.068  13.833  18.364  0.00  0.00    +0.000 A 
ATOM     18  C   UNL     1       2.505  15.018  18.804  0.00  0.00    +0.000 A 
ATOM     19  C   UNL     1       1.152  15.038  19.174  0.00  0.00    +0.000 A 
ATOM     20  C   UNL     1       0.371  13.860  19.230  0.00  0.00    +0.000 A 
ATOM     21 CL   UNL     1      -1.232  13.969  19.833  0.00  0.00    +0.000 Cl
ENDBRANCH  13  15
BRANCH  12  22
ATOM     22  N   UNL     1      -0.954   9.761  18.212  0.00  0.00    +0.000 NA
ATOM     23  H   UNL     1      -1.625  10.389  17.764  0.00  0.00    +0.000 HD
ATOM     24  H   UNL     1      -0.938   9.019  17.495  0.00  0.00    +0.000 HD
ENDBRANCH  12  22
BRANCH   1  26
ATOM     25  C   UNL     1       5.380   5.067  15.846  0.00  0.00    +0.000 C 
ATOM     26  O   UNL     1       4.819   6.238  16.395  0.00  0.00    +0.000 OA
ENDBRANCH   1  26
TORSDOF 3
ENDMDL
MODEL 6
REMARK VINA RESULT:      -6.4      5.613      7.429
REMARK  Name = 
REMARK  4 active torsions:
REMARK  status: ('A' for Active; 'I' for Inactive)
REMARK    1  A    between atoms: C_1  and  O_2
REMARK    2  A    between atoms: O_2  and  C_3
REMARK    3  A    between atoms: C_14  and  N_15
REMARK    4  A    between atoms: C_16  and  C_17
REMARK                            x       y       z     vdW  Elec       q    Type
REMARK                         _______ _______ _______ _____ _____    ______ ____
ROOT
ATOM      1  C   UNL     1       4.574   6.135  16.992  0.00  0.00    +0.000 A 
ATOM      2  C   UNL     1       4.183   4.876  17.404  0.00  0.00    +0.000 A 
ATOM      3  C   UNL     1       3.205   4.758  18.414  0.00  0.00    +0.000 A 
ATOM      4  C   UNL     1       2.587   5.918  19.016  0.00  0.00    +0.000 A 
ATOM      5  C   UNL     1       1.682   5.918  20.107  0.00  0.00    +0.000 A 
ATOM      6  C   UNL     1       1.225   7.133  20.697  0.00  0.00    +0.000 A 
ATOM      7  C   UNL     1       1.531   8.366  20.100  0.00  0.00    +0.000 A 
ATOM      8  C   UNL     1       2.205   8.300  18.911  0.00  0.00    +0.000 A 
ATOM      9  C   UNL     1       2.917   7.127  18.502  0.00  0.00    +0.000 A 
ATOM     10  C   UNL     1       3.933   7.252  17.512  0.00  0.00    +0.000 A 
ATOM     11  C   UNL     1       1.893   9.187  17.787  0.00  0.00    +0.000 C 
ATOM     12  C   UNL     1       0.815  10.087  18.262  0.00  0.00    +0.000 C 
ATOM     13  C   UNL     1       0.736  10.622  19.718  0.00  0.00    +0.000 C 
ATOM     14  O   UNL     1       1.191   9.596  20.659  0.00  0.00    +0.000 OA
ENDROOT
BRANCH  13  15
ATOM     15  C   UNL     1       1.196  12.124  19.503  0.00  0.00    +0.000 A 
ATOM     16  C   UNL     1       2.098  12.346  18.386  0.00  0.00    +0.000 A 
ATOM     17  C   UNL     1       3.097  13.329  18.415  0.00  0.00    +0.000 A 
ATOM     18  C   UNL     1       3.115  14.234  19.462  0.00  0.00    +0.000 A 
ATOM     19  C   UNL     1       2.128  14.150  20.455  0.00  0.00    +0.000 A 
ATOM     20  C   UNL     1       1.185  13.097  20.492  0.00  0.00    +0.000 A 
ATOM     21 CL   UNL     1       0.112  13.003  21.828  0.00  0.00    +0.000 Cl
ENDBRANCH  13  15
BRANCH  12  22
ATOM     22  N   UNL     1      -0.498   9.460  17.979  0.00  0.00    +0.000 NA
ATOM     23  H   UNL     1      -1.215  10.187  17.946  0.00  0.00    +0.000 HD
ATOM     24  H   UNL     1      -0.489   9.209  16.978  0.00  0.00    +0.000 HD
ENDBRANCH  12  22
BRANCH   1  26
ATOM     25  C   UNL     1       6.854   6.749  16.636  0.00  0.00    +0.000 C 
ATOM     26  O   UNL     1       5.566   6.487  16.127  0.00  0.00    +0.000 OA
ENDBRANCH   1  26
TORSDOF 3
ENDMDL
MODEL 7
REMARK VINA RESULT:      -6.3      5.597      7.387
REMARK  Name = 
REMARK  4 active torsions:
REMARK  status: ('A' for Active; 'I' for Inactive)
REMARK    1  A    between atoms: C_1  and  O_2
REMARK    2  A    between atoms: O_2  and  C_3
REMARK    3  A    between atoms: C_14  and  N_15
REMARK    4  A    between atoms: C_16  and  C_17
REMARK                            x       y       z     vdW  Elec       q    Type
REMARK                         _______ _______ _______ _____ _____    ______ ____
ROOT
ATOM      1  C   UNL     1      -2.309  10.558  16.902  0.00  0.00    +0.000 A 
ATOM      2  C   UNL     1      -2.233  11.884  17.281  0.00  0.00    +0.000 A 
ATOM      3  C   UNL     1      -1.322  12.257  18.292  0.00  0.00    +0.000 A 
ATOM      4  C   UNL     1      -0.453  11.294  18.929  0.00  0.00    +0.000 A 
ATOM      5  C   UNL     1       0.412  11.537  20.024  0.00  0.00    +0.000 A 
ATOM      6  C   UNL     1       1.138  10.481  20.651  0.00  0.00    +0.000 A 
ATOM      7  C   UNL     1       1.141   9.195  20.087  0.00  0.00    +0.000 A 
ATOM      8  C   UNL     1       0.485   9.068  18.894  0.00  0.00    +0.000 A 
ATOM      9  C   UNL     1      -0.481  10.028  18.448  0.00  0.00    +0.000 A 
ATOM     10  C   UNL     1      -1.427   9.639  17.457  0.00  0.00    +0.000 A 
ATOM     11  C   UNL     1       1.011   8.252  17.797  0.00  0.00    +0.000 C 
ATOM     12  C   UNL     1       2.267   7.647  18.302  0.00  0.00    +0.000 C 
ATOM     13  C   UNL     1       2.454   7.184  19.773  0.00  0.00    +0.000 C 
ATOM     14  O   UNL     1       1.757   8.097  20.682  0.00  0.00    +0.000 OA
ENDROOT
BRANCH  13  15
ATOM     15  C   UNL     1       2.365   5.611  19.598  0.00  0.00    +0.000 A 
ATOM     16  C   UNL     1       1.170   4.989  20.140  0.00  0.00    +0.000 A 
ATOM     17  C   UNL     1       1.181   3.700  20.692  0.00  0.00    +0.000 A 
ATOM     18  C   UNL     1       2.320   2.925  20.557  0.00  0.00    +0.000 A 
ATOM     19  C   UNL     1       3.423   3.445  19.864  0.00  0.00    +0.000 A 
ATOM     20  C   UNL     1       3.460   4.781  19.402  0.00  0.00    +0.000 A 
ATOM     21 CL   UNL     1       4.911   5.364  18.694  0.00  0.00    +0.000 Cl
ENDBRANCH  13  15
BRANCH  12  22
ATOM     22  N   UNL     1       3.396   8.560  18.008  0.00  0.00    +0.000 NA
ATOM     23  H   UNL     1       4.057   8.086  17.389  0.00  0.00    +0.000 HD
ATOM     24  H   UNL     1       3.036   9.260  17.340  0.00  0.00    +0.000 HD
ENDBRANCH  12  22
BRANCH   1  26
ATOM     25  C   UNL     1      -2.991  10.125  14.655  0.00  0.00    +0.000 C 
ATOM     26  O   UNL     1      -3.179   9.958  16.042  0.00  0.00    +0.000 OA
ENDBRANCH   1  26
TORSDOF 3
ENDMDL
MODEL 8
REMARK VINA RESULT:      -6.2     11.219     13.085
REMARK  Name = 
REMARK  4 active torsions:
REMARK  status: ('A' for Active; 'I' for Inactive)
REMARK    1  A    between atoms: C_1  and  O_2
REMARK    2  A    between atoms: O_2  and  C_3
REMARK    3  A    between atoms: C_14  and  N_15
REMARK    4  A    between atoms: C_16  and  C_17
REMARK                            x       y       z     vdW  Elec       q    Type
REMARK                         _______ _______ _______ _____ _____    ______ ____
ROOT
ATOM      1  C   UNL     1      -1.376  10.887  18.195  0.00  0.00    +0.000 A 
ATOM      2  C   UNL     1      -2.037  10.439  17.068  0.00  0.00    +0.000 A 
ATOM      3  C   UNL     1      -3.439  10.574  16.996  0.00  0.00    +0.000 A 
ATOM      4  C   UNL     1      -4.202  11.186  18.061  0.00  0.00    +0.000 A 
ATOM      5  C   UNL     1      -5.614  11.271  18.143  0.00  0.00    +0.000 A 
ATOM      6  C   UNL     1      -6.265  11.792  19.300  0.00  0.00    +0.000 A 
ATOM      7  C   UNL     1      -5.512  12.391  20.323  0.00  0.00    +0.000 A 
ATOM      8  C   UNL     1      -4.169  12.502  20.086  0.00  0.00    +0.000 A 
ATOM      9  C   UNL     1      -3.502  11.712  19.095  0.00  0.00    +0.000 A 
ATOM     10  C   UNL     1      -2.091  11.541  19.190  0.00  0.00    +0.000 A 
ATOM     11  C   UNL     1      -3.407  13.697  20.458  0.00  0.00    +0.000 C 
ATOM     12  C   UNL     1      -4.371  14.609  21.117  0.00  0.00    +0.000 C 
ATOM     13  C   UNL     1      -5.524  14.110  22.030  0.00  0.00    +0.000 C 
ATOM     14  O   UNL     1      -6.065  12.849  21.516  0.00  0.00    +0.000 OA
ENDROOT
BRANCH  13  15
ATOM     15  C   UNL     1      -4.958  14.501  23.458  0.00  0.00    +0.000 A 
ATOM     16  C   UNL     1      -5.260  15.851  23.901  0.00  0.00    +0.000 A 
ATOM     17  C   UNL     1      -4.378  16.592  24.700  0.00  0.00    +0.000 A 
ATOM     18  C   UNL     1      -3.267  15.961  25.231  0.00  0.00    +0.000 A 
ATOM     19  C   UNL     1      -3.061  14.599  24.967  0.00  0.00    +0.000 A 
ATOM     20  C   UNL     1      -3.885  13.873  24.075  0.00  0.00    +0.000 A 
ATOM     21 CL   UNL     1      -3.463  12.251  23.707  0.00  0.00    +0.000 Cl
ENDBRANCH  13  15
BRANCH  12  22
ATOM     22  N   UNL     1      -5.000  15.473  20.090  0.00  0.00    +0.000 NA
ATOM     23  H   UNL     1      -5.066  16.427  20.451  0.00  0.00    +0.000 HD
ATOM     24  H   UNL     1      -4.282  15.632  19.367  0.00  0.00    +0.000 HD
ENDBRANCH  12  22
BRANCH   1  26
ATOM     25  C   UNL     1       0.278  10.144  19.749  0.00  0.00    +0.000 C 
ATOM     26  O   UNL     1      -0.061  10.761  18.528  0.00  0.00    +0.000 OA
ENDBRANCH   1  26
TORSDOF 3
ENDMDL
MODEL 9
REMARK VINA RESULT:      -6.2     10.142     11.886
REMARK  Name = 
REMARK  4 active torsions:
REMARK  status: ('A' for Active; 'I' for Inactive)
REMARK    1  A    between atoms: C_1  and  O_2
REMARK    2  A    between atoms: O_2  and  C_3
REMARK    3  A    between atoms: C_14  and  N_15
REMARK    4  A    between atoms: C_16  and  C_17
REMARK                            x       y       z     vdW  Elec       q    Type
REMARK                         _______ _______ _______ _____ _____    ______ ____
ROOT
ATOM      1  C   UNL     1       0.167  17.530  18.747  0.00  0.00    +0.000 A 
ATOM      2  C   UNL     1       0.987  17.885  19.801  0.00  0.00    +0.000 A 
ATOM      3  C   UNL     1       1.202  16.960  20.844  0.00  0.00    +0.000 A 
ATOM      4  C   UNL     1       0.604  15.644  20.832  0.00  0.00    +0.000 A 
ATOM      5  C   UNL     1       0.662  14.684  21.873  0.00  0.00    +0.000 A 
ATOM      6  C   UNL     1      -0.067  13.460  21.800  0.00  0.00    +0.000 A 
ATOM      7  C   UNL     1      -0.729  13.102  20.615  0.00  0.00    +0.000 A 
ATOM      8  C   UNL     1      -0.554  13.951  19.557  0.00  0.00    +0.000 A 
ATOM      9  C   UNL     1      -0.099  15.298  19.727  0.00  0.00    +0.000 A 
ATOM     10  C   UNL     1      -0.352  16.243  18.691  0.00  0.00    +0.000 A 
ATOM     11  C   UNL     1      -0.362  13.462  18.188  0.00  0.00    +0.000 C 
ATOM     12  C   UNL     1      -0.449  11.984  18.264  0.00  0.00    +0.000 C 
ATOM     13  C   UNL     1      -1.415  11.239  19.226  0.00  0.00    +0.000 C 
ATOM     14  O   UNL     1      -1.526  11.967  20.494  0.00  0.00    +0.000 OA
ENDROOT
BRANCH  13  15
ATOM     15  C   UNL     1      -2.520  10.743  18.204  0.00  0.00    +0.000 A 
ATOM     16  C   UNL     1      -2.033   9.918  17.111  0.00  0.00    +0.000 A 
ATOM     17  C   UNL     1      -2.614   9.949  15.835  0.00  0.00    +0.000 A 
ATOM     18  C   UNL     1      -3.793  10.649  15.654  0.00  0.00    +0.000 A 
ATOM     19  C   UNL     1      -4.381  11.296  16.751  0.00  0.00    +0.000 A 
ATOM     20  C   UNL     1      -3.747  11.362  18.013  0.00  0.00    +0.000 A 
ATOM     21 CL   UNL     1      -4.479  12.300  19.250  0.00  0.00    +0.000 Cl
ENDBRANCH  13  15
BRANCH  12  22
ATOM     22  N   UNL     1       0.902  11.434  18.526  0.00  0.00    +0.000 NA
ATOM     23  H   UNL     1       1.501  12.178  18.889  0.00  0.00    +0.000 HD
ATOM     24  H   UNL     1       0.822  10.868  19.385  0.00  0.00    +0.000 HD
ENDBRANCH  12  22
BRANCH   1  26
ATOM     25  C   UNL     1       0.579  18.466  16.589  0.00  0.00    +0.000 C 
ATOM     26  O   UNL     1      -0.267  18.289  17.703  0.00  0.00    +0.000 OA
ENDBRANCH   1  26
TORSDOF 3
ENDMDL
