MODEL 1
REMARK VINA RESULT:      -5.9      0.000      0.000
REMARK  Name = 
REMARK  2 active torsions:
REMARK  status: ('A' for Active; 'I' for Inactive)
REMARK    1  A    between atoms: C_1  and  C_2
REMARK    2  A    between atoms: C_5  and  O_6
REMARK                            x       y       z     vdW  Elec       q    Type
REMARK                         _______ _______ _______ _____ _____    ______ ____
ROOT
ATOM      1  C   UNL     1       4.668   2.064  20.109  0.00  0.00    +0.000 C 
ATOM      2  C   UNL     1       4.096   3.412  19.767  0.00  0.00    +0.000 A 
ATOM      3  C   UNL     1       2.878   3.907  20.265  0.00  0.00    +0.000 A 
ATOM      4 BR   UNL     1       1.796   2.890  21.463  0.00  0.00    +0.000 Br
ATOM      5  C   UNL     1       2.413   5.188  19.888  0.00  0.00    +0.000 A 
ATOM      6  C   UNL     1       3.150   5.997  19.013  0.00  0.00    +0.000 A 
ATOM      7 BR   UNL     1       2.509   7.716  18.516  0.00  0.00    +0.000 Br
ATOM      8  C   UNL     1       4.353   5.514  18.516  0.00  0.00    +0.000 A 
ATOM      9  S   UNL     1       5.501   6.268  17.415  0.00  0.00    +0.000 S 
ATOM     10  C   UNL     1       6.514   4.835  17.528  0.00  0.00    +0.000 A 
ATOM     11  O   UNL     1       7.573   4.737  16.921  0.00  0.00    +0.000 OA
ATOM     12  O   UNL     1       6.030   3.825  18.353  0.00  0.00    +0.000 OA
ATOM     13  C   UNL     1       4.807   4.247  18.893  0.00  0.00    +0.000 A 
ENDROOT
BRANCH   5  14
ATOM     14  O   UNL     1       1.222   5.665  20.379  0.00  0.00    +0.000 OA
ATOM     15  H   UNL     1       0.549   5.591  19.677  0.00  0.00    +0.000 HD
ENDBRANCH   5  14
TORSDOF 1
ENDMDL
MODEL 2
REMARK VINA RESULT:      -5.8      2.141      3.516
REMARK  Name = 
REMARK  2 active torsions:
REMARK  status: ('A' for Active; 'I' for Inactive)
REMARK    1  A    between atoms: C_1  and  C_2
REMARK    2  A    between atoms: C_5  and  O_6
REMARK                            x       y       z     vdW  Elec       q    Type
REMARK                         _______ _______ _______ _____ _____    ______ ____
ROOT
ATOM      1  C   UNL     1       2.716   8.534  17.867  0.00  0.00    +0.000 C 
ATOM      2  C   UNL     1       3.030   7.165  18.402  0.00  0.00    +0.000 A 
ATOM      3  C   UNL     1       2.520   6.647  19.605  0.00  0.00    +0.000 A 
ATOM      4 BR   UNL     1       1.341   7.658  20.713  0.00  0.00    +0.000 Br
ATOM      5  C   UNL     1       2.871   5.347  20.036  0.00  0.00    +0.000 A 
ATOM      6  C   UNL     1       3.731   4.541  19.278  0.00  0.00    +0.000 A 
ATOM      7 BR   UNL     1       4.193   2.796  19.872  0.00  0.00    +0.000 Br
ATOM      8  C   UNL     1       4.239   5.047  18.089  0.00  0.00    +0.000 A 
ATOM      9  S   UNL     1       5.327   4.302  16.922  0.00  0.00    +0.000 S 
ATOM     10  C   UNL     1       5.244   5.765  15.948  0.00  0.00    +0.000 A 
ATOM     11  O   UNL     1       5.855   5.879  14.893  0.00  0.00    +0.000 OA
ATOM     12  O   UNL     1       4.438   6.777  16.459  0.00  0.00    +0.000 OA
ATOM     13  C   UNL     1       3.889   6.333  17.669  0.00  0.00    +0.000 A 
ENDROOT
BRANCH   5  14
ATOM     14  O   UNL     1       2.369   4.847  21.212  0.00  0.00    +0.000 OA
ATOM     15  H   UNL     1       2.332   5.572  21.863  0.00  0.00    +0.000 HD
ENDBRANCH   5  14
TORSDOF 1
ENDMDL
MODEL 3
REMARK VINA RESULT:      -5.8      2.818      4.692
REMARK  Name = 
REMARK  2 active torsions:
REMARK  status: ('A' for Active; 'I' for Inactive)
REMARK    1  A    between atoms: C_1  and  C_2
REMARK    2  A    between atoms: C_5  and  O_6
REMARK                            x       y       z     vdW  Elec       q    Type
REMARK                         _______ _______ _______ _____ _____    ______ ____
ROOT
ATOM      1  C   UNL     1       1.371   7.187  20.710  0.00  0.00    +0.000 C 
ATOM      2  C   UNL     1       2.300   6.496  19.751  0.00  0.00    +0.000 A 
ATOM      3  C   UNL     1       2.806   7.079  18.577  0.00  0.00    +0.000 A 
ATOM      4 BR   UNL     1       2.356   8.862  18.067  0.00  0.00    +0.000 Br
ATOM      5  C   UNL     1       3.675   6.354  17.729  0.00  0.00    +0.000 A 
ATOM      6  C   UNL     1       4.054   5.040  18.034  0.00  0.00    +0.000 A 
ATOM      7 BR   UNL     1       5.221   4.079  16.882  0.00  0.00    +0.000 Br
ATOM      8  C   UNL     1       3.557   4.457  19.192  0.00  0.00    +0.000 A 
ATOM      9  S   UNL     1       3.834   2.849  19.852  0.00  0.00    +0.000 S 
ATOM     10  C   UNL     1       2.780   3.248  21.202  0.00  0.00    +0.000 A 
ATOM     11  O   UNL     1       2.545   2.451  22.101  0.00  0.00    +0.000 OA
ATOM     12  O   UNL     1       2.237   4.528  21.177  0.00  0.00    +0.000 OA
ATOM     13  C   UNL     1       2.699   5.179  20.025  0.00  0.00    +0.000 A 
ENDROOT
BRANCH   5  14
ATOM     14  O   UNL     1       4.166   6.930  16.583  0.00  0.00    +0.000 OA
ATOM     15  H   UNL     1       4.159   6.260  15.874  0.00  0.00    +0.000 HD
ENDBRANCH   5  14
TORSDOF 1
ENDMDL
MODEL 4
REMARK VINA RESULT:      -5.7      2.250      3.767
REMARK  Name = 
REMARK  2 active torsions:
REMARK  status: ('A' for Active; 'I' for Inactive)
REMARK    1  A    between atoms: C_1  and  C_2
REMARK    2  A    between atoms: C_5  and  O_6
REMARK                            x       y       z     vdW  Elec       q    Type
REMARK                         _______ _______ _______ _____ _____    ______ ____
ROOT
ATOM      1  C   UNL     1       1.196   5.329  20.636  0.00  0.00    +0.000 C 
ATOM      2  C   UNL     1       2.474   5.068  19.890  0.00  0.00    +0.000 A 
ATOM      3  C   UNL     1       3.270   3.921  20.058  0.00  0.00    +0.000 A 
ATOM      4 BR   UNL     1       2.794   2.539  21.284  0.00  0.00    +0.000 Br
ATOM      5  C   UNL     1       4.461   3.756  19.314  0.00  0.00    +0.000 A 
ATOM      6  C   UNL     1       4.879   4.726  18.392  0.00  0.00    +0.000 A 
ATOM      7 BR   UNL     1       6.484   4.488  17.403  0.00  0.00    +0.000 Br
ATOM      8  C   UNL     1       4.098   5.861  18.222  0.00  0.00    +0.000 A 
ATOM      9  S   UNL     1       4.339   7.244  17.161  0.00  0.00    +0.000 S 
ATOM     10  C   UNL     1       2.848   7.946  17.777  0.00  0.00    +0.000 A 
ATOM     11  O   UNL     1       2.427   9.026  17.386  0.00  0.00    +0.000 OA
ATOM     12  O   UNL     1       2.184   7.187  18.737  0.00  0.00    +0.000 OA
ATOM     13  C   UNL     1       2.922   6.017  18.961  0.00  0.00    +0.000 A 
ENDROOT
BRANCH   5  14
ATOM     14  O   UNL     1       5.235   2.634  19.483  0.00  0.00    +0.000 OA
ATOM     15  H   UNL     1       5.482   2.570  20.424  0.00  0.00    +0.000 HD
ENDBRANCH   5  14
TORSDOF 1
ENDMDL
MODEL 5
REMARK VINA RESULT:      -5.7      1.468      1.468
REMARK  Name = 
REMARK  2 active torsions:
REMARK  status: ('A' for Active; 'I' for Inactive)
REMARK    1  A    between atoms: C_1  and  C_2
REMARK    2  A    between atoms: C_5  and  O_6
REMARK                            x       y       z     vdW  Elec       q    Type
REMARK                         _______ _______ _______ _____ _____    ______ ____
ROOT
ATOM      1  C   UNL     1       3.606   1.621  18.543  0.00  0.00    +0.000 C 
ATOM      2  C   UNL     1       3.410   3.110  18.483  0.00  0.00    +0.000 A 
ATOM      3  C   UNL     1       2.546   3.831  19.325  0.00  0.00    +0.000 A 
ATOM      4 BR   UNL     1       1.505   2.968  20.671  0.00  0.00    +0.000 Br
ATOM      5  C   UNL     1       2.420   5.234  19.198  0.00  0.00    +0.000 A 
ATOM      6  C   UNL     1       3.151   5.941  18.234  0.00  0.00    +0.000 A 
ATOM      7 BR   UNL     1       2.969   7.826  18.075  0.00  0.00    +0.000 Br
ATOM      8  C   UNL     1       4.006   5.235  17.398  0.00  0.00    +0.000 A 
ATOM      9  S   UNL     1       5.049   5.816  16.104  0.00  0.00    +0.000 S 
ATOM     10  C   UNL     1       5.576   4.162  15.821  0.00  0.00    +0.000 A 
ATOM     11  O   UNL     1       6.390   3.878  14.951  0.00  0.00    +0.000 OA
ATOM     12  O   UNL     1       5.007   3.203  16.653  0.00  0.00    +0.000 OA
ATOM     13  C   UNL     1       4.125   3.849  17.529  0.00  0.00    +0.000 A 
ENDROOT
BRANCH   5  14
ATOM     14  O   UNL     1       1.574   5.932  20.024  0.00  0.00    +0.000 OA
ATOM     15  H   UNL     1       0.757   6.132  19.529  0.00  0.00    +0.000 HD
ENDBRANCH   5  14
TORSDOF 1
ENDMDL
MODEL 6
REMARK VINA RESULT:      -5.5      2.817      4.855
REMARK  Name = 
REMARK  2 active torsions:
REMARK  status: ('A' for Active; 'I' for Inactive)
REMARK    1  A    between atoms: C_1  and  C_2
REMARK    2  A    between atoms: C_5  and  O_6
REMARK                            x       y       z     vdW  Elec       q    Type
REMARK                         _______ _______ _______ _____ _____    ______ ____
ROOT
ATOM      1  C   UNL     1       4.808   6.886  16.619  0.00  0.00    +0.000 C 
ATOM      2  C   UNL     1       4.238   5.724  17.383  0.00  0.00    +0.000 A 
ATOM      3  C   UNL     1       4.532   4.376  17.114  0.00  0.00    +0.000 A 
ATOM      4 BR   UNL     1       5.723   3.870  15.711  0.00  0.00    +0.000 Br
ATOM      5  C   UNL     1       3.948   3.343  17.883  0.00  0.00    +0.000 A 
ATOM      6  C   UNL     1       3.064   3.633  18.931  0.00  0.00    +0.000 A 
ATOM      7 BR   UNL     1       2.287   2.232  19.953  0.00  0.00    +0.000 Br
ATOM      8  C   UNL     1       2.768   4.962  19.201  0.00  0.00    +0.000 A 
ATOM      9  S   UNL     1       1.714   5.653  20.430  0.00  0.00    +0.000 S 
ATOM     10  C   UNL     1       2.117   7.260  19.838  0.00  0.00    +0.000 A 
ATOM     11  O   UNL     1       1.648   8.274  20.338  0.00  0.00    +0.000 OA
ATOM     12  O   UNL     1       3.005   7.295  18.768  0.00  0.00    +0.000 OA
ATOM     13  C   UNL     1       3.349   5.978  18.437  0.00  0.00    +0.000 A 
ENDROOT
BRANCH   5  14
ATOM     14  O   UNL     1       4.241   2.028  17.614  0.00  0.00    +0.000 OA
ATOM     15  H   UNL     1       3.522   1.475  17.972  0.00  0.00    +0.000 HD
ENDBRANCH   5  14
TORSDOF 1
ENDMDL
MODEL 7
REMARK VINA RESULT:      -5.5      2.126      4.127
REMARK  Name = 
REMARK  2 active torsions:
REMARK  status: ('A' for Active; 'I' for Inactive)
REMARK    1  A    between atoms: C_1  and  C_2
REMARK    2  A    between atoms: C_5  and  O_6
REMARK                            x       y       z     vdW  Elec       q    Type
REMARK                         _______ _______ _______ _____ _____    ______ ____
ROOT
ATOM      1  C   UNL     1       2.225   4.419  21.197  0.00  0.00    +0.000 C 
ATOM      2  C   UNL     1       2.958   4.804  19.942  0.00  0.00    +0.000 A 
ATOM      3  C   UNL     1       3.857   3.967  19.260  0.00  0.00    +0.000 A 
ATOM      4 BR   UNL     1       4.249   2.203  19.873  0.00  0.00    +0.000 Br
ATOM      5  C   UNL     1       4.506   4.412  18.085  0.00  0.00    +0.000 A 
ATOM      6  C   UNL     1       4.271   5.694  17.570  0.00  0.00    +0.000 A 
ATOM      7 BR   UNL     1       5.154   6.276  15.991  0.00  0.00    +0.000 Br
ATOM      8  C   UNL     1       3.385   6.526  18.239  0.00  0.00    +0.000 A 
ATOM      9  S   UNL     1       2.878   8.169  17.860  0.00  0.00    +0.000 S 
ATOM     10  C   UNL     1       1.845   8.153  19.284  0.00  0.00    +0.000 A 
ATOM     11  O   UNL     1       1.156   9.114  19.599  0.00  0.00    +0.000 OA
ATOM     12  O   UNL     1       1.865   6.974  20.022  0.00  0.00    +0.000 OA
ATOM     13  C   UNL     1       2.747   6.080  19.400  0.00  0.00    +0.000 A 
ENDROOT
BRANCH   5  14
ATOM     14  O   UNL     1       5.384   3.588  17.423  0.00  0.00    +0.000 OA
ATOM     15  H   UNL     1       6.144   4.123  17.129  0.00  0.00    +0.000 HD
ENDBRANCH   5  14
TORSDOF 1
ENDMDL
MODEL 8
REMARK VINA RESULT:      -5.3      2.886      4.333
REMARK  Name = 
REMARK  2 active torsions:
REMARK  status: ('A' for Active; 'I' for Inactive)
REMARK    1  A    between atoms: C_1  and  C_2
REMARK    2  A    between atoms: C_5  and  O_6
REMARK                            x       y       z     vdW  Elec       q    Type
REMARK                         _______ _______ _______ _____ _____    ______ ____
ROOT
ATOM      1  C   UNL     1       4.232   1.746  17.850  0.00  0.00    +0.000 C 
ATOM      2  C   UNL     1       3.862   3.197  17.986  0.00  0.00    +0.000 A 
ATOM      3  C   UNL     1       4.344   4.220  17.152  0.00  0.00    +0.000 A 
ATOM      4 BR   UNL     1       5.550   3.862  15.718  0.00  0.00    +0.000 Br
ATOM      5  C   UNL     1       3.945   5.562  17.354  0.00  0.00    +0.000 A 
ATOM      6  C   UNL     1       3.061   5.907  18.385  0.00  0.00    +0.000 A 
ATOM      7 BR   UNL     1       2.537   7.715  18.642  0.00  0.00    +0.000 Br
ATOM      8  C   UNL     1       2.582   4.901  19.213  0.00  0.00    +0.000 A 
ATOM      9  S   UNL     1       1.476   4.999  20.579  0.00  0.00    +0.000 S 
ATOM     10  C   UNL     1       1.620   3.258  20.790  0.00  0.00    +0.000 A 
ATOM     11  O   UNL     1       1.024   2.658  21.674  0.00  0.00    +0.000 OA
ATOM     12  O   UNL     1       2.456   2.615  19.882  0.00  0.00    +0.000 OA
ATOM     13  C   UNL     1       2.980   3.577  19.008  0.00  0.00    +0.000 A 
ENDROOT
BRANCH   5  14
ATOM     14  O   UNL     1       4.420   6.557  16.535  0.00  0.00    +0.000 OA
ATOM     15  H   UNL     1       4.753   7.282  17.095  0.00  0.00    +0.000 HD
ENDBRANCH   5  14
TORSDOF 1
ENDMDL
MODEL 9
REMARK VINA RESULT:      -5.2      1.644      1.644
REMARK  Name = 
REMARK  2 active torsions:
REMARK  status: ('A' for Active; 'I' for Inactive)
REMARK    1  A    between atoms: C_1  and  C_2
REMARK    2  A    between atoms: C_5  and  O_6
REMARK                            x       y       z     vdW  Elec       q    Type
REMARK                         _______ _______ _______ _____ _____    ______ ____
ROOT
ATOM      1  C   UNL     1       3.634   2.086  17.725  0.00  0.00    +0.000 C 
ATOM      2  C   UNL     1       3.248   3.461  18.191  0.00  0.00    +0.000 A 
ATOM      3  C   UNL     1       2.332   3.722  19.226  0.00  0.00    +0.000 A 
ATOM      4 BR   UNL     1       1.462   2.312  20.174  0.00  0.00    +0.000 Br
ATOM      5  C   UNL     1       2.025   5.050  19.599  0.00  0.00    +0.000 A 
ATOM      6  C   UNL     1       2.623   6.140  18.952  0.00  0.00    +0.000 A 
ATOM      7 BR   UNL     1       2.197   7.920  19.465  0.00  0.00    +0.000 Br
ATOM      8  C   UNL     1       3.527   5.891  17.929  0.00  0.00    +0.000 A 
ATOM      9  S   UNL     1       4.437   7.020  16.931  0.00  0.00    +0.000 S 
ATOM     10  C   UNL     1       5.159   5.655  16.088  0.00  0.00    +0.000 A 
ATOM     11  O   UNL     1       5.967   5.804  15.181  0.00  0.00    +0.000 OA
ATOM     12  O   UNL     1       4.748   4.399  16.525  0.00  0.00    +0.000 OA
ATOM     13  C   UNL     1       3.826   4.575  17.565  0.00  0.00    +0.000 A 
ENDROOT
BRANCH   5  14
ATOM     14  O   UNL     1       1.130   5.297  20.611  0.00  0.00    +0.000 OA
ATOM     15  H   UNL     1       1.187   4.568  21.256  0.00  0.00    +0.000 HD
ENDBRANCH   5  14
TORSDOF 1
ENDMDL
