MODEL 1
REMARK VINA RESULT:      -8.0      0.000      0.000
REMARK  Name = 
REMARK  12 active torsions:
REMARK  status: ('A' for Active; 'I' for Inactive)
REMARK    1  A    between atoms: C_1  and  C_2
REMARK    2  A    between atoms: C_2  and  O_3
REMARK    3  A    between atoms: O_3  and  C_4
REMARK    4  A    between atoms: C_4  and  C_6
REMARK    5  A    between atoms: C_8  and  C_9
REMARK    6  A    between atoms: C_9  and  C_10
REMARK    7  A    between atoms: C_12  and  N_13
REMARK    8  A    between atoms: C_14  and  C_16
REMARK    9  A    between atoms: C_16  and  S_17
REMARK   10  A    between atoms: S_17  and  C_18
REMARK   11  A    between atoms: N_28  and  C_29
REMARK   12  A    between atoms: C_29  and  C_30
REMARK                            x       y       z     vdW  Elec       q    Type
REMARK                         _______ _______ _______ _____ _____    ______ ____
ROOT
ATOM      1  S   UNL     1       2.430   7.477  19.082  0.00  0.00    +0.000 S 
ENDROOT
BRANCH   1   2
ATOM      2  C   UNL     1       3.329   6.290  18.151  0.00  0.00    +0.000 A 
ATOM      3  N   UNL     1       4.461   6.665  17.657  0.00  0.00    +0.000 NA
ATOM      4  C   UNL     1       5.192   5.762  16.881  0.00  0.00    +0.000 A 
ATOM      5  C   UNL     1       6.409   6.167  16.329  0.00  0.00    +0.000 A 
ATOM      6  C   UNL     1       7.143   5.302  15.512  0.00  0.00    +0.000 A 
ATOM      7  C   UNL     1       6.662   4.022  15.238  0.00  0.00    +0.000 A 
ATOM      8  C   UNL     1       5.456   3.603  15.796  0.00  0.00    +0.000 A 
ATOM      9  C   UNL     1       4.735   4.476  16.618  0.00  0.00    +0.000 A 
ATOM     10  C   UNL     1       3.460   4.071  17.222  0.00  0.00    +0.000 A 
ATOM     11  O   UNL     1       3.040   2.932  17.027  0.00  0.00    +0.000 OA
ATOM     12  N   UNL     1       2.780   5.028  17.975  0.00  0.00    +0.000 N 
BRANCH  12  13
ATOM     13  C   UNL     1       1.473   4.607  18.485  0.00  0.00    +0.000 C 
BRANCH  13  14
ATOM     14  C   UNL     1       1.591   3.839  19.754  0.00  0.00    +0.000 A 
ATOM     15  C   UNL     1       0.966   2.711  20.248  0.00  0.00    +0.000 A 
ATOM     16  C   UNL     1       1.408   2.560  21.587  0.00  0.00    +0.000 A 
ATOM     17  C   UNL     1       2.295   3.586  21.814  0.00  0.00    +0.000 A 
ATOM     18  O   UNL     1       2.410   4.367  20.710  0.00  0.00    +0.000 OA
ENDBRANCH  13  14
ENDBRANCH  12  13
ENDBRANCH   1   2
BRANCH   1  19
ATOM     19  C   UNL     1       2.276   8.852  17.893  0.00  0.00    +0.000 C 
BRANCH  19  21
ATOM     20  N   UNL     1       0.370   9.688  19.195  0.00  0.00    +0.000 N 
ATOM     21  C   UNL     1       1.457  10.037  18.407  0.00  0.00    +0.000 C 
ATOM     22  O   UNL     1       1.806  11.193  18.160  0.00  0.00    +0.000 OA
ATOM     23  H   UNL     1      -0.042   8.794  18.962  0.00  0.00    +0.000 HD
BRANCH  20  28
ATOM     24  C   UNL     1      -1.630  11.257  19.140  0.00  0.00    +0.000 A 
ATOM     25  C   UNL     1      -2.154  12.198  20.097  0.00  0.00    +0.000 A 
ATOM     26  C   UNL     1      -1.485  12.198  21.301  0.00  0.00    +0.000 A 
ATOM     27  S   UNL     1      -0.075  11.238  21.208  0.00  0.00    +0.000 S 
ATOM     28  C   UNL     1      -0.500  10.654  19.658  0.00  0.00    +0.000 A 
BRANCH  24  29
ATOM     29  C   UNL     1      -2.274  11.070  17.843  0.00  0.00    +0.000 C 
ATOM     30  O   UNL     1      -1.878  10.233  17.041  0.00  0.00    +0.000 OA
BRANCH  29  31
ATOM     31  O   UNL     1      -3.340  11.889  17.612  0.00  0.00    +0.000 OA
BRANCH  31  33
ATOM     32  C   UNL     1      -5.712  12.174  17.266  0.00  0.00    +0.000 C 
ATOM     33  C   UNL     1      -4.546  11.210  17.248  0.00  0.00    +0.000 C 
ENDBRANCH  31  33
ENDBRANCH  29  31
ENDBRANCH  24  29
BRANCH  26  34
ATOM     34  C   UNL     1      -1.891  12.927  22.545  0.00  0.00    +0.000 C 
ATOM     35  C   UNL     1      -2.873  12.102  23.370  0.00  0.00    +0.000 C 
ENDBRANCH  26  34
ENDBRANCH  20  28
ENDBRANCH  19  21
ENDBRANCH   1  19
TORSDOF 10
ENDMDL
MODEL 2
REMARK VINA RESULT:      -8.0      2.029      9.207
REMARK  Name = 
REMARK  12 active torsions:
REMARK  status: ('A' for Active; 'I' for Inactive)
REMARK    1  A    between atoms: C_1  and  C_2
REMARK    2  A    between atoms: C_2  and  O_3
REMARK    3  A    between atoms: O_3  and  C_4
REMARK    4  A    between atoms: C_4  and  C_6
REMARK    5  A    between atoms: C_8  and  C_9
REMARK    6  A    between atoms: C_9  and  C_10
REMARK    7  A    between atoms: C_12  and  N_13
REMARK    8  A    between atoms: C_14  and  C_16
REMARK    9  A    between atoms: C_16  and  S_17
REMARK   10  A    between atoms: S_17  and  C_18
REMARK   11  A    between atoms: N_28  and  C_29
REMARK   12  A    between atoms: C_29  and  C_30
REMARK                            x       y       z     vdW  Elec       q    Type
REMARK                         _______ _______ _______ _____ _____    ______ ____
ROOT
ATOM      1  S   UNL     1       1.706   9.574  18.446  0.00  0.00    +0.000 S 
ENDROOT
BRANCH   1   2
ATOM      2  C   UNL     1       0.062  10.177  18.323  0.00  0.00    +0.000 A 
ATOM      3  N   UNL     1      -0.631   9.791  17.304  0.00  0.00    +0.000 NA
ATOM      4  C   UNL     1      -1.932  10.274  17.151  0.00  0.00    +0.000 A 
ATOM      5  C   UNL     1      -2.681   9.875  16.041  0.00  0.00    +0.000 A 
ATOM      6  C   UNL     1      -3.971  10.375  15.835  0.00  0.00    +0.000 A 
ATOM      7  C   UNL     1      -4.521  11.283  16.739  0.00  0.00    +0.000 A 
ATOM      8  C   UNL     1      -3.788  11.677  17.856  0.00  0.00    +0.000 A 
ATOM      9  C   UNL     1      -2.501  11.163  18.055  0.00  0.00    +0.000 A 
ATOM     10  C   UNL     1      -1.698  11.555  19.219  0.00  0.00    +0.000 A 
ATOM     11  O   UNL     1      -2.182  12.322  20.050  0.00  0.00    +0.000 OA
ATOM     12  N   UNL     1      -0.404  11.042  19.301  0.00  0.00    +0.000 N 
BRANCH  12  13
ATOM     13  C   UNL     1       0.388  11.530  20.433  0.00  0.00    +0.000 C 
BRANCH  13  14
ATOM     14  C   UNL     1       0.266  10.643  21.622  0.00  0.00    +0.000 A 
ATOM     15  C   UNL     1      -0.761  10.358  22.498  0.00  0.00    +0.000 A 
ATOM     16  C   UNL     1      -0.208   9.542  23.517  0.00  0.00    +0.000 A 
ATOM     17  C   UNL     1       1.112   9.357  23.182  0.00  0.00    +0.000 A 
ATOM     18  O   UNL     1       1.410  10.022  22.037  0.00  0.00    +0.000 OA
ENDBRANCH  13  14
ENDBRANCH  12  13
ENDBRANCH   1   2
BRANCH   1  19
ATOM     19  C   UNL     1       1.499   8.124  19.532  0.00  0.00    +0.000 C 
BRANCH  19  21
ATOM     20  N   UNL     1       2.909   6.931  17.916  0.00  0.00    +0.000 N 
ATOM     21  C   UNL     1       2.449   6.967  19.224  0.00  0.00    +0.000 C 
ATOM     22  O   UNL     1       2.795   6.186  20.113  0.00  0.00    +0.000 OA
ATOM     23  H   UNL     1       2.259   7.305  17.236  0.00  0.00    +0.000 HD
BRANCH  20  28
ATOM     24  C   UNL     1       3.516   4.537  17.311  0.00  0.00    +0.000 A 
ATOM     25  C   UNL     1       4.721   3.941  16.794  0.00  0.00    +0.000 A 
ATOM     26  C   UNL     1       5.712   4.851  16.505  0.00  0.00    +0.000 A 
ATOM     27  S   UNL     1       5.290   6.406  17.074  0.00  0.00    +0.000 S 
ATOM     28  C   UNL     1       3.709   5.894  17.481  0.00  0.00    +0.000 A 
BRANCH  24  29
ATOM     29  C   UNL     1       2.337   3.723  17.591  0.00  0.00    +0.000 C 
ATOM     30  O   UNL     1       1.209   4.096  17.292  0.00  0.00    +0.000 OA
BRANCH  29  31
ATOM     31  O   UNL     1       2.599   2.530  18.198  0.00  0.00    +0.000 OA
BRANCH  31  33
ATOM     32  C   UNL     1       4.041   2.323  20.124  0.00  0.00    +0.000 C 
ATOM     33  C   UNL     1       2.636   2.582  19.628  0.00  0.00    +0.000 C 
ENDBRANCH  31  33
ENDBRANCH  29  31
ENDBRANCH  24  29
BRANCH  26  34
ATOM     34  C   UNL     1       7.003   4.569  15.798  0.00  0.00    +0.000 C 
ATOM     35  C   UNL     1       6.869   4.797  14.296  0.00  0.00    +0.000 C 
ENDBRANCH  26  34
ENDBRANCH  20  28
ENDBRANCH  19  21
ENDBRANCH   1  19
TORSDOF 10
ENDMDL
MODEL 3
REMARK VINA RESULT:      -7.9      1.704      3.791
REMARK  Name = 
REMARK  12 active torsions:
REMARK  status: ('A' for Active; 'I' for Inactive)
REMARK    1  A    between atoms: C_1  and  C_2
REMARK    2  A    between atoms: C_2  and  O_3
REMARK    3  A    between atoms: O_3  and  C_4
REMARK    4  A    between atoms: C_4  and  C_6
REMARK    5  A    between atoms: C_8  and  C_9
REMARK    6  A    between atoms: C_9  and  C_10
REMARK    7  A    between atoms: C_12  and  N_13
REMARK    8  A    between atoms: C_14  and  C_16
REMARK    9  A    between atoms: C_16  and  S_17
REMARK   10  A    between atoms: S_17  and  C_18
REMARK   11  A    between atoms: N_28  and  C_29
REMARK   12  A    between atoms: C_29  and  C_30
REMARK                            x       y       z     vdW  Elec       q    Type
REMARK                         _______ _______ _______ _____ _____    ______ ____
ROOT
ATOM      1  S   UNL     1       2.963   8.082  17.724  0.00  0.00    +0.000 S 
ENDROOT
BRANCH   1   2
ATOM      2  C   UNL     1       3.136   6.335  17.712  0.00  0.00    +0.000 A 
ATOM      3  N   UNL     1       2.267   5.654  18.381  0.00  0.00    +0.000 NA
ATOM      4  C   UNL     1       2.388   4.263  18.426  0.00  0.00    +0.000 A 
ATOM      5  C   UNL     1       1.462   3.521  19.163  0.00  0.00    +0.000 A 
ATOM      6  C   UNL     1       1.581   2.132  19.263  0.00  0.00    +0.000 A 
ATOM      7  C   UNL     1       2.633   1.472  18.629  0.00  0.00    +0.000 A 
ATOM      8  C   UNL     1       3.554   2.201  17.880  0.00  0.00    +0.000 A 
ATOM      9  C   UNL     1       3.419   3.591  17.780  0.00  0.00    +0.000 A 
ATOM     10  C   UNL     1       4.371   4.393  17.002  0.00  0.00    +0.000 A 
ATOM     11  O   UNL     1       5.280   3.825  16.400  0.00  0.00    +0.000 OA
ATOM     12  N   UNL     1       4.194   5.776  17.012  0.00  0.00    +0.000 N 
BRANCH  12  13
ATOM     13  C   UNL     1       5.217   6.539  16.293  0.00  0.00    +0.000 C 
BRANCH  13  14
ATOM     14  C   UNL     1       6.421   6.788  17.133  0.00  0.00    +0.000 A 
ATOM     15  C   UNL     1       7.026   6.094  18.162  0.00  0.00    +0.000 A 
ATOM     16  C   UNL     1       8.062   6.927  18.655  0.00  0.00    +0.000 A 
ATOM     17  C   UNL     1       8.041   8.061  17.877  0.00  0.00    +0.000 A 
ATOM     18  O   UNL     1       7.049   7.987  16.955  0.00  0.00    +0.000 OA
ENDBRANCH  13  14
ENDBRANCH  12  13
ENDBRANCH   1   2
BRANCH   1  19
ATOM     19  C   UNL     1       2.010   8.358  19.255  0.00  0.00    +0.000 C 
BRANCH  19  21
ATOM     20  N   UNL     1       0.033   9.605  20.002  0.00  0.00    +0.000 N 
ATOM     21  C   UNL     1       1.209   9.660  19.269  0.00  0.00    +0.000 C 
ATOM     22  O   UNL     1       1.641  10.668  18.707  0.00  0.00    +0.000 OA
ATOM     23  H   UNL     1      -0.401   8.691  20.023  0.00  0.00    +0.000 HD
BRANCH  20  28
ATOM     24  C   UNL     1      -1.721  11.227  19.132  0.00  0.00    +0.000 A 
ATOM     25  C   UNL     1      -2.376  12.363  19.729  0.00  0.00    +0.000 A 
ATOM     26  C   UNL     1      -2.040  12.569  21.047  0.00  0.00    +0.000 A 
ATOM     27  S   UNL     1      -0.755  11.543  21.511  0.00  0.00    +0.000 S 
ATOM     28  C   UNL     1      -0.827  10.684  20.034  0.00  0.00    +0.000 A 
BRANCH  24  29
ATOM     29  C   UNL     1      -2.029  10.817  17.765  0.00  0.00    +0.000 C 
ATOM     30  O   UNL     1      -1.608   9.766  17.296  0.00  0.00    +0.000 OA
BRANCH  29  31
ATOM     31  O   UNL     1      -2.816  11.688  17.071  0.00  0.00    +0.000 OA
BRANCH  31  33
ATOM     32  C   UNL     1      -5.227  11.816  17.072  0.00  0.00    +0.000 C 
ATOM     33  C   UNL     1      -4.006  11.112  16.523  0.00  0.00    +0.000 C 
ENDBRANCH  31  33
ENDBRANCH  29  31
ENDBRANCH  24  29
BRANCH  26  34
ATOM     34  C   UNL     1      -2.675  13.549  21.986  0.00  0.00    +0.000 C 
ATOM     35  C   UNL     1      -3.362  12.835  23.145  0.00  0.00    +0.000 C 
ENDBRANCH  26  34
ENDBRANCH  20  28
ENDBRANCH  19  21
ENDBRANCH   1  19
TORSDOF 10
ENDMDL
MODEL 4
REMARK VINA RESULT:      -7.8      2.554      4.823
REMARK  Name = 
REMARK  12 active torsions:
REMARK  status: ('A' for Active; 'I' for Inactive)
REMARK    1  A    between atoms: C_1  and  C_2
REMARK    2  A    between atoms: C_2  and  O_3
REMARK    3  A    between atoms: O_3  and  C_4
REMARK    4  A    between atoms: C_4  and  C_6
REMARK    5  A    between atoms: C_8  and  C_9
REMARK    6  A    between atoms: C_9  and  C_10
REMARK    7  A    between atoms: C_12  and  N_13
REMARK    8  A    between atoms: C_14  and  C_16
REMARK    9  A    between atoms: C_16  and  S_17
REMARK   10  A    between atoms: S_17  and  C_18
REMARK   11  A    between atoms: N_28  and  C_29
REMARK   12  A    between atoms: C_29  and  C_30
REMARK                            x       y       z     vdW  Elec       q    Type
REMARK                         _______ _______ _______ _____ _____    ______ ____
ROOT
ATOM      1  S   UNL     1       2.953   8.110  17.841  0.00  0.00    +0.000 S 
ENDROOT
BRANCH   1   2
ATOM      2  C   UNL     1       2.929   6.363  18.012  0.00  0.00    +0.000 A 
ATOM      3  N   UNL     1       2.061   5.864  18.826  0.00  0.00    +0.000 NA
ATOM      4  C   UNL     1       2.031   4.481  19.017  0.00  0.00    +0.000 A 
ATOM      5  C   UNL     1       1.105   3.935  19.910  0.00  0.00    +0.000 A 
ATOM      6  C   UNL     1       1.079   2.560  20.157  0.00  0.00    +0.000 A 
ATOM      7  C   UNL     1       1.984   1.716  19.513  0.00  0.00    +0.000 A 
ATOM      8  C   UNL     1       2.902   2.248  18.610  0.00  0.00    +0.000 A 
ATOM      9  C   UNL     1       2.912   3.626  18.366  0.00  0.00    +0.000 A 
ATOM     10  C   UNL     1       3.866   4.223  17.422  0.00  0.00    +0.000 A 
ATOM     11  O   UNL     1       4.643   3.492  16.813  0.00  0.00    +0.000 OA
ATOM     12  N   UNL     1       3.845   5.611  17.291  0.00  0.00    +0.000 N 
BRANCH  12  13
ATOM     13  C   UNL     1       4.870   6.168  16.405  0.00  0.00    +0.000 C 
BRANCH  13  14
ATOM     14  C   UNL     1       6.130   6.478  17.135  0.00  0.00    +0.000 A 
ATOM     15  C   UNL     1       6.836   5.837  18.133  0.00  0.00    +0.000 A 
ATOM     16  C   UNL     1       7.883   6.715  18.512  0.00  0.00    +0.000 A 
ATOM     17  C   UNL     1       7.767   7.820  17.703  0.00  0.00    +0.000 A 
ATOM     18  O   UNL     1       6.706   7.687  16.867  0.00  0.00    +0.000 OA
ENDBRANCH  13  14
ENDBRANCH  12  13
ENDBRANCH   1   2
BRANCH   1  19
ATOM     19  C   UNL     1       1.794   8.635  19.148  0.00  0.00    +0.000 C 
BRANCH  19  21
ATOM     20  N   UNL     1       1.412  11.003  19.667  0.00  0.00    +0.000 N 
ATOM     21  C   UNL     1       1.058   9.941  18.848  0.00  0.00    +0.000 C 
ATOM     22  O   UNL     1       0.264  10.011  17.908  0.00  0.00    +0.000 OA
ATOM     23  H   UNL     1       1.694  10.732  20.600  0.00  0.00    +0.000 HD
BRANCH  20  28
ATOM     24  C   UNL     1      -0.459  12.696  19.976  0.00  0.00    +0.000 A 
ATOM     25  C   UNL     1      -0.590  14.080  19.597  0.00  0.00    +0.000 A 
ATOM     26  C   UNL     1       0.542  14.608  19.019  0.00  0.00    +0.000 A 
ATOM     27  S   UNL     1       1.691  13.382  18.710  0.00  0.00    +0.000 S 
ATOM     28  C   UNL     1       0.768  12.219  19.558  0.00  0.00    +0.000 A 
BRANCH  24  29
ATOM     29  C   UNL     1      -1.538  12.006  20.677  0.00  0.00    +0.000 C 
ATOM     30  O   UNL     1      -2.684  12.439  20.684  0.00  0.00    +0.000 OA
BRANCH  29  31
ATOM     31  O   UNL     1      -1.164  10.854  21.305  0.00  0.00    +0.000 OA
BRANCH  31  33
ATOM     32  C   UNL     1      -0.203   9.738  23.219  0.00  0.00    +0.000 C 
ATOM     33  C   UNL     1      -0.822  11.012  22.686  0.00  0.00    +0.000 C 
ENDBRANCH  31  33
ENDBRANCH  29  31
ENDBRANCH  24  29
BRANCH  26  34
ATOM     34  C   UNL     1       0.781  16.048  18.680  0.00  0.00    +0.000 C 
ATOM     35  C   UNL     1      -0.528  16.762  18.360  0.00  0.00    +0.000 C 
ENDBRANCH  26  34
ENDBRANCH  20  28
ENDBRANCH  19  21
ENDBRANCH   1  19
TORSDOF 10
ENDMDL
MODEL 5
REMARK VINA RESULT:      -7.8      0.976      1.194
REMARK  Name = 
REMARK  12 active torsions:
REMARK  status: ('A' for Active; 'I' for Inactive)
REMARK    1  A    between atoms: C_1  and  C_2
REMARK    2  A    between atoms: C_2  and  O_3
REMARK    3  A    between atoms: O_3  and  C_4
REMARK    4  A    between atoms: C_4  and  C_6
REMARK    5  A    between atoms: C_8  and  C_9
REMARK    6  A    between atoms: C_9  and  C_10
REMARK    7  A    between atoms: C_12  and  N_13
REMARK    8  A    between atoms: C_14  and  C_16
REMARK    9  A    between atoms: C_16  and  S_17
REMARK   10  A    between atoms: S_17  and  C_18
REMARK   11  A    between atoms: N_28  and  C_29
REMARK   12  A    between atoms: C_29  and  C_30
REMARK                            x       y       z     vdW  Elec       q    Type
REMARK                         _______ _______ _______ _____ _____    ______ ____
ROOT
ATOM      1  S   UNL     1       2.364   7.203  19.017  0.00  0.00    +0.000 S 
ENDROOT
BRANCH   1   2
ATOM      2  C   UNL     1       3.284   6.077  18.032  0.00  0.00    +0.000 A 
ATOM      3  N   UNL     1       4.339   6.536  17.446  0.00  0.00    +0.000 NA
ATOM      4  C   UNL     1       5.081   5.683  16.626  0.00  0.00    +0.000 A 
ATOM      5  C   UNL     1       6.213   6.177  15.975  0.00  0.00    +0.000 A 
ATOM      6  C   UNL     1       6.952   5.360  15.113  0.00  0.00    +0.000 A 
ATOM      7  C   UNL     1       6.560   4.040  14.893  0.00  0.00    +0.000 A 
ATOM      8  C   UNL     1       5.441   3.533  15.549  0.00  0.00    +0.000 A 
ATOM      9  C   UNL     1       4.714   4.358  16.415  0.00  0.00    +0.000 A 
ATOM     10  C   UNL     1       3.528   3.860  17.123  0.00  0.00    +0.000 A 
ATOM     11  O   UNL     1       3.192   2.687  16.975  0.00  0.00    +0.000 OA
ATOM     12  N   UNL     1       2.832   4.772  17.915  0.00  0.00    +0.000 N 
BRANCH  12  13
ATOM     13  C   UNL     1       1.608   4.253  18.532  0.00  0.00    +0.000 C 
BRANCH  13  14
ATOM     14  C   UNL     1       1.872   3.633  19.859  0.00  0.00    +0.000 A 
ATOM     15  C   UNL     1       3.011   3.172  20.487  0.00  0.00    +0.000 A 
ATOM     16  C   UNL     1       2.586   2.554  21.690  0.00  0.00    +0.000 A 
ATOM     17  C   UNL     1       1.220   2.702  21.733  0.00  0.00    +0.000 A 
ATOM     18  O   UNL     1       0.778   3.353  20.627  0.00  0.00    +0.000 OA
ENDBRANCH  13  14
ENDBRANCH  12  13
ENDBRANCH   1   2
BRANCH   1  19
ATOM     19  C   UNL     1       2.281   8.671  17.937  0.00  0.00    +0.000 C 
BRANCH  19  21
ATOM     20  N   UNL     1       0.588   9.536  19.490  0.00  0.00    +0.000 N 
ATOM     21  C   UNL     1       1.561   9.868  18.559  0.00  0.00    +0.000 C 
ATOM     22  O   UNL     1       1.892  11.019  18.266  0.00  0.00    +0.000 OA
ATOM     23  H   UNL     1       0.133   8.649  19.317  0.00  0.00    +0.000 HD
BRANCH  20  28
ATOM     24  C   UNL     1      -1.082  11.451  19.576  0.00  0.00    +0.000 A 
ATOM     25  C   UNL     1      -1.634  12.210  20.668  0.00  0.00    +0.000 A 
ATOM     26  C   UNL     1      -1.235  11.771  21.910  0.00  0.00    +0.000 A 
ATOM     27  S   UNL     1      -0.007  10.591  21.767  0.00  0.00    +0.000 S 
ATOM     28  C   UNL     1      -0.193  10.515  20.068  0.00  0.00    +0.000 A 
BRANCH  24  29
ATOM     29  C   UNL     1      -1.469  11.731  18.196  0.00  0.00    +0.000 C 
ATOM     30  O   UNL     1      -1.064  12.723  17.602  0.00  0.00    +0.000 OA
BRANCH  29  31
ATOM     31  O   UNL     1      -2.300  10.806  17.637  0.00  0.00    +0.000 OA
BRANCH  31  33
ATOM     32  C   UNL     1      -2.956   9.794  15.545  0.00  0.00    +0.000 C 
ATOM     33  C   UNL     1      -2.681  11.084  16.286  0.00  0.00    +0.000 C 
ENDBRANCH  31  33
ENDBRANCH  29  31
ENDBRANCH  24  29
BRANCH  26  34
ATOM     34  C   UNL     1      -1.765  12.234  23.232  0.00  0.00    +0.000 C 
ATOM     35  C   UNL     1      -3.285  12.358  23.203  0.00  0.00    +0.000 C 
ENDBRANCH  26  34
ENDBRANCH  20  28
ENDBRANCH  19  21
ENDBRANCH   1  19
TORSDOF 10
ENDMDL
MODEL 6
REMARK VINA RESULT:      -7.7      2.631      5.083
REMARK  Name = 
REMARK  12 active torsions:
REMARK  status: ('A' for Active; 'I' for Inactive)
REMARK    1  A    between atoms: C_1  and  C_2
REMARK    2  A    between atoms: C_2  and  O_3
REMARK    3  A    between atoms: O_3  and  C_4
REMARK    4  A    between atoms: C_4  and  C_6
REMARK    5  A    between atoms: C_8  and  C_9
REMARK    6  A    between atoms: C_9  and  C_10
REMARK    7  A    between atoms: C_12  and  N_13
REMARK    8  A    between atoms: C_14  and  C_16
REMARK    9  A    between atoms: C_16  and  S_17
REMARK   10  A    between atoms: S_17  and  C_18
REMARK   11  A    between atoms: N_28  and  C_29
REMARK   12  A    between atoms: C_29  and  C_30
REMARK                            x       y       z     vdW  Elec       q    Type
REMARK                         _______ _______ _______ _____ _____    ______ ____
ROOT
ATOM      1  S   UNL     1       3.385   7.709  17.425  0.00  0.00    +0.000 S 
ENDROOT
BRANCH   1   2
ATOM      2  C   UNL     1       3.425   6.209  18.337  0.00  0.00    +0.000 A 
ATOM      3  N   UNL     1       2.336   5.856  18.935  0.00  0.00    +0.000 NA
ATOM      4  C   UNL     1       2.334   4.688  19.699  0.00  0.00    +0.000 A 
ATOM      5  C   UNL     1       1.165   4.309  20.363  0.00  0.00    +0.000 A 
ATOM      6  C   UNL     1       1.142   3.168  21.171  0.00  0.00    +0.000 A 
ATOM      7  C   UNL     1       2.294   2.397  21.325  0.00  0.00    +0.000 A 
ATOM      8  C   UNL     1       3.462   2.758  20.656  0.00  0.00    +0.000 A 
ATOM      9  C   UNL     1       3.469   3.898  19.844  0.00  0.00    +0.000 A 
ATOM     10  C   UNL     1       4.680   4.310  19.124  0.00  0.00    +0.000 A 
ATOM     11  O   UNL     1       5.693   3.620  19.213  0.00  0.00    +0.000 OA
ATOM     12  N   UNL     1       4.611   5.493  18.390  0.00  0.00    +0.000 N 
BRANCH  12  13
ATOM     13  C   UNL     1       5.867   5.910  17.761  0.00  0.00    +0.000 C 
BRANCH  13  14
ATOM     14  C   UNL     1       6.020   5.345  16.392  0.00  0.00    +0.000 A 
ATOM     15  C   UNL     1       5.248   4.504  15.616  0.00  0.00    +0.000 A 
ATOM     16  C   UNL     1       6.009   4.215  14.455  0.00  0.00    +0.000 A 
ATOM     17  C   UNL     1       7.183   4.920  14.584  0.00  0.00    +0.000 A 
ATOM     18  O   UNL     1       7.199   5.605  15.755  0.00  0.00    +0.000 OA
ENDBRANCH  13  14
ENDBRANCH  12  13
ENDBRANCH   1   2
BRANCH   1  19
ATOM     19  C   UNL     1       1.678   8.284  17.714  0.00  0.00    +0.000 C 
BRANCH  19  21
ATOM     20  N   UNL     1       1.298  10.674  18.122  0.00  0.00    +0.000 N 
ATOM     21  C   UNL     1       1.565   9.443  18.704  0.00  0.00    +0.000 C 
ATOM     22  O   UNL     1       1.657   9.242  19.917  0.00  0.00    +0.000 OA
ATOM     23  H   UNL     1       1.671  10.782  17.188  0.00  0.00    +0.000 HD
BRANCH  20  28
ATOM     24  C   UNL     1       0.417  12.263  19.900  0.00  0.00    +0.000 A 
ATOM     25  C   UNL     1       0.869  13.551  20.363  0.00  0.00    +0.000 A 
ATOM     26  C   UNL     1       2.043  13.971  19.780  0.00  0.00    +0.000 A 
ATOM     27  S   UNL     1       2.487  12.931  18.499  0.00  0.00    +0.000 S 
ATOM     28  C   UNL     1       1.250  11.818  18.892  0.00  0.00    +0.000 A 
BRANCH  24  29
ATOM     29  C   UNL     1      -0.767  11.633  20.477  0.00  0.00    +0.000 C 
ATOM     30  O   UNL     1      -1.779  11.436  19.816  0.00  0.00    +0.000 OA
BRANCH  29  31
ATOM     31  O   UNL     1      -0.645  11.283  21.789  0.00  0.00    +0.000 OA
BRANCH  31  33
ATOM     32  C   UNL     1      -0.001   9.550  23.344  0.00  0.00    +0.000 C 
ATOM     33  C   UNL     1      -0.696   9.875  22.039  0.00  0.00    +0.000 C 
ENDBRANCH  31  33
ENDBRANCH  29  31
ENDBRANCH  24  29
BRANCH  26  34
ATOM     34  C   UNL     1       2.853  15.170  20.170  0.00  0.00    +0.000 C 
ATOM     35  C   UNL     1       3.334  15.061  21.613  0.00  0.00    +0.000 C 
ENDBRANCH  26  34
ENDBRANCH  20  28
ENDBRANCH  19  21
ENDBRANCH   1  19
TORSDOF 10
ENDMDL
MODEL 7
REMARK VINA RESULT:      -7.7      2.212      4.581
REMARK  Name = 
REMARK  12 active torsions:
REMARK  status: ('A' for Active; 'I' for Inactive)
REMARK    1  A    between atoms: C_1  and  C_2
REMARK    2  A    between atoms: C_2  and  O_3
REMARK    3  A    between atoms: O_3  and  C_4
REMARK    4  A    between atoms: C_4  and  C_6
REMARK    5  A    between atoms: C_8  and  C_9
REMARK    6  A    between atoms: C_9  and  C_10
REMARK    7  A    between atoms: C_12  and  N_13
REMARK    8  A    between atoms: C_14  and  C_16
REMARK    9  A    between atoms: C_16  and  S_17
REMARK   10  A    between atoms: S_17  and  C_18
REMARK   11  A    between atoms: N_28  and  C_29
REMARK   12  A    between atoms: C_29  and  C_30
REMARK                            x       y       z     vdW  Elec       q    Type
REMARK                         _______ _______ _______ _____ _____    ______ ____
ROOT
ATOM      1  S   UNL     1       3.330   7.890  17.727  0.00  0.00    +0.000 S 
ENDROOT
BRANCH   1   2
ATOM      2  C   UNL     1       3.371   6.335  18.541  0.00  0.00    +0.000 A 
ATOM      3  N   UNL     1       2.283   5.944  19.115  0.00  0.00    +0.000 NA
ATOM      4  C   UNL     1       2.281   4.729  19.803  0.00  0.00    +0.000 A 
ATOM      5  C   UNL     1       1.112   4.308  20.442  0.00  0.00    +0.000 A 
ATOM      6  C   UNL     1       1.091   3.118  21.176  0.00  0.00    +0.000 A 
ATOM      7  C   UNL     1       2.243   2.339  21.280  0.00  0.00    +0.000 A 
ATOM      8  C   UNL     1       3.410   2.743  20.635  0.00  0.00    +0.000 A 
ATOM      9  C   UNL     1       3.417   3.932  19.897  0.00  0.00    +0.000 A 
ATOM     10  C   UNL     1       4.627   4.391  19.206  0.00  0.00    +0.000 A 
ATOM     11  O   UNL     1       5.641   3.697  19.250  0.00  0.00    +0.000 OA
ATOM     12  N   UNL     1       4.558   5.618  18.548  0.00  0.00    +0.000 N 
BRANCH  12  13
ATOM     13  C   UNL     1       5.813   6.075  17.947  0.00  0.00    +0.000 C 
BRANCH  13  14
ATOM     14  C   UNL     1       6.090   5.398  16.651  0.00  0.00    +0.000 A 
ATOM     15  C   UNL     1       7.181   4.722  16.142  0.00  0.00    +0.000 A 
ATOM     16  C   UNL     1       6.881   4.437  14.786  0.00  0.00    +0.000 A 
ATOM     17  C   UNL     1       5.617   4.930  14.563  0.00  0.00    +0.000 A 
ATOM     18  O   UNL     1       5.131   5.516  15.686  0.00  0.00    +0.000 OA
ENDBRANCH  13  14
ENDBRANCH  12  13
ENDBRANCH   1   2
BRANCH   1  19
ATOM     19  C   UNL     1       1.561   8.323  17.824  0.00  0.00    +0.000 C 
BRANCH  19  21
ATOM     20  N   UNL     1       1.035  10.713  18.002  0.00  0.00    +0.000 N 
ATOM     21  C   UNL     1       1.258   9.537  18.702  0.00  0.00    +0.000 C 
ATOM     22  O   UNL     1       1.174   9.419  19.926  0.00  0.00    +0.000 OA
ATOM     23  H   UNL     1       1.539  10.779  17.128  0.00  0.00    +0.000 HD
BRANCH  20  28
ATOM     24  C   UNL     1      -0.255  12.467  19.315  0.00  0.00    +0.000 A 
ATOM     25  C   UNL     1       0.126  13.742  19.869  0.00  0.00    +0.000 A 
ATOM     26  C   UNL     1       1.462  14.036  19.720  0.00  0.00    +0.000 A 
ATOM     27  S   UNL     1       2.224  12.892  18.705  0.00  0.00    +0.000 S 
ATOM     28  C   UNL     1       0.829  11.902  18.674  0.00  0.00    +0.000 A 
BRANCH  24  29
ATOM     29  C   UNL     1      -1.618  11.964  19.460  0.00  0.00    +0.000 C 
ATOM     30  O   UNL     1      -2.383  12.409  20.307  0.00  0.00    +0.000 OA
BRANCH  29  31
ATOM     31  O   UNL     1      -1.958  10.978  18.581  0.00  0.00    +0.000 OA
BRANCH  31  33
ATOM     32  C   UNL     1      -4.171  10.882  17.619  0.00  0.00    +0.000 C 
ATOM     33  C   UNL     1      -2.761  11.412  17.479  0.00  0.00    +0.000 C 
ENDBRANCH  31  33
ENDBRANCH  29  31
ENDBRANCH  24  29
BRANCH  26  34
ATOM     34  C   UNL     1       2.194  15.190  20.335  0.00  0.00    +0.000 C 
ATOM     35  C   UNL     1       2.218  15.080  21.856  0.00  0.00    +0.000 C 
ENDBRANCH  26  34
ENDBRANCH  20  28
ENDBRANCH  19  21
ENDBRANCH   1  19
TORSDOF 10
ENDMDL
MODEL 8
REMARK VINA RESULT:      -7.6      2.028      4.807
REMARK  Name = 
REMARK  12 active torsions:
REMARK  status: ('A' for Active; 'I' for Inactive)
REMARK    1  A    between atoms: C_1  and  C_2
REMARK    2  A    between atoms: C_2  and  O_3
REMARK    3  A    between atoms: O_3  and  C_4
REMARK    4  A    between atoms: C_4  and  C_6
REMARK    5  A    between atoms: C_8  and  C_9
REMARK    6  A    between atoms: C_9  and  C_10
REMARK    7  A    between atoms: C_12  and  N_13
REMARK    8  A    between atoms: C_14  and  C_16
REMARK    9  A    between atoms: C_16  and  S_17
REMARK   10  A    between atoms: S_17  and  C_18
REMARK   11  A    between atoms: N_28  and  C_29
REMARK   12  A    between atoms: C_29  and  C_30
REMARK                            x       y       z     vdW  Elec       q    Type
REMARK                         _______ _______ _______ _____ _____    ______ ____
ROOT
ATOM      1  S   UNL     1       3.059   8.159  17.771  0.00  0.00    +0.000 S 
ENDROOT
BRANCH   1   2
ATOM      2  C   UNL     1       3.005   6.419  17.995  0.00  0.00    +0.000 A 
ATOM      3  N   UNL     1       2.130   5.961  18.827  0.00  0.00    +0.000 NA
ATOM      4  C   UNL     1       2.076   4.585  19.060  0.00  0.00    +0.000 A 
ATOM      5  C   UNL     1       1.143   4.084  19.972  0.00  0.00    +0.000 A 
ATOM      6  C   UNL     1       1.093   2.717  20.261  0.00  0.00    +0.000 A 
ATOM      7  C   UNL     1       1.981   1.838  19.640  0.00  0.00    +0.000 A 
ATOM      8  C   UNL     1       2.905   2.325  18.719  0.00  0.00    +0.000 A 
ATOM      9  C   UNL     1       2.940   3.695  18.433  0.00  0.00    +0.000 A 
ATOM     10  C   UNL     1       3.900   4.246  17.469  0.00  0.00    +0.000 A 
ATOM     11  O   UNL     1       4.662   3.482  16.880  0.00  0.00    +0.000 OA
ATOM     12  N   UNL     1       3.904   5.629  17.295  0.00  0.00    +0.000 N 
BRANCH  12  13
ATOM     13  C   UNL     1       4.937   6.140  16.390  0.00  0.00    +0.000 C 
BRANCH  13  14
ATOM     14  C   UNL     1       6.183   6.508  17.116  0.00  0.00    +0.000 A 
ATOM     15  C   UNL     1       6.922   5.900  18.111  0.00  0.00    +0.000 A 
ATOM     16  C   UNL     1       7.928   6.825  18.487  0.00  0.00    +0.000 A 
ATOM     17  C   UNL     1       7.758   7.923  17.678  0.00  0.00    +0.000 A 
ATOM     18  O   UNL     1       6.702   7.742  16.846  0.00  0.00    +0.000 OA
ENDBRANCH  13  14
ENDBRANCH  12  13
ENDBRANCH   1   2
BRANCH   1  19
ATOM     19  C   UNL     1       2.131   8.758  19.222  0.00  0.00    +0.000 C 
BRANCH  19  21
ATOM     20  N   UNL     1      -0.180   9.548  19.458  0.00  0.00    +0.000 N 
ATOM     21  C   UNL     1       1.063   9.802  18.897  0.00  0.00    +0.000 C 
ATOM     22  O   UNL     1       1.345  10.802  18.233  0.00  0.00    +0.000 OA
ATOM     23  H   UNL     1      -0.390   8.566  19.577  0.00  0.00    +0.000 HD
BRANCH  20  28
ATOM     24  C   UNL     1      -1.802  11.478  19.794  0.00  0.00    +0.000 A 
ATOM     25  C   UNL     1      -2.930  11.944  19.029  0.00  0.00    +0.000 A 
ATOM     26  C   UNL     1      -3.128  11.256  17.854  0.00  0.00    +0.000 A 
ATOM     27  S   UNL     1      -2.103   9.891  17.772  0.00  0.00    +0.000 S 
ATOM     28  C   UNL     1      -1.256  10.367  19.180  0.00  0.00    +0.000 A 
BRANCH  24  29
ATOM     29  C   UNL     1      -1.401  12.151  21.026  0.00  0.00    +0.000 C 
ATOM     30  O   UNL     1      -0.223  12.304  21.324  0.00  0.00    +0.000 OA
BRANCH  29  31
ATOM     31  O   UNL     1      -2.436  12.591  21.798  0.00  0.00    +0.000 OA
BRANCH  31  33
ATOM     32  C   UNL     1      -3.616  12.646  23.904  0.00  0.00    +0.000 C 
ATOM     33  C   UNL     1      -2.461  12.056  23.125  0.00  0.00    +0.000 C 
ENDBRANCH  31  33
ENDBRANCH  29  31
ENDBRANCH  24  29
BRANCH  26  34
ATOM     34  C   UNL     1      -4.098  11.608  16.767  0.00  0.00    +0.000 C 
ATOM     35  C   UNL     1      -3.779  10.855  15.480  0.00  0.00    +0.000 C 
ENDBRANCH  26  34
ENDBRANCH  20  28
ENDBRANCH  19  21
ENDBRANCH   1  19
TORSDOF 10
ENDMDL
MODEL 9
REMARK VINA RESULT:      -7.6      1.625      4.255
REMARK  Name = 
REMARK  12 active torsions:
REMARK  status: ('A' for Active; 'I' for Inactive)
REMARK    1  A    between atoms: C_1  and  C_2
REMARK    2  A    between atoms: C_2  and  O_3
REMARK    3  A    between atoms: O_3  and  C_4
REMARK    4  A    between atoms: C_4  and  C_6
REMARK    5  A    between atoms: C_8  and  C_9
REMARK    6  A    between atoms: C_9  and  C_10
REMARK    7  A    between atoms: C_12  and  N_13
REMARK    8  A    between atoms: C_14  and  C_16
REMARK    9  A    between atoms: C_16  and  S_17
REMARK   10  A    between atoms: S_17  and  C_18
REMARK   11  A    between atoms: N_28  and  C_29
REMARK   12  A    between atoms: C_29  and  C_30
REMARK                            x       y       z     vdW  Elec       q    Type
REMARK                         _______ _______ _______ _____ _____    ______ ____
ROOT
ATOM      1  S   UNL     1       3.368   7.861  17.766  0.00  0.00    +0.000 S 
ENDROOT
BRANCH   1   2
ATOM      2  C   UNL     1       3.404   6.303  18.575  0.00  0.00    +0.000 A 
ATOM      3  N   UNL     1       2.320   5.921  19.163  0.00  0.00    +0.000 NA
ATOM      4  C   UNL     1       2.315   4.704  19.847  0.00  0.00    +0.000 A 
ATOM      5  C   UNL     1       1.151   4.293  20.500  0.00  0.00    +0.000 A 
ATOM      6  C   UNL     1       1.127   3.101  21.230  0.00  0.00    +0.000 A 
ATOM      7  C   UNL     1       2.273   2.310  21.316  0.00  0.00    +0.000 A 
ATOM      8  C   UNL     1       3.435   2.703  20.656  0.00  0.00    +0.000 A 
ATOM      9  C   UNL     1       3.444   3.895  19.922  0.00  0.00    +0.000 A 
ATOM     10  C   UNL     1       4.649   4.343  19.215  0.00  0.00    +0.000 A 
ATOM     11  O   UNL     1       5.656   3.639  19.243  0.00  0.00    +0.000 OA
ATOM     12  N   UNL     1       4.583   5.574  18.563  0.00  0.00    +0.000 N 
BRANCH  12  13
ATOM     13  C   UNL     1       5.835   6.019  17.946  0.00  0.00    +0.000 C 
BRANCH  13  14
ATOM     14  C   UNL     1       6.095   5.331  16.652  0.00  0.00    +0.000 A 
ATOM     15  C   UNL     1       7.229   4.817  16.056  0.00  0.00    +0.000 A 
ATOM     16  C   UNL     1       6.852   4.418  14.749  0.00  0.00    +0.000 A 
ATOM     17  C   UNL     1       5.508   4.687  14.641  0.00  0.00    +0.000 A 
ATOM     18  O   UNL     1       5.041   5.242  15.788  0.00  0.00    +0.000 OA
ENDBRANCH  13  14
ENDBRANCH  12  13
ENDBRANCH   1   2
BRANCH   1  19
ATOM     19  C   UNL     1       1.585   8.242  17.756  0.00  0.00    +0.000 C 
BRANCH  19  21
ATOM     20  N   UNL     1       0.261   9.689  19.232  0.00  0.00    +0.000 N 
ATOM     21  C   UNL     1       1.240   9.647  18.251  0.00  0.00    +0.000 C 
ATOM     22  O   UNL     1       1.850  10.630  17.822  0.00  0.00    +0.000 OA
ATOM     23  H   UNL     1      -0.421   8.944  19.171  0.00  0.00    +0.000 HD
BRANCH  20  28
ATOM     24  C   UNL     1      -1.369  11.617  19.535  0.00  0.00    +0.000 A 
ATOM     25  C   UNL     1      -1.310  12.826  20.316  0.00  0.00    +0.000 A 
ATOM     26  C   UNL     1      -0.187  12.924  21.106  0.00  0.00    +0.000 A 
ATOM     27  S   UNL     1       0.922  11.677  20.737  0.00  0.00    +0.000 S 
ATOM     28  C   UNL     1      -0.203  10.897  19.711  0.00  0.00    +0.000 A 
BRANCH  24  29
ATOM     29  C   UNL     1      -2.532  11.315  18.706  0.00  0.00    +0.000 C 
ATOM     30  O   UNL     1      -3.526  12.032  18.704  0.00  0.00    +0.000 OA
BRANCH  29  31
ATOM     31  O   UNL     1      -2.414  10.190  17.945  0.00  0.00    +0.000 OA
BRANCH  31  33
ATOM     32  C   UNL     1      -3.341  10.141  15.715  0.00  0.00    +0.000 C 
ATOM     33  C   UNL     1      -2.122  10.430  16.565  0.00  0.00    +0.000 C 
ENDBRANCH  31  33
ENDBRANCH  29  31
ENDBRANCH  24  29
BRANCH  26  34
ATOM     34  C   UNL     1       0.079  13.963  22.151  0.00  0.00    +0.000 C 
ATOM     35  C   UNL     1      -1.219  14.452  22.785  0.00  0.00    +0.000 C 
ENDBRANCH  26  34
ENDBRANCH  20  28
ENDBRANCH  19  21
ENDBRANCH   1  19
TORSDOF 10
ENDMDL
