MODEL 1
REMARK VINA RESULT:      -8.1      0.000      0.000
REMARK  Name = 
REMARK  8 active torsions:
REMARK  status: ('A' for Active; 'I' for Inactive)
REMARK    1  A    between atoms: C_1  and  C_2
REMARK    2  A    between atoms: C_2  and  C_3
REMARK    3  A    between atoms: C_3  and  C_4
REMARK    4  A    between atoms: C_4  and  C_5
REMARK    5  A    between atoms: N_7  and  N_8
REMARK    6  A    between atoms: C_9  and  C_10
REMARK    7  A    between atoms: C_9  and  C_11
REMARK    8  A    between atoms: C_12  and  C_13
REMARK                            x       y       z     vdW  Elec       q    Type
REMARK                         _______ _______ _______ _____ _____    ______ ____
ROOT
ATOM      1  N   UNL     1       6.086   5.245  16.091  0.00  0.00    +0.000 NA
ATOM      2  C   UNL     1       6.356   4.763  17.270  0.00  0.00    +0.000 C 
ATOM      3  C   UNL     1       7.721   4.634  17.900  0.00  0.00    +0.000 C 
ENDROOT
BRANCH   1   6
ATOM      4  C   UNL     1       7.269   5.107  14.035  0.00  0.00    +0.000 C 
ATOM      5  O   UNL     1       8.166   5.512  13.298  0.00  0.00    +0.000 OA
ATOM      6  N   UNL     1       7.057   5.691  15.265  0.00  0.00    +0.000 N 
ATOM      7  H   UNL     1       7.694   6.435  15.526  0.00  0.00    +0.000 HD
BRANCH   4   8
ATOM      8  C   UNL     1       6.308   3.992  13.647  0.00  0.00    +0.000 C 
BRANCH   8   9
ATOM      9  C   UNL     1       6.513   3.534  12.209  0.00  0.00    +0.000 C 
BRANCH   9  11
ATOM     10  C   UNL     1       4.174   3.270  11.324  0.00  0.00    +0.000 C 
ATOM     11  C   UNL     1       5.426   2.546  11.788  0.00  0.00    +0.000 C 
ENDBRANCH   9  11
ENDBRANCH   8   9
ENDBRANCH   4   8
ENDBRANCH   1   6
BRANCH   2  12
ATOM     12  C   UNL     1       5.158   4.317  18.041  0.00  0.00    +0.000 C 
ATOM     13  C   UNL     1       3.907   4.771  17.877  0.00  0.00    +0.000 C 
BRANCH  13  14
ATOM     14  C   UNL     1       2.763   4.248  18.644  0.00  0.00    +0.000 A 
ATOM     15  C   UNL     1       2.368   4.814  19.867  0.00  0.00    +0.000 A 
ATOM     16  C   UNL     1       1.291   4.283  20.586  0.00  0.00    +0.000 A 
ATOM     17  C   UNL     1       0.605   3.171  20.103  0.00  0.00    +0.000 A 
ATOM     18  C   UNL     1       1.001   2.582  18.904  0.00  0.00    +0.000 A 
ATOM     19  C   UNL     1       2.073   3.116  18.191  0.00  0.00    +0.000 A 
ATOM     20  F   UNL     1       2.437   2.521  17.043  0.00  0.00    +0.000 F 
ENDBRANCH  13  14
ENDBRANCH   2  12
TORSDOF 6
ENDMDL
MODEL 2
REMARK VINA RESULT:      -7.9      0.985      1.195
REMARK  Name = 
REMARK  8 active torsions:
REMARK  status: ('A' for Active; 'I' for Inactive)
REMARK    1  A    between atoms: C_1  and  C_2
REMARK    2  A    between atoms: C_2  and  C_3
REMARK    3  A    between atoms: C_3  and  C_4
REMARK    4  A    between atoms: C_4  and  C_5
REMARK    5  A    between atoms: N_7  and  N_8
REMARK    6  A    between atoms: C_9  and  C_10
REMARK    7  A    between atoms: C_9  and  C_11
REMARK    8  A    between atoms: C_12  and  C_13
REMARK                            x       y       z     vdW  Elec       q    Type
REMARK                         _______ _______ _______ _____ _____    ______ ____
ROOT
ATOM      1  N   UNL     1       6.403   4.942  16.293  0.00  0.00    +0.000 NA
ATOM      2  C   UNL     1       5.326   5.584  16.646  0.00  0.00    +0.000 C 
ATOM      3  C   UNL     1       4.897   6.952  16.176  0.00  0.00    +0.000 C 
ENDROOT
BRANCH   1   6
ATOM      4  C   UNL     1       7.371   5.037  14.126  0.00  0.00    +0.000 C 
ATOM      5  O   UNL     1       8.199   5.517  13.353  0.00  0.00    +0.000 OA
ATOM      6  N   UNL     1       7.297   5.473  15.431  0.00  0.00    +0.000 N 
ATOM      7  H   UNL     1       7.974   6.173  15.711  0.00  0.00    +0.000 HD
BRANCH   4   8
ATOM      8  C   UNL     1       6.350   3.987  13.710  0.00  0.00    +0.000 C 
BRANCH   8   9
ATOM      9  C   UNL     1       6.455   3.642  12.229  0.00  0.00    +0.000 C 
BRANCH   9  11
ATOM     10  C   UNL     1       4.165   3.287  11.252  0.00  0.00    +0.000 C 
ATOM     11  C   UNL     1       5.398   2.613  11.830  0.00  0.00    +0.000 C 
ENDBRANCH   9  11
ENDBRANCH   8   9
ENDBRANCH   4   8
ENDBRANCH   1   6
BRANCH   2  12
ATOM     12  C   UNL     1       4.456   4.843  17.606  0.00  0.00    +0.000 C 
ATOM     13  C   UNL     1       3.405   5.351  18.265  0.00  0.00    +0.000 C 
BRANCH  13  14
ATOM     14  C   UNL     1       2.561   4.543  19.163  0.00  0.00    +0.000 A 
ATOM     15  C   UNL     1       2.734   4.559  20.557  0.00  0.00    +0.000 A 
ATOM     16  C   UNL     1       1.933   3.765  21.385  0.00  0.00    +0.000 A 
ATOM     17  C   UNL     1       0.961   2.933  20.834  0.00  0.00    +0.000 A 
ATOM     18  C   UNL     1       0.794   2.887  19.451  0.00  0.00    +0.000 A 
ATOM     19  C   UNL     1       1.593   3.682  18.631  0.00  0.00    +0.000 A 
ATOM     20  F   UNL     1       1.415   3.610  17.301  0.00  0.00    +0.000 F 
ENDBRANCH  13  14
ENDBRANCH   2  12
TORSDOF 6
ENDMDL
MODEL 3
REMARK VINA RESULT:      -7.8      1.144      1.590
REMARK  Name = 
REMARK  8 active torsions:
REMARK  status: ('A' for Active; 'I' for Inactive)
REMARK    1  A    between atoms: C_1  and  C_2
REMARK    2  A    between atoms: C_2  and  C_3
REMARK    3  A    between atoms: C_3  and  C_4
REMARK    4  A    between atoms: C_4  and  C_5
REMARK    5  A    between atoms: N_7  and  N_8
REMARK    6  A    between atoms: C_9  and  C_10
REMARK    7  A    between atoms: C_9  and  C_11
REMARK    8  A    between atoms: C_12  and  C_13
REMARK                            x       y       z     vdW  Elec       q    Type
REMARK                         _______ _______ _______ _____ _____    ______ ____
ROOT
ATOM      1  N   UNL     1       6.233   5.133  16.178  0.00  0.00    +0.000 NA
ATOM      2  C   UNL     1       6.254   5.377  17.457  0.00  0.00    +0.000 C 
ATOM      3  C   UNL     1       7.308   6.153  18.209  0.00  0.00    +0.000 C 
ENDROOT
BRANCH   1   6
ATOM      4  C   UNL     1       7.356   5.048  14.086  0.00  0.00    +0.000 C 
ATOM      5  O   UNL     1       8.260   5.439  13.351  0.00  0.00    +0.000 OA
ATOM      6  N   UNL     1       7.212   5.566  15.355  0.00  0.00    +0.000 N 
ATOM      7  H   UNL     1       7.903   6.250  15.643  0.00  0.00    +0.000 HD
BRANCH   4   8
ATOM      8  C   UNL     1       6.314   4.024  13.658  0.00  0.00    +0.000 C 
BRANCH   8   9
ATOM      9  C   UNL     1       6.559   3.516  12.242  0.00  0.00    +0.000 C 
BRANCH   9  11
ATOM     10  C   UNL     1       4.192   3.326  11.414  0.00  0.00    +0.000 C 
ATOM     11  C   UNL     1       5.447   2.564  11.802  0.00  0.00    +0.000 C 
ENDBRANCH   9  11
ENDBRANCH   8   9
ENDBRANCH   4   8
ENDBRANCH   1   6
BRANCH   2  12
ATOM     12  C   UNL     1       5.091   4.820  18.208  0.00  0.00    +0.000 C 
ATOM     13  C   UNL     1       3.826   4.768  17.768  0.00  0.00    +0.000 C 
BRANCH  13  14
ATOM     14  C   UNL     1       2.735   4.158  18.548  0.00  0.00    +0.000 A 
ATOM     15  C   UNL     1       2.034   3.031  18.089  0.00  0.00    +0.000 A 
ATOM     16  C   UNL     1       0.986   2.485  18.840  0.00  0.00    +0.000 A 
ATOM     17  C   UNL     1       0.614   3.066  20.050  0.00  0.00    +0.000 A 
ATOM     18  C   UNL     1       1.283   4.200  20.508  0.00  0.00    +0.000 A 
ATOM     19  C   UNL     1       2.327   4.738  19.757  0.00  0.00    +0.000 A 
ATOM     20  F   UNL     1       2.948   5.836  20.219  0.00  0.00    +0.000 F 
ENDBRANCH  13  14
ENDBRANCH   2  12
TORSDOF 6
ENDMDL
MODEL 4
REMARK VINA RESULT:      -7.6      1.123      1.182
REMARK  Name = 
REMARK  8 active torsions:
REMARK  status: ('A' for Active; 'I' for Inactive)
REMARK    1  A    between atoms: C_1  and  C_2
REMARK    2  A    between atoms: C_2  and  C_3
REMARK    3  A    between atoms: C_3  and  C_4
REMARK    4  A    between atoms: C_4  and  C_5
REMARK    5  A    between atoms: N_7  and  N_8
REMARK    6  A    between atoms: C_9  and  C_10
REMARK    7  A    between atoms: C_9  and  C_11
REMARK    8  A    between atoms: C_12  and  C_13
REMARK                            x       y       z     vdW  Elec       q    Type
REMARK                         _______ _______ _______ _____ _____    ______ ____
ROOT
ATOM      1  N   UNL     1       6.190   5.147  16.733  0.00  0.00    +0.000 NA
ATOM      2  C   UNL     1       6.467   5.147  18.005  0.00  0.00    +0.000 C 
ATOM      3  C   UNL     1       7.735   5.649  18.652  0.00  0.00    +0.000 C 
ENDROOT
BRANCH   1   6
ATOM      4  C   UNL     1       7.180   5.018  14.576  0.00  0.00    +0.000 C 
ATOM      5  O   UNL     1       7.990   5.440  13.754  0.00  0.00    +0.000 OA
ATOM      6  N   UNL     1       7.065   5.612  15.814  0.00  0.00    +0.000 N 
ATOM      7  H   UNL     1       7.699   6.380  16.006  0.00  0.00    +0.000 HD
BRANCH   4   8
ATOM      8  C   UNL     1       6.224   3.867  14.293  0.00  0.00    +0.000 C 
BRANCH   8   9
ATOM      9  C   UNL     1       5.315   4.158  13.105  0.00  0.00    +0.000 C 
BRANCH   9  11
ATOM     10  C   UNL     1       4.082   3.008  11.239  0.00  0.00    +0.000 C 
ATOM     11  C   UNL     1       5.327   2.998  12.110  0.00  0.00    +0.000 C 
ENDBRANCH   9  11
ENDBRANCH   8   9
ENDBRANCH   4   8
ENDBRANCH   1   6
BRANCH   2  12
ATOM     12  C   UNL     1       5.383   4.595  18.869  0.00  0.00    +0.000 C 
ATOM     13  C   UNL     1       4.081   4.540  18.556  0.00  0.00    +0.000 C 
BRANCH  13  14
ATOM     14  C   UNL     1       3.072   3.935  19.442  0.00  0.00    +0.000 A 
ATOM     15  C   UNL     1       3.413   3.384  20.688  0.00  0.00    +0.000 A 
ATOM     16  C   UNL     1       2.438   2.795  21.501  0.00  0.00    +0.000 A 
ATOM     17  C   UNL     1       1.113   2.734  21.075  0.00  0.00    +0.000 A 
ATOM     18  C   UNL     1       0.762   3.253  19.830  0.00  0.00    +0.000 A 
ATOM     19  C   UNL     1       1.738   3.840  19.026  0.00  0.00    +0.000 A 
ATOM     20  F   UNL     1       1.371   4.325  17.827  0.00  0.00    +0.000 F 
ENDBRANCH  13  14
ENDBRANCH   2  12
TORSDOF 6
ENDMDL
MODEL 5
REMARK VINA RESULT:      -7.6      1.382      1.495
REMARK  Name = 
REMARK  8 active torsions:
REMARK  status: ('A' for Active; 'I' for Inactive)
REMARK    1  A    between atoms: C_1  and  C_2
REMARK    2  A    between atoms: C_2  and  C_3
REMARK    3  A    between atoms: C_3  and  C_4
REMARK    4  A    between atoms: C_4  and  C_5
REMARK    5  A    between atoms: N_7  and  N_8
REMARK    6  A    between atoms: C_9  and  C_10
REMARK    7  A    between atoms: C_9  and  C_11
REMARK    8  A    between atoms: C_12  and  C_13
REMARK                            x       y       z     vdW  Elec       q    Type
REMARK                         _______ _______ _______ _____ _____    ______ ____
ROOT
ATOM      1  N   UNL     1       6.065   5.201  16.034  0.00  0.00    +0.000 NA
ATOM      2  C   UNL     1       6.206   4.928  17.300  0.00  0.00    +0.000 C 
ATOM      3  C   UNL     1       7.478   5.030  18.107  0.00  0.00    +0.000 C 
ENDROOT
BRANCH   1   6
ATOM      4  C   UNL     1       7.321   5.084  14.021  0.00  0.00    +0.000 C 
ATOM      5  O   UNL     1       8.278   5.456  13.344  0.00  0.00    +0.000 OA
ATOM      6  N   UNL     1       7.103   5.613  15.275  0.00  0.00    +0.000 N 
ATOM      7  H   UNL     1       7.785   6.286  15.604  0.00  0.00    +0.000 HD
BRANCH   4   8
ATOM      8  C   UNL     1       6.292   4.074  13.530  0.00  0.00    +0.000 C 
BRANCH   8   9
ATOM      9  C   UNL     1       6.598   3.585  12.120  0.00  0.00    +0.000 C 
BRANCH   9  11
ATOM     10  C   UNL     1       4.246   3.180  11.328  0.00  0.00    +0.000 C 
ATOM     11  C   UNL     1       5.578   2.538  11.671  0.00  0.00    +0.000 C 
ENDBRANCH   9  11
ENDBRANCH   8   9
ENDBRANCH   4   8
ENDBRANCH   1   6
BRANCH   2  12
ATOM     12  C   UNL     1       4.952   4.487  17.978  0.00  0.00    +0.000 C 
ATOM     13  C   UNL     1       4.804   4.276  19.293  0.00  0.00    +0.000 C 
BRANCH  13  14
ATOM     14  C   UNL     1       3.518   3.887  19.898  0.00  0.00    +0.000 A 
ATOM     15  C   UNL     1       2.360   4.668  19.748  0.00  0.00    +0.000 A 
ATOM     16  C   UNL     1       1.157   4.285  20.352  0.00  0.00    +0.000 A 
ATOM     17  C   UNL     1       1.097   3.130  21.127  0.00  0.00    +0.000 A 
ATOM     18  C   UNL     1       2.244   2.358  21.308  0.00  0.00    +0.000 A 
ATOM     19  C   UNL     1       3.439   2.742  20.701  0.00  0.00    +0.000 A 
ATOM     20  F   UNL     1       4.529   1.983  20.900  0.00  0.00    +0.000 F 
ENDBRANCH  13  14
ENDBRANCH   2  12
TORSDOF 6
ENDMDL
MODEL 6
REMARK VINA RESULT:      -7.6      1.767      2.313
REMARK  Name = 
REMARK  8 active torsions:
REMARK  status: ('A' for Active; 'I' for Inactive)
REMARK    1  A    between atoms: C_1  and  C_2
REMARK    2  A    between atoms: C_2  and  C_3
REMARK    3  A    between atoms: C_3  and  C_4
REMARK    4  A    between atoms: C_4  and  C_5
REMARK    5  A    between atoms: N_7  and  N_8
REMARK    6  A    between atoms: C_9  and  C_10
REMARK    7  A    between atoms: C_9  and  C_11
REMARK    8  A    between atoms: C_12  and  C_13
REMARK                            x       y       z     vdW  Elec       q    Type
REMARK                         _______ _______ _______ _____ _____    ______ ____
ROOT
ATOM      1  N   UNL     1       5.900   3.907  14.791  0.00  0.00    +0.000 NA
ATOM      2  C   UNL     1       5.285   4.772  15.546  0.00  0.00    +0.000 C 
ATOM      3  C   UNL     1       5.387   6.275  15.462  0.00  0.00    +0.000 C 
ENDROOT
BRANCH   1   6
ATOM      4  C   UNL     1       6.580   3.857  12.515  0.00  0.00    +0.000 C 
ATOM      5  O   UNL     1       7.365   4.202  11.634  0.00  0.00    +0.000 OA
ATOM      6  N   UNL     1       6.747   4.293  13.812  0.00  0.00    +0.000 N 
ATOM      7  H   UNL     1       7.557   4.876  13.990  0.00  0.00    +0.000 HD
BRANCH   4   8
ATOM      8  C   UNL     1       5.360   2.984  12.253  0.00  0.00    +0.000 C 
BRANCH   8   9
ATOM      9  C   UNL     1       4.172   3.797  11.754  0.00  0.00    +0.000 C 
BRANCH   9  11
ATOM     10  C   UNL     1       2.959   4.071   9.568  0.00  0.00    +0.000 C 
ATOM     11  C   UNL     1       3.463   3.082  10.604  0.00  0.00    +0.000 C 
ENDBRANCH   9  11
ENDBRANCH   8   9
ENDBRANCH   4   8
ENDBRANCH   1   6
BRANCH   2  12
ATOM     12  C   UNL     1       4.391   4.164  16.575  0.00  0.00    +0.000 C 
ATOM     13  C   UNL     1       3.617   4.836  17.438  0.00  0.00    +0.000 C 
BRANCH  13  14
ATOM     14  C   UNL     1       2.722   4.165  18.396  0.00  0.00    +0.000 A 
ATOM     15  C   UNL     1       1.774   3.212  17.985  0.00  0.00    +0.000 A 
ATOM     16  C   UNL     1       0.921   2.607  18.914  0.00  0.00    +0.000 A 
ATOM     17  C   UNL     1       0.989   2.954  20.261  0.00  0.00    +0.000 A 
ATOM     18  C   UNL     1       1.905   3.916  20.681  0.00  0.00    +0.000 A 
ATOM     19  C   UNL     1       2.755   4.515  19.752  0.00  0.00    +0.000 A 
ATOM     20  F   UNL     1       3.623   5.445  20.185  0.00  0.00    +0.000 F 
ENDBRANCH  13  14
ENDBRANCH   2  12
TORSDOF 6
ENDMDL
MODEL 7
REMARK VINA RESULT:      -7.5      1.454      1.835
REMARK  Name = 
REMARK  8 active torsions:
REMARK  status: ('A' for Active; 'I' for Inactive)
REMARK    1  A    between atoms: C_1  and  C_2
REMARK    2  A    between atoms: C_2  and  C_3
REMARK    3  A    between atoms: C_3  and  C_4
REMARK    4  A    between atoms: C_4  and  C_5
REMARK    5  A    between atoms: N_7  and  N_8
REMARK    6  A    between atoms: C_9  and  C_10
REMARK    7  A    between atoms: C_9  and  C_11
REMARK    8  A    between atoms: C_12  and  C_13
REMARK                            x       y       z     vdW  Elec       q    Type
REMARK                         _______ _______ _______ _____ _____    ______ ____
ROOT
ATOM      1  N   UNL     1       5.582   3.889  14.923  0.00  0.00    +0.000 NA
ATOM      2  C   UNL     1       5.873   4.260  16.137  0.00  0.00    +0.000 C 
ATOM      3  C   UNL     1       7.248   4.560  16.682  0.00  0.00    +0.000 C 
ENDROOT
BRANCH   1   6
ATOM      4  C   UNL     1       6.204   3.491  12.665  0.00  0.00    +0.000 C 
ATOM      5  O   UNL     1       7.082   3.320  11.820  0.00  0.00    +0.000 OA
ATOM      6  N   UNL     1       6.537   3.716  13.983  0.00  0.00    +0.000 N 
ATOM      7  H   UNL     1       7.525   3.700  14.207  0.00  0.00    +0.000 HD
BRANCH   4   8
ATOM      8  C   UNL     1       4.719   3.519  12.333  0.00  0.00    +0.000 C 
BRANCH   8   9
ATOM      9  C   UNL     1       4.437   3.009  10.925  0.00  0.00    +0.000 C 
BRANCH   9  11
ATOM     10  C   UNL     1       2.879   4.330   9.458  0.00  0.00    +0.000 C 
ATOM     11  C   UNL     1       2.982   3.261  10.532  0.00  0.00    +0.000 C 
ENDBRANCH   9  11
ENDBRANCH   8   9
ENDBRANCH   4   8
ENDBRANCH   1   6
BRANCH   2  12
ATOM     12  C   UNL     1       4.692   4.398  17.037  0.00  0.00    +0.000 C 
ATOM     13  C   UNL     1       4.308   3.514  17.969  0.00  0.00    +0.000 C 
BRANCH  13  14
ATOM     14  C   UNL     1       3.154   3.742  18.857  0.00  0.00    +0.000 A 
ATOM     15  C   UNL     1       2.926   4.983  19.474  0.00  0.00    +0.000 A 
ATOM     16  C   UNL     1       1.834   5.165  20.331  0.00  0.00    +0.000 A 
ATOM     17  C   UNL     1       0.967   4.108  20.596  0.00  0.00    +0.000 A 
ATOM     18  C   UNL     1       1.194   2.863  20.013  0.00  0.00    +0.000 A 
ATOM     19  C   UNL     1       2.282   2.688  19.158  0.00  0.00    +0.000 A 
ATOM     20  F   UNL     1       2.481   1.475  18.617  0.00  0.00    +0.000 F 
ENDBRANCH  13  14
ENDBRANCH   2  12
TORSDOF 6
ENDMDL
MODEL 8
REMARK VINA RESULT:      -7.3      1.516      1.747
REMARK  Name = 
REMARK  8 active torsions:
REMARK  status: ('A' for Active; 'I' for Inactive)
REMARK    1  A    between atoms: C_1  and  C_2
REMARK    2  A    between atoms: C_2  and  C_3
REMARK    3  A    between atoms: C_3  and  C_4
REMARK    4  A    between atoms: C_4  and  C_5
REMARK    5  A    between atoms: N_7  and  N_8
REMARK    6  A    between atoms: C_9  and  C_10
REMARK    7  A    between atoms: C_9  and  C_11
REMARK    8  A    between atoms: C_12  and  C_13
REMARK                            x       y       z     vdW  Elec       q    Type
REMARK                         _______ _______ _______ _____ _____    ______ ____
ROOT
ATOM      1  N   UNL     1       5.816   5.169  15.690  0.00  0.00    +0.000 NA
ATOM      2  C   UNL     1       6.120   4.807  16.903  0.00  0.00    +0.000 C 
ATOM      3  C   UNL     1       7.506   4.584  17.457  0.00  0.00    +0.000 C 
ENDROOT
BRANCH   1   6
ATOM      4  C   UNL     1       6.788   4.650  13.585  0.00  0.00    +0.000 C 
ATOM      5  O   UNL     1       7.666   4.843  12.745  0.00  0.00    +0.000 OA
ATOM      6  N   UNL     1       6.765   5.382  14.752  0.00  0.00    +0.000 N 
ATOM      7  H   UNL     1       7.518   6.049  14.881  0.00  0.00    +0.000 HD
BRANCH   4   8
ATOM      8  C   UNL     1       5.654   3.653  13.396  0.00  0.00    +0.000 C 
BRANCH   8   9
ATOM      9  C   UNL     1       5.429   3.314  11.927  0.00  0.00    +0.000 C 
BRANCH   9  11
ATOM     10  C   UNL     1       7.234   1.827  11.001  0.00  0.00    +0.000 C 
ATOM     11  C   UNL     1       5.851   1.876  11.627  0.00  0.00    +0.000 C 
ENDBRANCH   9  11
ENDBRANCH   8   9
ENDBRANCH   4   8
ENDBRANCH   1   6
BRANCH   2  12
ATOM     12  C   UNL     1       4.943   4.617  17.801  0.00  0.00    +0.000 C 
ATOM     13  C   UNL     1       4.465   3.440  18.229  0.00  0.00    +0.000 C 
BRANCH  13  14
ATOM     14  C   UNL     1       3.325   3.332  19.155  0.00  0.00    +0.000 A 
ATOM     15  C   UNL     1       2.080   3.918  18.872  0.00  0.00    +0.000 A 
ATOM     16  C   UNL     1       1.020   3.819  19.781  0.00  0.00    +0.000 A 
ATOM     17  C   UNL     1       1.192   3.149  20.989  0.00  0.00    +0.000 A 
ATOM     18  C   UNL     1       2.428   2.584  21.297  0.00  0.00    +0.000 A 
ATOM     19  C   UNL     1       3.480   2.683  20.387  0.00  0.00    +0.000 A 
ATOM     20  F   UNL     1       4.663   2.136  20.715  0.00  0.00    +0.000 F 
ENDBRANCH  13  14
ENDBRANCH   2  12
TORSDOF 6
ENDMDL
MODEL 9
REMARK VINA RESULT:      -7.2      1.377      1.434
REMARK  Name = 
REMARK  8 active torsions:
REMARK  status: ('A' for Active; 'I' for Inactive)
REMARK    1  A    between atoms: C_1  and  C_2
REMARK    2  A    between atoms: C_2  and  C_3
REMARK    3  A    between atoms: C_3  and  C_4
REMARK    4  A    between atoms: C_4  and  C_5
REMARK    5  A    between atoms: N_7  and  N_8
REMARK    6  A    between atoms: C_9  and  C_10
REMARK    7  A    between atoms: C_9  and  C_11
REMARK    8  A    between atoms: C_12  and  C_13
REMARK                            x       y       z     vdW  Elec       q    Type
REMARK                         _______ _______ _______ _____ _____    ______ ____
ROOT
ATOM      1  N   UNL     1       6.572   5.216  16.101  0.00  0.00    +0.000 NA
ATOM      2  C   UNL     1       6.571   5.836  17.246  0.00  0.00    +0.000 C 
ATOM      3  C   UNL     1       7.404   7.037  17.622  0.00  0.00    +0.000 C 
ENDROOT
BRANCH   1   6
ATOM      4  C   UNL     1       7.270   5.020  13.839  0.00  0.00    +0.000 C 
ATOM      5  O   UNL     1       8.015   5.369  12.924  0.00  0.00    +0.000 OA
ATOM      6  N   UNL     1       7.373   5.602  15.084  0.00  0.00    +0.000 N 
ATOM      7  H   UNL     1       8.104   6.294  15.199  0.00  0.00    +0.000 HD
BRANCH   4   8
ATOM      8  C   UNL     1       6.168   3.984  13.671  0.00  0.00    +0.000 C 
BRANCH   8   9
ATOM      9  C   UNL     1       5.926   3.638  12.207  0.00  0.00    +0.000 C 
BRANCH   9  11
ATOM     10  C   UNL     1       3.944   3.544  10.662  0.00  0.00    +0.000 C 
ATOM     11  C   UNL     1       4.511   3.098  11.998  0.00  0.00    +0.000 C 
ENDBRANCH   9  11
ENDBRANCH   8   9
ENDBRANCH   4   8
ENDBRANCH   1   6
BRANCH   2  12
ATOM     12  C   UNL     1       5.624   5.270  18.251  0.00  0.00    +0.000 C 
ATOM     13  C   UNL     1       4.288   5.379  18.218  0.00  0.00    +0.000 C 
BRANCH  13  14
ATOM     14  C   UNL     1       3.412   4.750  19.222  0.00  0.00    +0.000 A 
ATOM     15  C   UNL     1       2.289   5.413  19.746  0.00  0.00    +0.000 A 
ATOM     16  C   UNL     1       1.486   4.800  20.715  0.00  0.00    +0.000 A 
ATOM     17  C   UNL     1       1.802   3.528  21.186  0.00  0.00    +0.000 A 
ATOM     18  C   UNL     1       2.927   2.868  20.695  0.00  0.00    +0.000 A 
ATOM     19  C   UNL     1       3.722   3.482  19.728  0.00  0.00    +0.000 A 
ATOM     20  F   UNL     1       4.805   2.825  19.280  0.00  0.00    +0.000 F 
ENDBRANCH  13  14
ENDBRANCH   2  12
TORSDOF 6
ENDMDL
