MODEL 1
REMARK VINA RESULT:      -8.1      0.000      0.000
REMARK  Name = 
REMARK  4 active torsions:
REMARK  status: ('A' for Active; 'I' for Inactive)
REMARK    1  A    between atoms: C_2  and  C_3
REMARK    2  A    between atoms: N_14  and  C_15
REMARK    3  A    between atoms: C_24  and  N_25
REMARK    4  A    between atoms: N_25  and  C_26
REMARK                            x       y       z     vdW  Elec       q    Type
REMARK                         _______ _______ _______ _____ _____    ______ ____
ROOT
ATOM      1  O   UNL     1       1.252   5.200  20.514  0.00  0.00    +0.000 OA
ATOM      2  C   UNL     1       1.977   6.133  20.212  0.00  0.00    +0.000 C 
ATOM      3  N   UNL     1       3.261   5.960  19.680  0.00  0.00    +0.000 N 
ATOM      4  C   UNL     1       3.792   4.613  19.456  0.00  0.00    +0.000 C 
ATOM      5  C   UNL     1       3.763   4.265  17.942  0.00  0.00    +0.000 C 
ATOM      6  N   UNL     1       4.373   5.289  17.094  0.00  0.00    +0.000 N 
ATOM      7  C   UNL     1       3.967   6.684  17.398  0.00  0.00    +0.000 C 
ATOM      8  C   UNL     1       3.980   6.969  18.903  0.00  0.00    +0.000 C 
ENDROOT
BRANCH   6   9
ATOM      9  C   UNL     1       5.286   5.076  16.061  0.00  0.00    +0.000 A 
ATOM     10  N   UNL     1       4.733   4.388  15.015  0.00  0.00    +0.000 NA
ATOM     11  C   UNL     1       5.485   4.148  13.926  0.00  0.00    +0.000 A 
ATOM     12  C   UNL     1       4.937   3.443  12.849  0.00  0.00    +0.000 A 
ATOM     13  C   UNL     1       5.693   3.180  11.698  0.00  0.00    +0.000 A 
ATOM     14  C   UNL     1       7.016   3.628  11.635  0.00  0.00    +0.000 A 
ATOM     15  C   UNL     1       7.557   4.315  12.709  0.00  0.00    +0.000 A 
ATOM     16  C   UNL     1       6.826   4.572  13.854  0.00  0.00    +0.000 A 
ATOM     17  N   UNL     1       7.411   5.211  14.868  0.00  0.00    +0.000 NA
ATOM     18  C   UNL     1       6.672   5.456  15.986  0.00  0.00    +0.000 A 
BRANCH  18  19
ATOM     19  N   UNL     1       7.412   5.949  17.098  0.00  0.00    +0.000 N 
ATOM     20  H   UNL     1       8.160   6.532  16.768  0.00  0.00    +0.000 HD
BRANCH  19  21
ATOM     21  C   UNL     1       7.718   5.123  18.292  0.00  0.00    +0.000 C 
ATOM     22  C   UNL     1       8.475   5.658  19.471  0.00  0.00    +0.000 C 
ATOM     23  C   UNL     1       6.976   5.515  19.548  0.00  0.00    +0.000 C 
ENDBRANCH  19  21
ENDBRANCH  18  19
ENDBRANCH   6   9
BRANCH   2  24
ATOM     24  C   UNL     1       1.457   7.533  20.387  0.00  0.00    +0.000 A 
ATOM     25  C   UNL     1       1.456   8.472  19.342  0.00  0.00    +0.000 A 
ATOM     26  C   UNL     1       0.883   9.734  19.505  0.00  0.00    +0.000 A 
ATOM     27  C   UNL     1       0.396  10.106  20.756  0.00  0.00    +0.000 A 
ATOM     28 CL   UNL     1      -0.228  11.708  20.917  0.00  0.00    +0.000 Cl
ATOM     29  C   UNL     1       0.450   9.205  21.822  0.00  0.00    +0.000 A 
ATOM     30 CL   UNL     1      -0.107   9.620  23.407  0.00  0.00    +0.000 Cl
ATOM     31  C   UNL     1       0.969   7.916  21.638  0.00  0.00    +0.000 A 
ENDBRANCH   2  24
TORSDOF 4
ENDMDL
MODEL 2
REMARK VINA RESULT:      -7.8      3.178      5.431
REMARK  Name = 
REMARK  4 active torsions:
REMARK  status: ('A' for Active; 'I' for Inactive)
REMARK    1  A    between atoms: C_2  and  C_3
REMARK    2  A    between atoms: N_14  and  C_15
REMARK    3  A    between atoms: C_24  and  N_25
REMARK    4  A    between atoms: N_25  and  C_26
REMARK                            x       y       z     vdW  Elec       q    Type
REMARK                         _______ _______ _______ _____ _____    ______ ____
ROOT
ATOM      1  O   UNL     1      -0.943  12.145  18.147  0.00  0.00    +0.000 OA
ATOM      2  C   UNL     1      -0.763  11.518  19.177  0.00  0.00    +0.000 C 
ATOM      3  N   UNL     1      -0.450  10.153  19.195  0.00  0.00    +0.000 N 
ATOM      4  C   UNL     1      -0.319   9.410  17.940  0.00  0.00    +0.000 C 
ATOM      5  C   UNL     1       1.179   9.141  17.623  0.00  0.00    +0.000 C 
ATOM      6  N   UNL     1       1.917   8.550  18.739  0.00  0.00    +0.000 N 
ATOM      7  C   UNL     1       1.686   9.192  20.058  0.00  0.00    +0.000 C 
ATOM      8  C   UNL     1       0.199   9.465  20.310  0.00  0.00    +0.000 C 
ENDROOT
BRANCH   6   9
ATOM      9  C   UNL     1       2.785   7.460  18.677  0.00  0.00    +0.000 A 
ATOM     10  N   UNL     1       3.608   7.516  17.585  0.00  0.00    +0.000 NA
ATOM     11  C   UNL     1       4.531   6.552  17.418  0.00  0.00    +0.000 A 
ATOM     12  C   UNL     1       5.379   6.592  16.306  0.00  0.00    +0.000 A 
ATOM     13  C   UNL     1       6.353   5.604  16.106  0.00  0.00    +0.000 A 
ATOM     14  C   UNL     1       6.470   4.563  17.032  0.00  0.00    +0.000 A 
ATOM     15  C   UNL     1       5.619   4.522  18.125  0.00  0.00    +0.000 A 
ATOM     16  C   UNL     1       4.648   5.484  18.329  0.00  0.00    +0.000 A 
ATOM     17  N   UNL     1       3.838   5.375  19.382  0.00  0.00    +0.000 NA
ATOM     18  C   UNL     1       2.888   6.334  19.567  0.00  0.00    +0.000 A 
BRANCH  18  19
ATOM     19  N   UNL     1       1.933   6.045  20.582  0.00  0.00    +0.000 N 
ATOM     20  H   UNL     1       2.360   6.156  21.484  0.00  0.00    +0.000 HD
BRANCH  19  21
ATOM     21  C   UNL     1       0.945   4.942  20.468  0.00  0.00    +0.000 C 
ATOM     22  C   UNL     1       1.175   3.740  19.601  0.00  0.00    +0.000 C 
ATOM     23  C   UNL     1       1.373   3.634  21.091  0.00  0.00    +0.000 C 
ENDBRANCH  19  21
ENDBRANCH  18  19
ENDBRANCH   6   9
BRANCH   2  24
ATOM     24  C   UNL     1      -0.847  12.250  20.488  0.00  0.00    +0.000 A 
ATOM     25  C   UNL     1       0.181  13.090  20.949  0.00  0.00    +0.000 A 
ATOM     26  C   UNL     1       0.038  13.829  22.124  0.00  0.00    +0.000 A 
ATOM     27  C   UNL     1      -1.102  13.653  22.906  0.00  0.00    +0.000 A 
ATOM     28 CL   UNL     1      -1.186  14.535  24.388  0.00  0.00    +0.000 Cl
ATOM     29  C   UNL     1      -2.103  12.772  22.493  0.00  0.00    +0.000 A 
ATOM     30 CL   UNL     1      -3.524  12.485  23.438  0.00  0.00    +0.000 Cl
ATOM     31  C   UNL     1      -1.984  12.078  21.281  0.00  0.00    +0.000 A 
ENDBRANCH   2  24
TORSDOF 4
ENDMDL
MODEL 3
REMARK VINA RESULT:      -7.8      4.201      8.642
REMARK  Name = 
REMARK  4 active torsions:
REMARK  status: ('A' for Active; 'I' for Inactive)
REMARK    1  A    between atoms: C_2  and  C_3
REMARK    2  A    between atoms: N_14  and  C_15
REMARK    3  A    between atoms: C_24  and  N_25
REMARK    4  A    between atoms: N_25  and  C_26
REMARK                            x       y       z     vdW  Elec       q    Type
REMARK                         _______ _______ _______ _____ _____    ______ ____
ROOT
ATOM      1  O   UNL     1       7.944   4.215  17.158  0.00  0.00    +0.000 OA
ATOM      2  C   UNL     1       6.911   4.339  16.522  0.00  0.00    +0.000 C 
ATOM      3  N   UNL     1       5.644   4.353  17.119  0.00  0.00    +0.000 N 
ATOM      4  C   UNL     1       5.511   4.221  18.572  0.00  0.00    +0.000 C 
ATOM      5  C   UNL     1       5.174   5.597  19.212  0.00  0.00    +0.000 C 
ATOM      6  N   UNL     1       4.047   6.278  18.575  0.00  0.00    +0.000 N 
ATOM      7  C   UNL     1       4.078   6.297  17.091  0.00  0.00    +0.000 C 
ATOM      8  C   UNL     1       4.446   4.928  16.509  0.00  0.00    +0.000 C 
ENDROOT
BRANCH   6   9
ATOM      9  C   UNL     1       2.971   6.886  19.222  0.00  0.00    +0.000 A 
ATOM     10  N   UNL     1       2.699   8.129  18.718  0.00  0.00    +0.000 NA
ATOM     11  C   UNL     1       1.657   8.818  19.216  0.00  0.00    +0.000 A 
ATOM     12  C   UNL     1       1.366  10.091  18.715  0.00  0.00    +0.000 A 
ATOM     13  C   UNL     1       0.284  10.832  19.210  0.00  0.00    +0.000 A 
ATOM     14  C   UNL     1      -0.509  10.286  20.224  0.00  0.00    +0.000 A 
ATOM     15  C   UNL     1      -0.210   9.030  20.724  0.00  0.00    +0.000 A 
ATOM     16  C   UNL     1       0.860   8.292  20.252  0.00  0.00    +0.000 A 
ATOM     17  N   UNL     1       1.118   7.103  20.795  0.00  0.00    +0.000 NA
ATOM     18  C   UNL     1       2.176   6.391  20.314  0.00  0.00    +0.000 A 
BRANCH  18  19
ATOM     19  N   UNL     1       2.516   5.236  21.074  0.00  0.00    +0.000 N 
ATOM     20  H   UNL     1       3.417   5.369  21.498  0.00  0.00    +0.000 HD
BRANCH  19  21
ATOM     21  C   UNL     1       2.216   3.855  20.619  0.00  0.00    +0.000 C 
ATOM     22  C   UNL     1       2.913   2.652  21.180  0.00  0.00    +0.000 C 
ATOM     23  C   UNL     1       1.516   2.985  21.637  0.00  0.00    +0.000 C 
ENDBRANCH  19  21
ENDBRANCH  18  19
ENDBRANCH   6   9
BRANCH   2  24
ATOM     24  C   UNL     1       7.002   4.518  15.032  0.00  0.00    +0.000 A 
ATOM     25  C   UNL     1       7.837   5.480  14.439  0.00  0.00    +0.000 A 
ATOM     26  C   UNL     1       7.973   5.563  13.053  0.00  0.00    +0.000 A 
ATOM     27  C   UNL     1       7.188   4.747  12.240  0.00  0.00    +0.000 A 
ATOM     28 CL   UNL     1       7.342   4.951  10.532  0.00  0.00    +0.000 Cl
ATOM     29  C   UNL     1       6.305   3.831  12.816  0.00  0.00    +0.000 A 
ATOM     30 CL   UNL     1       5.280   2.815  11.860  0.00  0.00    +0.000 Cl
ATOM     31  C   UNL     1       6.218   3.707  14.208  0.00  0.00    +0.000 A 
ENDBRANCH   2  24
TORSDOF 4
ENDMDL
MODEL 4
REMARK VINA RESULT:      -7.8      5.290      9.882
REMARK  Name = 
REMARK  4 active torsions:
REMARK  status: ('A' for Active; 'I' for Inactive)
REMARK    1  A    between atoms: C_2  and  C_3
REMARK    2  A    between atoms: N_14  and  C_15
REMARK    3  A    between atoms: C_24  and  N_25
REMARK    4  A    between atoms: N_25  and  C_26
REMARK                            x       y       z     vdW  Elec       q    Type
REMARK                         _______ _______ _______ _____ _____    ______ ____
ROOT
ATOM      1  O   UNL     1       1.993   7.207  20.976  0.00  0.00    +0.000 OA
ATOM      2  C   UNL     1       1.889   7.567  19.815  0.00  0.00    +0.000 C 
ATOM      3  N   UNL     1       1.062   8.623  19.414  0.00  0.00    +0.000 N 
ATOM      4  C   UNL     1       0.272   9.359  20.406  0.00  0.00    +0.000 C 
ATOM      5  C   UNL     1       0.911  10.749  20.683  0.00  0.00    +0.000 C 
ATOM      6  N   UNL     1       1.197  11.514  19.470  0.00  0.00    +0.000 N 
ATOM      7  C   UNL     1       1.865  10.751  18.385  0.00  0.00    +0.000 C 
ATOM      8  C   UNL     1       1.221   9.377  18.171  0.00  0.00    +0.000 C 
ENDROOT
BRANCH   6   9
ATOM      9  C   UNL     1       0.896  12.857  19.245  0.00  0.00    +0.000 A 
ATOM     10  N   UNL     1       1.957  13.678  19.519  0.00  0.00    +0.000 NA
ATOM     11  C   UNL     1       1.827  15.000  19.306  0.00  0.00    +0.000 A 
ATOM     12  C   UNL     1       2.899  15.854  19.584  0.00  0.00    +0.000 A 
ATOM     13  C   UNL     1       2.796  17.235  19.368  0.00  0.00    +0.000 A 
ATOM     14  C   UNL     1       1.600  17.761  18.872  0.00  0.00    +0.000 A 
ATOM     15  C   UNL     1       0.537  16.912  18.610  0.00  0.00    +0.000 A 
ATOM     16  C   UNL     1       0.621  15.549  18.828  0.00  0.00    +0.000 A 
ATOM     17  N   UNL     1      -0.446  14.787  18.587  0.00  0.00    +0.000 NA
ATOM     18  C   UNL     1      -0.341  13.446  18.806  0.00  0.00    +0.000 A 
BRANCH  18  19
ATOM     19  N   UNL     1      -1.569  12.729  18.730  0.00  0.00    +0.000 N 
ATOM     20  H   UNL     1      -1.857  12.462  19.654  0.00  0.00    +0.000 HD
BRANCH  19  21
ATOM     21  C   UNL     1      -1.864  11.749  17.654  0.00  0.00    +0.000 C 
ATOM     22  C   UNL     1      -2.295  10.341  17.942  0.00  0.00    +0.000 C 
ATOM     23  C   UNL     1      -3.319  11.365  17.521  0.00  0.00    +0.000 C 
ENDBRANCH  19  21
ENDBRANCH  18  19
ENDBRANCH   6   9
BRANCH   2  24
ATOM     24  C   UNL     1       2.712   6.867  18.770  0.00  0.00    +0.000 A 
ATOM     25  C   UNL     1       3.716   7.523  18.037  0.00  0.00    +0.000 A 
ATOM     26  C   UNL     1       4.527   6.827  17.140  0.00  0.00    +0.000 A 
ATOM     27  C   UNL     1       4.270   5.481  16.889  0.00  0.00    +0.000 A 
ATOM     28 CL   UNL     1       5.256   4.695  15.709  0.00  0.00    +0.000 Cl
ATOM     29  C   UNL     1       3.232   4.832  17.562  0.00  0.00    +0.000 A 
ATOM     30 CL   UNL     1       2.842   3.172  17.268  0.00  0.00    +0.000 Cl
ATOM     31  C   UNL     1       2.460   5.518  18.508  0.00  0.00    +0.000 A 
ENDBRANCH   2  24
TORSDOF 4
ENDMDL
MODEL 5
REMARK VINA RESULT:      -7.7      3.130      5.969
REMARK  Name = 
REMARK  4 active torsions:
REMARK  status: ('A' for Active; 'I' for Inactive)
REMARK    1  A    between atoms: C_2  and  C_3
REMARK    2  A    between atoms: N_14  and  C_15
REMARK    3  A    between atoms: C_24  and  N_25
REMARK    4  A    between atoms: N_25  and  C_26
REMARK                            x       y       z     vdW  Elec       q    Type
REMARK                         _______ _______ _______ _____ _____    ______ ____
ROOT
ATOM      1  O   UNL     1       0.069  12.437  18.249  0.00  0.00    +0.000 OA
ATOM      2  C   UNL     1      -0.164  11.750  19.229  0.00  0.00    +0.000 C 
ATOM      3  N   UNL     1      -0.170  10.350  19.196  0.00  0.00    +0.000 N 
ATOM      4  C   UNL     1       0.117   9.640  17.947  0.00  0.00    +0.000 C 
ATOM      5  C   UNL     1       1.552   9.041  17.982  0.00  0.00    +0.000 C 
ATOM      6  N   UNL     1       1.829   8.256  19.185  0.00  0.00    +0.000 N 
ATOM      7  C   UNL     1       1.409   8.888  20.462  0.00  0.00    +0.000 C 
ATOM      8  C   UNL     1       0.004   9.491  20.367  0.00  0.00    +0.000 C 
ENDROOT
BRANCH   6   9
ATOM      9  C   UNL     1       2.426   6.997  19.236  0.00  0.00    +0.000 A 
ATOM     10  N   UNL     1       1.932   6.231  20.257  0.00  0.00    +0.000 NA
ATOM     11  C   UNL     1       2.385   4.973  20.403  0.00  0.00    +0.000 A 
ATOM     12  C   UNL     1       1.894   4.177  21.443  0.00  0.00    +0.000 A 
ATOM     13  C   UNL     1       2.342   2.860  21.618  0.00  0.00    +0.000 A 
ATOM     14  C   UNL     1       3.299   2.343  20.739  0.00  0.00    +0.000 A 
ATOM     15  C   UNL     1       3.790   3.140  19.718  0.00  0.00    +0.000 A 
ATOM     16  C   UNL     1       3.364   4.443  19.540  0.00  0.00    +0.000 A 
ATOM     17  N   UNL     1       3.897   5.171  18.559  0.00  0.00    +0.000 NA
ATOM     18  C   UNL     1       3.462   6.453  18.399  0.00  0.00    +0.000 A 
BRANCH  18  19
ATOM     19  N   UNL     1       4.217   7.231  17.476  0.00  0.00    +0.000 N 
ATOM     20  H   UNL     1       3.596   7.819  16.950  0.00  0.00    +0.000 HD
BRANCH  19  21
ATOM     21  C   UNL     1       5.380   6.691  16.729  0.00  0.00    +0.000 C 
ATOM     22  C   UNL     1       5.324   5.397  15.974  0.00  0.00    +0.000 C 
ATOM     23  C   UNL     1       5.236   6.702  15.225  0.00  0.00    +0.000 C 
ENDBRANCH  19  21
ENDBRANCH  18  19
ENDBRANCH   6   9
BRANCH   2  24
ATOM     24  C   UNL     1      -0.425  12.436  20.541  0.00  0.00    +0.000 A 
ATOM     25  C   UNL     1       0.445  13.404  21.070  0.00  0.00    +0.000 A 
ATOM     26  C   UNL     1       0.133  14.092  22.244  0.00  0.00    +0.000 A 
ATOM     27  C   UNL     1      -1.010  13.739  22.958  0.00  0.00    +0.000 A 
ATOM     28 CL   UNL     1      -1.302  14.570  24.443  0.00  0.00    +0.000 Cl
ATOM     29  C   UNL     1      -1.851  12.732  22.478  0.00  0.00    +0.000 A 
ATOM     30 CL   UNL     1      -3.265  12.226  23.337  0.00  0.00    +0.000 Cl
ATOM     31  C   UNL     1      -1.567  12.087  21.267  0.00  0.00    +0.000 A 
ENDBRANCH   2  24
TORSDOF 4
ENDMDL
MODEL 6
REMARK VINA RESULT:      -7.7      2.699      4.130
REMARK  Name = 
REMARK  4 active torsions:
REMARK  status: ('A' for Active; 'I' for Inactive)
REMARK    1  A    between atoms: C_2  and  C_3
REMARK    2  A    between atoms: N_14  and  C_15
REMARK    3  A    between atoms: C_24  and  N_25
REMARK    4  A    between atoms: N_25  and  C_26
REMARK                            x       y       z     vdW  Elec       q    Type
REMARK                         _______ _______ _______ _____ _____    ______ ____
ROOT
ATOM      1  O   UNL     1      -0.743   8.283  21.784  0.00  0.00    +0.000 OA
ATOM      2  C   UNL     1       0.133   8.820  21.126  0.00  0.00    +0.000 C 
ATOM      3  N   UNL     1       1.337   8.185  20.797  0.00  0.00    +0.000 N 
ATOM      4  C   UNL     1       1.593   6.812  21.240  0.00  0.00    +0.000 C 
ATOM      5  C   UNL     1       1.434   5.822  20.052  0.00  0.00    +0.000 C 
ATOM      6  N   UNL     1       2.191   6.209  18.862  0.00  0.00    +0.000 N 
ATOM      7  C   UNL     1       2.071   7.637  18.474  0.00  0.00    +0.000 C 
ATOM      8  C   UNL     1       2.201   8.572  19.682  0.00  0.00    +0.000 C 
ENDROOT
BRANCH   6   9
ATOM      9  C   UNL     1       3.003   5.380  18.087  0.00  0.00    +0.000 A 
ATOM     10  N   UNL     1       3.886   6.091  17.320  0.00  0.00    +0.000 NA
ATOM     11  C   UNL     1       4.764   5.422  16.552  0.00  0.00    +0.000 A 
ATOM     12  C   UNL     1       5.671   6.132  15.759  0.00  0.00    +0.000 A 
ATOM     13  C   UNL     1       6.601   5.464  14.951  0.00  0.00    +0.000 A 
ATOM     14  C   UNL     1       6.613   4.066  14.939  0.00  0.00    +0.000 A 
ATOM     15  C   UNL     1       5.705   3.367  15.717  0.00  0.00    +0.000 A 
ATOM     16  C   UNL     1       4.776   4.014  16.510  0.00  0.00    +0.000 A 
ATOM     17  N   UNL     1       3.906   3.288  17.213  0.00  0.00    +0.000 NA
ATOM     18  C   UNL     1       2.999   3.945  17.990  0.00  0.00    +0.000 A 
BRANCH  18  19
ATOM     19  N   UNL     1       1.977   3.123  18.543  0.00  0.00    +0.000 N 
ATOM     20  H   UNL     1       1.109   3.628  18.549  0.00  0.00    +0.000 HD
BRANCH  19  21
ATOM     21  C   UNL     1       2.205   2.222  19.701  0.00  0.00    +0.000 C 
ATOM     22  C   UNL     1       2.938   2.662  20.933  0.00  0.00    +0.000 C 
ATOM     23  C   UNL     1       1.433   2.577  20.950  0.00  0.00    +0.000 C 
ENDBRANCH  19  21
ENDBRANCH  18  19
ENDBRANCH   6   9
BRANCH   2  24
ATOM     24  C   UNL     1      -0.104  10.214  20.616  0.00  0.00    +0.000 A 
ATOM     25  C   UNL     1       0.385  11.352  21.281  0.00  0.00    +0.000 A 
ATOM     26  C   UNL     1       0.230  12.628  20.737  0.00  0.00    +0.000 A 
ATOM     27  C   UNL     1      -0.511  12.787  19.568  0.00  0.00    +0.000 A 
ATOM     28 CL   UNL     1      -0.735  14.397  18.987  0.00  0.00    +0.000 Cl
ATOM     29  C   UNL     1      -1.058  11.670  18.931  0.00  0.00    +0.000 A 
ATOM     30 CL   UNL     1      -2.016  11.806  17.496  0.00  0.00    +0.000 Cl
ATOM     31  C   UNL     1      -0.847  10.384  19.446  0.00  0.00    +0.000 A 
ENDBRANCH   2  24
TORSDOF 4
ENDMDL
MODEL 7
REMARK VINA RESULT:      -7.7      4.109      9.587
REMARK  Name = 
REMARK  4 active torsions:
REMARK  status: ('A' for Active; 'I' for Inactive)
REMARK    1  A    between atoms: C_2  and  C_3
REMARK    2  A    between atoms: N_14  and  C_15
REMARK    3  A    between atoms: C_24  and  N_25
REMARK    4  A    between atoms: N_25  and  C_26
REMARK                            x       y       z     vdW  Elec       q    Type
REMARK                         _______ _______ _______ _____ _____    ______ ____
ROOT
ATOM      1  O   UNL     1       3.685   4.836  20.439  0.00  0.00    +0.000 OA
ATOM      2  C   UNL     1       3.362   5.369  19.390  0.00  0.00    +0.000 C 
ATOM      3  N   UNL     1       2.166   6.081  19.233  0.00  0.00    +0.000 N 
ATOM      4  C   UNL     1       1.236   6.219  20.356  0.00  0.00    +0.000 C 
ATOM      5  C   UNL     1       1.317   7.651  20.953  0.00  0.00    +0.000 C 
ATOM      6  N   UNL     1       1.195   8.711  19.952  0.00  0.00    +0.000 N 
ATOM      7  C   UNL     1       2.017   8.521  18.730  0.00  0.00    +0.000 C 
ATOM      8  C   UNL     1       1.930   7.087  18.198  0.00  0.00    +0.000 C 
ENDROOT
BRANCH   6   9
ATOM      9  C   UNL     1       0.389   9.846  20.037  0.00  0.00    +0.000 A 
ATOM     10  N   UNL     1       0.173  10.231  21.333  0.00  0.00    +0.000 NA
ATOM     11  C   UNL     1      -0.553  11.338  21.569  0.00  0.00    +0.000 A 
ATOM     12  C   UNL     1      -0.786  11.745  22.887  0.00  0.00    +0.000 A 
ATOM     13  C   UNL     1      -1.535  12.897  23.165  0.00  0.00    +0.000 A 
ATOM     14  C   UNL     1      -2.057  13.643  22.104  0.00  0.00    +0.000 A 
ATOM     15  C   UNL     1      -1.832  13.230  20.802  0.00  0.00    +0.000 A 
ATOM     16  C   UNL     1      -1.105  12.090  20.513  0.00  0.00    +0.000 A 
ATOM     17  N   UNL     1      -0.948  11.725  19.240  0.00  0.00    +0.000 NA
ATOM     18  C   UNL     1      -0.226  10.600  18.978  0.00  0.00    +0.000 A 
BRANCH  18  19
ATOM     19  N   UNL     1      -0.277  10.158  17.625  0.00  0.00    +0.000 N 
ATOM     20  H   UNL     1       0.199  10.820  17.040  0.00  0.00    +0.000 HD
BRANCH  19  21
ATOM     21  C   UNL     1      -1.477   9.518  17.031  0.00  0.00    +0.000 C 
ATOM     22  C   UNL     1      -2.867   9.807  17.513  0.00  0.00    +0.000 C 
ATOM     23  C   UNL     1      -2.370  10.444  16.240  0.00  0.00    +0.000 C 
ENDBRANCH  19  21
ENDBRANCH  18  19
ENDBRANCH   6   9
BRANCH   2  24
ATOM     24  C   UNL     1       4.306   5.287  18.223  0.00  0.00    +0.000 A 
ATOM     25  C   UNL     1       4.128   4.370  17.173  0.00  0.00    +0.000 A 
ATOM     26  C   UNL     1       4.966   4.378  16.057  0.00  0.00    +0.000 A 
ATOM     27  C   UNL     1       6.059   5.241  16.030  0.00  0.00    +0.000 A 
ATOM     28 CL   UNL     1       7.104   5.150  14.659  0.00  0.00    +0.000 Cl
ATOM     29  C   UNL     1       6.285   6.114  17.097  0.00  0.00    +0.000 A 
ATOM     30 CL   UNL     1       7.644   7.185  17.137  0.00  0.00    +0.000 Cl
ATOM     31  C   UNL     1       5.406   6.147  18.187  0.00  0.00    +0.000 A 
ENDBRANCH   2  24
TORSDOF 4
ENDMDL
MODEL 8
REMARK VINA RESULT:      -7.7      5.232     10.862
REMARK  Name = 
REMARK  4 active torsions:
REMARK  status: ('A' for Active; 'I' for Inactive)
REMARK    1  A    between atoms: C_2  and  C_3
REMARK    2  A    between atoms: N_14  and  C_15
REMARK    3  A    between atoms: C_24  and  N_25
REMARK    4  A    between atoms: N_25  and  C_26
REMARK                            x       y       z     vdW  Elec       q    Type
REMARK                         _______ _______ _______ _____ _____    ______ ____
ROOT
ATOM      1  O   UNL     1       2.590   8.522  17.247  0.00  0.00    +0.000 OA
ATOM      2  C   UNL     1       2.216   8.297  18.386  0.00  0.00    +0.000 C 
ATOM      3  N   UNL     1       1.738   9.295  19.244  0.00  0.00    +0.000 N 
ATOM      4  C   UNL     1       1.664  10.685  18.789  0.00  0.00    +0.000 C 
ATOM      5  C   UNL     1       0.191  11.076  18.481  0.00  0.00    +0.000 C 
ATOM      6  N   UNL     1      -0.738  10.758  19.565  0.00  0.00    +0.000 N 
ATOM      7  C   UNL     1      -0.585   9.402  20.150  0.00  0.00    +0.000 C 
ATOM      8  C   UNL     1       0.884   9.051  20.406  0.00  0.00    +0.000 C 
ENDROOT
BRANCH   6   9
ATOM      9  C   UNL     1      -1.720  11.598  20.090  0.00  0.00    +0.000 A 
ATOM     10  N   UNL     1      -1.683  11.646  21.457  0.00  0.00    +0.000 NA
ATOM     11  C   UNL     1      -2.545  12.451  22.103  0.00  0.00    +0.000 A 
ATOM     12  C   UNL     1      -2.523  12.510  23.500  0.00  0.00    +0.000 A 
ATOM     13  C   UNL     1      -3.406  13.343  24.202  0.00  0.00    +0.000 A 
ATOM     14  C   UNL     1      -4.324  14.119  23.487  0.00  0.00    +0.000 A 
ATOM     15  C   UNL     1      -4.349  14.048  22.105  0.00  0.00    +0.000 A 
ATOM     16  C   UNL     1      -3.491  13.224  21.401  0.00  0.00    +0.000 A 
ATOM     17  N   UNL     1      -3.584  13.174  20.072  0.00  0.00    +0.000 NA
ATOM     18  C   UNL     1      -2.727  12.356  19.397  0.00  0.00    +0.000 A 
BRANCH  18  19
ATOM     19  N   UNL     1      -3.019  12.195  18.013  0.00  0.00    +0.000 N 
ATOM     20  H   UNL     1      -3.224  13.090  17.608  0.00  0.00    +0.000 HD
BRANCH  19  21
ATOM     21  C   UNL     1      -3.806  11.053  17.483  0.00  0.00    +0.000 C 
ATOM     22  C   UNL     1      -3.975  10.801  16.015  0.00  0.00    +0.000 C 
ATOM     23  C   UNL     1      -2.993   9.975  16.806  0.00  0.00    +0.000 C 
ENDBRANCH  19  21
ENDBRANCH  18  19
ENDBRANCH   6   9
BRANCH   2  24
ATOM     24  C   UNL     1       2.237   6.877  18.880  0.00  0.00    +0.000 A 
ATOM     25  C   UNL     1       2.142   6.553  20.245  0.00  0.00    +0.000 A 
ATOM     26  C   UNL     1       2.071   5.226  20.669  0.00  0.00    +0.000 A 
ATOM     27  C   UNL     1       2.200   4.202  19.733  0.00  0.00    +0.000 A 
ATOM     28 CL   UNL     1       2.184   2.581  20.328  0.00  0.00    +0.000 Cl
ATOM     29  C   UNL     1       2.360   4.510  18.380  0.00  0.00    +0.000 A 
ATOM     30 CL   UNL     1       2.560   3.284  17.175  0.00  0.00    +0.000 Cl
ATOM     31  C   UNL     1       2.368   5.843  17.950  0.00  0.00    +0.000 A 
ENDBRANCH   2  24
TORSDOF 4
ENDMDL
MODEL 9
REMARK VINA RESULT:      -7.7      0.594      1.331
REMARK  Name = 
REMARK  4 active torsions:
REMARK  status: ('A' for Active; 'I' for Inactive)
REMARK    1  A    between atoms: C_2  and  C_3
REMARK    2  A    between atoms: N_14  and  C_15
REMARK    3  A    between atoms: C_24  and  N_25
REMARK    4  A    between atoms: N_25  and  C_26
REMARK                            x       y       z     vdW  Elec       q    Type
REMARK                         _______ _______ _______ _____ _____    ______ ____
ROOT
ATOM      1  O   UNL     1       1.119   5.145  20.421  0.00  0.00    +0.000 OA
ATOM      2  C   UNL     1       1.911   6.049  20.216  0.00  0.00    +0.000 C 
ATOM      3  N   UNL     1       3.196   5.836  19.702  0.00  0.00    +0.000 N 
ATOM      4  C   UNL     1       3.646   4.479  19.379  0.00  0.00    +0.000 C 
ATOM      5  C   UNL     1       3.639   4.259  17.840  0.00  0.00    +0.000 C 
ATOM      6  N   UNL     1       4.338   5.306  17.095  0.00  0.00    +0.000 N 
ATOM      7  C   UNL     1       4.013   6.696  17.505  0.00  0.00    +0.000 C 
ATOM      8  C   UNL     1       4.001   6.855  19.030  0.00  0.00    +0.000 C 
ENDROOT
BRANCH   6   9
ATOM      9  C   UNL     1       5.265   5.119  16.070  0.00  0.00    +0.000 A 
ATOM     10  N   UNL     1       4.749   4.390  15.033  0.00  0.00    +0.000 NA
ATOM     11  C   UNL     1       5.517   4.167  13.951  0.00  0.00    +0.000 A 
ATOM     12  C   UNL     1       5.007   3.422  12.883  0.00  0.00    +0.000 A 
ATOM     13  C   UNL     1       5.780   3.176  11.740  0.00  0.00    +0.000 A 
ATOM     14  C   UNL     1       7.082   3.681  11.677  0.00  0.00    +0.000 A 
ATOM     15  C   UNL     1       7.586   4.408  12.742  0.00  0.00    +0.000 A 
ATOM     16  C   UNL     1       6.838   4.650  13.879  0.00  0.00    +0.000 A 
ATOM     17  N   UNL     1       7.388   5.329  14.886  0.00  0.00    +0.000 NA
ATOM     18  C   UNL     1       6.633   5.558  15.997  0.00  0.00    +0.000 A 
BRANCH  18  19
ATOM     19  N   UNL     1       7.345   6.101  17.104  0.00  0.00    +0.000 N 
ATOM     20  H   UNL     1       8.011   6.776  16.774  0.00  0.00    +0.000 HD
BRANCH  19  21
ATOM     21  C   UNL     1       7.778   5.281  18.263  0.00  0.00    +0.000 C 
ATOM     22  C   UNL     1       8.312   5.888  19.526  0.00  0.00    +0.000 C 
ATOM     23  C   UNL     1       6.893   5.380  19.483  0.00  0.00    +0.000 C 
ENDBRANCH  19  21
ENDBRANCH  18  19
ENDBRANCH   6   9
BRANCH   2  24
ATOM     24  C   UNL     1       1.477   7.461  20.495  0.00  0.00    +0.000 A 
ATOM     25  C   UNL     1       1.073   7.887  21.772  0.00  0.00    +0.000 A 
ATOM     26  C   UNL     1       0.764   9.224  22.023  0.00  0.00    +0.000 A 
ATOM     27  C   UNL     1       0.756  10.133  20.968  0.00  0.00    +0.000 A 
ATOM     28 CL   UNL     1       0.288  11.756  21.327  0.00  0.00    +0.000 Cl
ATOM     29  C   UNL     1       1.093   9.710  19.680  0.00  0.00    +0.000 A 
ATOM     30 CL   UNL     1       1.068  10.784  18.323  0.00  0.00    +0.000 Cl
ATOM     31  C   UNL     1       1.463   8.380  19.443  0.00  0.00    +0.000 A 
ENDBRANCH   2  24
TORSDOF 4
ENDMDL
