MODEL 1
REMARK VINA RESULT:      -6.9      0.000      0.000
REMARK  Name = 
REMARK  9 active torsions:
REMARK  status: ('A' for Active; 'I' for Inactive)
REMARK    1  A    between atoms: C_1  and  C_2
REMARK    2  A    between atoms: C_2  and  O_3
REMARK    3  A    between atoms: O_3  and  C_4
REMARK    4  A    between atoms: C_4  and  C_6
REMARK    5  A    between atoms: C_10  and  C_11
REMARK    6  A    between atoms: N_12  and  C_14
REMARK    7  A    between atoms: C_14  and  C_15
REMARK    8  A    between atoms: C_14  and  C_16
REMARK    9  A    between atoms: C_14  and  C_17
REMARK                            x       y       z     vdW  Elec       q    Type
REMARK                         _______ _______ _______ _____ _____    ______ ____
ROOT
ATOM      1  C   UNL     1       5.894   4.490  17.680  0.00  0.00    +0.000 A 
ATOM      2  S   UNL     1       7.599   4.704  17.620  0.00  0.00    +0.000 S 
ATOM      3  N   UNL     1       7.697   5.206  19.203  0.00  0.00    +0.000 NA
ATOM      4  N   UNL     1       6.518   5.260  19.793  0.00  0.00    +0.000 NA
ATOM      5  C   UNL     1       5.483   4.866  18.950  0.00  0.00    +0.000 A 
ENDROOT
BRANCH   5   6
ATOM      6  C   UNL     1       4.128   4.799  19.465  0.00  0.00    +0.000 C 
ATOM      7  N   UNL     1       3.484   3.738  19.913  0.00  0.00    +0.000 N 
ATOM      8  O   UNL     1       4.105   2.625  20.008  0.00  0.00    +0.000 OA
BRANCH   7   9
ATOM      9  C   UNL     1       2.030   3.776  20.328  0.00  0.00    +0.000 C 
ATOM     10  C   UNL     1       1.896   2.940  21.603  0.00  0.00    +0.000 C 
ATOM     11  C   UNL     1       1.630   5.231  20.622  0.00  0.00    +0.000 C 
ATOM     12  C   UNL     1       1.172   3.236  19.183  0.00  0.00    +0.000 C 
ENDBRANCH   7   9
ENDBRANCH   5   6
BRANCH   1  13
ATOM     13  C   UNL     1       5.146   3.969  16.567  0.00  0.00    +0.000 C 
ATOM     14  O   UNL     1       3.936   3.771  16.567  0.00  0.00    +0.000 OA
BRANCH  13  15
ATOM     15  O   UNL     1       5.976   3.633  15.540  0.00  0.00    +0.000 OA
BRANCH  15  17
ATOM     16  C   UNL     1       5.990   3.622  13.152  0.00  0.00    +0.000 C 
ATOM     17  C   UNL     1       5.953   4.495  14.394  0.00  0.00    +0.000 C 
ENDBRANCH  15  17
ENDBRANCH  13  15
ENDBRANCH   1  13
TORSDOF 5
ENDMDL
MODEL 2
REMARK VINA RESULT:      -6.8      1.703      1.837
REMARK  Name = 
REMARK  9 active torsions:
REMARK  status: ('A' for Active; 'I' for Inactive)
REMARK    1  A    between atoms: C_1  and  C_2
REMARK    2  A    between atoms: C_2  and  O_3
REMARK    3  A    between atoms: O_3  and  C_4
REMARK    4  A    between atoms: C_4  and  C_6
REMARK    5  A    between atoms: C_10  and  C_11
REMARK    6  A    between atoms: N_12  and  C_14
REMARK    7  A    between atoms: C_14  and  C_15
REMARK    8  A    between atoms: C_14  and  C_16
REMARK    9  A    between atoms: C_14  and  C_17
REMARK                            x       y       z     vdW  Elec       q    Type
REMARK                         _______ _______ _______ _____ _____    ______ ____
ROOT
ATOM      1  C   UNL     1       6.269   5.896  17.857  0.00  0.00    +0.000 A 
ATOM      2  S   UNL     1       7.771   6.437  18.494  0.00  0.00    +0.000 S 
ATOM      3  N   UNL     1       7.624   5.539  19.887  0.00  0.00    +0.000 NA
ATOM      4  N   UNL     1       6.491   4.863  19.938  0.00  0.00    +0.000 NA
ATOM      5  C   UNL     1       5.707   5.053  18.804  0.00  0.00    +0.000 A 
ENDROOT
BRANCH   5   6
ATOM      6  C   UNL     1       4.459   4.325  18.669  0.00  0.00    +0.000 C 
ATOM      7  N   UNL     1       3.282   4.636  19.176  0.00  0.00    +0.000 N 
ATOM      8  O   UNL     1       3.142   5.745  19.797  0.00  0.00    +0.000 OA
BRANCH   7   9
ATOM      9  C   UNL     1       2.072   3.736  19.052  0.00  0.00    +0.000 C 
ATOM     10  C   UNL     1       2.568   2.290  19.125  0.00  0.00    +0.000 C 
ATOM     11  C   UNL     1       1.119   4.013  20.227  0.00  0.00    +0.000 C 
ATOM     12  C   UNL     1       1.357   4.042  17.736  0.00  0.00    +0.000 C 
ENDBRANCH   7   9
ENDBRANCH   5   6
BRANCH   1  13
ATOM     13  C   UNL     1       5.805   6.280  16.550  0.00  0.00    +0.000 C 
ATOM     14  O   UNL     1       4.724   6.807  16.316  0.00  0.00    +0.000 OA
BRANCH  13  15
ATOM     15  O   UNL     1       6.691   5.891  15.589  0.00  0.00    +0.000 OA
BRANCH  15  17
ATOM     16  C   UNL     1       5.959   4.143  14.137  0.00  0.00    +0.000 C 
ATOM     17  C   UNL     1       6.799   4.481  15.356  0.00  0.00    +0.000 C 
ENDBRANCH  15  17
ENDBRANCH  13  15
ENDBRANCH   1  13
TORSDOF 5
ENDMDL
MODEL 3
REMARK VINA RESULT:      -6.8      1.680      2.073
REMARK  Name = 
REMARK  9 active torsions:
REMARK  status: ('A' for Active; 'I' for Inactive)
REMARK    1  A    between atoms: C_1  and  C_2
REMARK    2  A    between atoms: C_2  and  O_3
REMARK    3  A    between atoms: O_3  and  C_4
REMARK    4  A    between atoms: C_4  and  C_6
REMARK    5  A    between atoms: C_10  and  C_11
REMARK    6  A    between atoms: N_12  and  C_14
REMARK    7  A    between atoms: C_14  and  C_15
REMARK    8  A    between atoms: C_14  and  C_16
REMARK    9  A    between atoms: C_14  and  C_17
REMARK                            x       y       z     vdW  Elec       q    Type
REMARK                         _______ _______ _______ _____ _____    ______ ____
ROOT
ATOM      1  C   UNL     1       6.240   5.855  17.853  0.00  0.00    +0.000 A 
ATOM      2  S   UNL     1       7.753   6.394  18.467  0.00  0.00    +0.000 S 
ATOM      3  N   UNL     1       7.609   5.528  19.879  0.00  0.00    +0.000 NA
ATOM      4  N   UNL     1       6.470   4.864  19.954  0.00  0.00    +0.000 NA
ATOM      5  C   UNL     1       5.678   5.039  18.823  0.00  0.00    +0.000 A 
ENDROOT
BRANCH   5   6
ATOM      6  C   UNL     1       4.422   4.320  18.714  0.00  0.00    +0.000 C 
ATOM      7  N   UNL     1       3.248   4.665  19.207  0.00  0.00    +0.000 N 
ATOM      8  O   UNL     1       3.121   5.797  19.786  0.00  0.00    +0.000 OA
BRANCH   7   9
ATOM      9  C   UNL     1       2.027   3.775  19.116  0.00  0.00    +0.000 C 
ATOM     10  C   UNL     1       1.379   4.025  17.751  0.00  0.00    +0.000 C 
ATOM     11  C   UNL     1       2.469   2.306  19.214  0.00  0.00    +0.000 C 
ATOM     12  C   UNL     1       1.087   4.100  20.276  0.00  0.00    +0.000 C 
ENDBRANCH   7   9
ENDBRANCH   5   6
BRANCH   1  13
ATOM     13  C   UNL     1       5.770   6.216  16.543  0.00  0.00    +0.000 C 
ATOM     14  O   UNL     1       4.727   6.819  16.313  0.00  0.00    +0.000 OA
BRANCH  13  15
ATOM     15  O   UNL     1       6.592   5.714  15.578  0.00  0.00    +0.000 OA
BRANCH  15  17
ATOM     16  C   UNL     1       6.248   4.050  13.901  0.00  0.00    +0.000 C 
ATOM     17  C   UNL     1       6.538   4.297  15.371  0.00  0.00    +0.000 C 
ENDBRANCH  15  17
ENDBRANCH  13  15
ENDBRANCH   1  13
TORSDOF 5
ENDMDL
MODEL 4
REMARK VINA RESULT:      -6.7      0.364      1.166
REMARK  Name = 
REMARK  9 active torsions:
REMARK  status: ('A' for Active; 'I' for Inactive)
REMARK    1  A    between atoms: C_1  and  C_2
REMARK    2  A    between atoms: C_2  and  O_3
REMARK    3  A    between atoms: O_3  and  C_4
REMARK    4  A    between atoms: C_4  and  C_6
REMARK    5  A    between atoms: C_10  and  C_11
REMARK    6  A    between atoms: N_12  and  C_14
REMARK    7  A    between atoms: C_14  and  C_15
REMARK    8  A    between atoms: C_14  and  C_16
REMARK    9  A    between atoms: C_14  and  C_17
REMARK                            x       y       z     vdW  Elec       q    Type
REMARK                         _______ _______ _______ _____ _____    ______ ____
ROOT
ATOM      1  C   UNL     1       5.921   4.569  17.764  0.00  0.00    +0.000 A 
ATOM      2  S   UNL     1       7.627   4.772  17.692  0.00  0.00    +0.000 S 
ATOM      3  N   UNL     1       7.744   5.242  19.284  0.00  0.00    +0.000 NA
ATOM      4  N   UNL     1       6.570   5.293  19.886  0.00  0.00    +0.000 NA
ATOM      5  C   UNL     1       5.525   4.922  19.045  0.00  0.00    +0.000 A 
ENDROOT
BRANCH   5   6
ATOM      6  C   UNL     1       4.175   4.855  19.572  0.00  0.00    +0.000 C 
ATOM      7  N   UNL     1       3.503   3.781  19.941  0.00  0.00    +0.000 N 
ATOM      8  O   UNL     1       4.090   2.645  19.938  0.00  0.00    +0.000 OA
BRANCH   7   9
ATOM      9  C   UNL     1       2.055   3.828  20.377  0.00  0.00    +0.000 C 
ATOM     10  C   UNL     1       1.702   5.296  20.633  0.00  0.00    +0.000 C 
ATOM     11  C   UNL     1       1.172   3.276  19.246  0.00  0.00    +0.000 C 
ATOM     12  C   UNL     1       1.882   2.961  21.624  0.00  0.00    +0.000 C 
ENDBRANCH   7   9
ENDBRANCH   5   6
BRANCH   1  13
ATOM     13  C   UNL     1       5.159   4.075  16.649  0.00  0.00    +0.000 C 
ATOM     14  O   UNL     1       3.936   4.106  16.565  0.00  0.00    +0.000 OA
BRANCH  13  15
ATOM     15  O   UNL     1       5.973   3.476  15.733  0.00  0.00    +0.000 OA
BRANCH  15  17
ATOM     16  C   UNL     1       6.959   4.916  14.104  0.00  0.00    +0.000 C 
ATOM     17  C   UNL     1       5.843   3.924  14.377  0.00  0.00    +0.000 C 
ENDBRANCH  15  17
ENDBRANCH  13  15
ENDBRANCH   1  13
TORSDOF 5
ENDMDL
MODEL 5
REMARK VINA RESULT:      -6.7      0.541      1.203
REMARK  Name = 
REMARK  9 active torsions:
REMARK  status: ('A' for Active; 'I' for Inactive)
REMARK    1  A    between atoms: C_1  and  C_2
REMARK    2  A    between atoms: C_2  and  O_3
REMARK    3  A    between atoms: O_3  and  C_4
REMARK    4  A    between atoms: C_4  and  C_6
REMARK    5  A    between atoms: C_10  and  C_11
REMARK    6  A    between atoms: N_12  and  C_14
REMARK    7  A    between atoms: C_14  and  C_15
REMARK    8  A    between atoms: C_14  and  C_16
REMARK    9  A    between atoms: C_14  and  C_17
REMARK                            x       y       z     vdW  Elec       q    Type
REMARK                         _______ _______ _______ _____ _____    ______ ____
ROOT
ATOM      1  C   UNL     1       5.789   4.754  17.631  0.00  0.00    +0.000 A 
ATOM      2  S   UNL     1       7.500   4.863  17.503  0.00  0.00    +0.000 S 
ATOM      3  N   UNL     1       7.709   5.151  19.128  0.00  0.00    +0.000 NA
ATOM      4  N   UNL     1       6.566   5.206  19.785  0.00  0.00    +0.000 NA
ATOM      5  C   UNL     1       5.466   4.990  18.960  0.00  0.00    +0.000 A 
ENDROOT
BRANCH   5   6
ATOM      6  C   UNL     1       4.137   4.946  19.538  0.00  0.00    +0.000 C 
ATOM      7  N   UNL     1       3.454   3.882  19.916  0.00  0.00    +0.000 N 
ATOM      8  O   UNL     1       4.013   2.733  19.872  0.00  0.00    +0.000 OA
BRANCH   7   9
ATOM      9  C   UNL     1       2.026   3.956  20.410  0.00  0.00    +0.000 C 
ATOM     10  C   UNL     1       1.134   3.344  19.326  0.00  0.00    +0.000 C 
ATOM     11  C   UNL     1       1.899   3.137  21.704  0.00  0.00    +0.000 C 
ATOM     12  C   UNL     1       1.675   5.416  20.697  0.00  0.00    +0.000 C 
ENDBRANCH   7   9
ENDBRANCH   5   6
BRANCH   1  13
ATOM     13  C   UNL     1       4.953   4.430  16.506  0.00  0.00    +0.000 C 
ATOM     14  O   UNL     1       4.020   3.635  16.531  0.00  0.00    +0.000 OA
BRANCH  13  15
ATOM     15  O   UNL     1       5.397   5.053  15.377  0.00  0.00    +0.000 OA
BRANCH  15  17
ATOM     16  C   UNL     1       7.043   4.766  13.672  0.00  0.00    +0.000 C 
ATOM     17  C   UNL     1       5.776   4.201  14.288  0.00  0.00    +0.000 C 
ENDBRANCH  15  17
ENDBRANCH  13  15
ENDBRANCH   1  13
TORSDOF 5
ENDMDL
MODEL 6
REMARK VINA RESULT:      -6.7      1.338      1.858
REMARK  Name = 
REMARK  9 active torsions:
REMARK  status: ('A' for Active; 'I' for Inactive)
REMARK    1  A    between atoms: C_1  and  C_2
REMARK    2  A    between atoms: C_2  and  O_3
REMARK    3  A    between atoms: O_3  and  C_4
REMARK    4  A    between atoms: C_4  and  C_6
REMARK    5  A    between atoms: C_10  and  C_11
REMARK    6  A    between atoms: N_12  and  C_14
REMARK    7  A    between atoms: C_14  and  C_15
REMARK    8  A    between atoms: C_14  and  C_16
REMARK    9  A    between atoms: C_14  and  C_17
REMARK                            x       y       z     vdW  Elec       q    Type
REMARK                         _______ _______ _______ _____ _____    ______ ____
ROOT
ATOM      1  C   UNL     1       5.972   5.697  17.569  0.00  0.00    +0.000 A 
ATOM      2  S   UNL     1       7.640   5.936  17.914  0.00  0.00    +0.000 S 
ATOM      3  N   UNL     1       7.477   5.512  19.514  0.00  0.00    +0.000 NA
ATOM      4  N   UNL     1       6.231   5.223  19.839  0.00  0.00    +0.000 NA
ATOM      5  C   UNL     1       5.362   5.326  18.758  0.00  0.00    +0.000 A 
ENDROOT
BRANCH   5   6
ATOM      6  C   UNL     1       3.965   4.973  18.928  0.00  0.00    +0.000 C 
ATOM      7  N   UNL     1       3.441   3.765  19.010  0.00  0.00    +0.000 N 
ATOM      8  O   UNL     1       4.214   2.748  19.035  0.00  0.00    +0.000 OA
BRANCH   7   9
ATOM      9  C   UNL     1       1.949   3.522  19.081  0.00  0.00    +0.000 C 
ATOM     10  C   UNL     1       1.330   4.093  17.802  0.00  0.00    +0.000 C 
ATOM     11  C   UNL     1       1.690   2.007  19.145  0.00  0.00    +0.000 C 
ATOM     12  C   UNL     1       1.396   4.184  20.343  0.00  0.00    +0.000 C 
ENDBRANCH   7   9
ENDBRANCH   5   6
BRANCH   1  13
ATOM     13  C   UNL     1       5.434   5.843  16.243  0.00  0.00    +0.000 C 
ATOM     14  O   UNL     1       5.303   6.910  15.652  0.00  0.00    +0.000 OA
BRANCH  13  15
ATOM     15  O   UNL     1       4.996   4.644  15.763  0.00  0.00    +0.000 OA
BRANCH  15  17
ATOM     16  C   UNL     1       6.191   3.960  13.813  0.00  0.00    +0.000 C 
ATOM     17  C   UNL     1       6.006   3.737  15.303  0.00  0.00    +0.000 C 
ENDBRANCH  15  17
ENDBRANCH  13  15
ENDBRANCH   1  13
TORSDOF 5
ENDMDL
MODEL 7
REMARK VINA RESULT:      -6.6      1.310      1.500
REMARK  Name = 
REMARK  9 active torsions:
REMARK  status: ('A' for Active; 'I' for Inactive)
REMARK    1  A    between atoms: C_1  and  C_2
REMARK    2  A    between atoms: C_2  and  O_3
REMARK    3  A    between atoms: O_3  and  C_4
REMARK    4  A    between atoms: C_4  and  C_6
REMARK    5  A    between atoms: C_10  and  C_11
REMARK    6  A    between atoms: N_12  and  C_14
REMARK    7  A    between atoms: C_14  and  C_15
REMARK    8  A    between atoms: C_14  and  C_16
REMARK    9  A    between atoms: C_14  and  C_17
REMARK                            x       y       z     vdW  Elec       q    Type
REMARK                         _______ _______ _______ _____ _____    ______ ____
ROOT
ATOM      1  C   UNL     1       5.998   5.650  17.658  0.00  0.00    +0.000 A 
ATOM      2  S   UNL     1       7.643   5.864  18.110  0.00  0.00    +0.000 S 
ATOM      3  N   UNL     1       7.373   5.435  19.695  0.00  0.00    +0.000 NA
ATOM      4  N   UNL     1       6.105   5.162  19.937  0.00  0.00    +0.000 NA
ATOM      5  C   UNL     1       5.308   5.282  18.803  0.00  0.00    +0.000 A 
ENDROOT
BRANCH   5   6
ATOM      6  C   UNL     1       3.899   4.947  18.882  0.00  0.00    +0.000 C 
ATOM      7  N   UNL     1       3.356   3.747  18.959  0.00  0.00    +0.000 N 
ATOM      8  O   UNL     1       4.114   2.723  19.069  0.00  0.00    +0.000 OA
BRANCH   7   9
ATOM      9  C   UNL     1       1.860   3.519  18.929  0.00  0.00    +0.000 C 
ATOM     10  C   UNL     1       1.626   2.007  18.959  0.00  0.00    +0.000 C 
ATOM     11  C   UNL     1       1.230   4.162  20.175  0.00  0.00    +0.000 C 
ATOM     12  C   UNL     1       1.283   4.174  17.674  0.00  0.00    +0.000 C 
ENDBRANCH   7   9
ENDBRANCH   5   6
BRANCH   1  13
ATOM     13  C   UNL     1       5.548   5.809  16.301  0.00  0.00    +0.000 C 
ATOM     14  O   UNL     1       5.227   6.876  15.789  0.00  0.00    +0.000 OA
BRANCH  13  15
ATOM     15  O   UNL     1       5.431   4.599  15.684  0.00  0.00    +0.000 OA
BRANCH  15  17
ATOM     16  C   UNL     1       5.974   3.814  13.495  0.00  0.00    +0.000 C 
ATOM     17  C   UNL     1       6.530   4.198  14.855  0.00  0.00    +0.000 C 
ENDBRANCH  15  17
ENDBRANCH  13  15
ENDBRANCH   1  13
TORSDOF 5
ENDMDL
MODEL 8
REMARK VINA RESULT:      -6.6      1.613      1.875
REMARK  Name = 
REMARK  9 active torsions:
REMARK  status: ('A' for Active; 'I' for Inactive)
REMARK    1  A    between atoms: C_1  and  C_2
REMARK    2  A    between atoms: C_2  and  O_3
REMARK    3  A    between atoms: O_3  and  C_4
REMARK    4  A    between atoms: C_4  and  C_6
REMARK    5  A    between atoms: C_10  and  C_11
REMARK    6  A    between atoms: N_12  and  C_14
REMARK    7  A    between atoms: C_14  and  C_15
REMARK    8  A    between atoms: C_14  and  C_16
REMARK    9  A    between atoms: C_14  and  C_17
REMARK                            x       y       z     vdW  Elec       q    Type
REMARK                         _______ _______ _______ _____ _____    ______ ____
ROOT
ATOM      1  C   UNL     1       5.940   6.187  17.921  0.00  0.00    +0.000 A 
ATOM      2  S   UNL     1       7.635   6.443  18.050  0.00  0.00    +0.000 S 
ATOM      3  N   UNL     1       7.773   5.535  19.438  0.00  0.00    +0.000 NA
ATOM      4  N   UNL     1       6.613   5.060  19.850  0.00  0.00    +0.000 NA
ATOM      5  C   UNL     1       5.562   5.419  19.012  0.00  0.00    +0.000 A 
ENDROOT
BRANCH   5   6
ATOM      6  C   UNL     1       4.228   4.918  19.284  0.00  0.00    +0.000 C 
ATOM      7  N   UNL     1       3.636   3.865  18.753  0.00  0.00    +0.000 N 
ATOM      8  O   UNL     1       4.297   3.108  17.963  0.00  0.00    +0.000 OA
BRANCH   7   9
ATOM      9  C   UNL     1       2.195   3.503  19.040  0.00  0.00    +0.000 C 
ATOM     10  C   UNL     1       1.808   4.177  20.359  0.00  0.00    +0.000 C 
ATOM     11  C   UNL     1       1.307   4.042  17.907  0.00  0.00    +0.000 C 
ATOM     12  C   UNL     1       2.068   1.981  19.103  0.00  0.00    +0.000 C 
ENDBRANCH   7   9
ENDBRANCH   5   6
BRANCH   1  13
ATOM     13  C   UNL     1       5.170   6.689  16.815  0.00  0.00    +0.000 C 
ATOM     14  O   UNL     1       4.104   7.286  16.916  0.00  0.00    +0.000 OA
BRANCH  13  15
ATOM     15  O   UNL     1       5.735   6.329  15.627  0.00  0.00    +0.000 OA
BRANCH  15  17
ATOM     16  C   UNL     1       6.639   4.524  14.353  0.00  0.00    +0.000 C 
ATOM     17  C   UNL     1       5.448   5.003  15.163  0.00  0.00    +0.000 C 
ENDBRANCH  15  17
ENDBRANCH  13  15
ENDBRANCH   1  13
TORSDOF 5
ENDMDL
MODEL 9
REMARK VINA RESULT:      -6.6      1.208      1.245
REMARK  Name = 
REMARK  9 active torsions:
REMARK  status: ('A' for Active; 'I' for Inactive)
REMARK    1  A    between atoms: C_1  and  C_2
REMARK    2  A    between atoms: C_2  and  O_3
REMARK    3  A    between atoms: O_3  and  C_4
REMARK    4  A    between atoms: C_4  and  C_6
REMARK    5  A    between atoms: C_10  and  C_11
REMARK    6  A    between atoms: N_12  and  C_14
REMARK    7  A    between atoms: C_14  and  C_15
REMARK    8  A    between atoms: C_14  and  C_16
REMARK    9  A    between atoms: C_14  and  C_17
REMARK                            x       y       z     vdW  Elec       q    Type
REMARK                         _______ _______ _______ _____ _____    ______ ____
ROOT
ATOM      1  C   UNL     1       5.883   5.645  17.779  0.00  0.00    +0.000 A 
ATOM      2  S   UNL     1       7.562   6.010  17.836  0.00  0.00    +0.000 S 
ATOM      3  N   UNL     1       7.714   5.560  19.430  0.00  0.00    +0.000 NA
ATOM      4  N   UNL     1       6.570   5.172  19.959  0.00  0.00    +0.000 NA
ATOM      5  C   UNL     1       5.519   5.216  19.047  0.00  0.00    +0.000 A 
ENDROOT
BRANCH   5   6
ATOM      6  C   UNL     1       4.205   4.753  19.449  0.00  0.00    +0.000 C 
ATOM      7  N   UNL     1       3.841   3.524  19.762  0.00  0.00    +0.000 N 
ATOM      8  O   UNL     1       4.728   2.605  19.820  0.00  0.00    +0.000 OA
BRANCH   7   9
ATOM      9  C   UNL     1       2.408   3.144  20.064  0.00  0.00    +0.000 C 
ATOM     10  C   UNL     1       2.355   2.679  21.522  0.00  0.00    +0.000 C 
ATOM     11  C   UNL     1       1.513   4.382  19.887  0.00  0.00    +0.000 C 
ATOM     12  C   UNL     1       1.965   2.054  19.088  0.00  0.00    +0.000 C 
ENDBRANCH   7   9
ENDBRANCH   5   6
BRANCH   1  13
ATOM     13  C   UNL     1       5.112   5.760  16.571  0.00  0.00    +0.000 C 
ATOM     14  O   UNL     1       4.669   6.810  16.118  0.00  0.00    +0.000 OA
BRANCH  13  15
ATOM     15  O   UNL     1       4.854   4.530  16.041  0.00  0.00    +0.000 OA
BRANCH  15  17
ATOM     16  C   UNL     1       5.984   3.998  14.006  0.00  0.00    +0.000 C 
ATOM     17  C   UNL     1       5.980   3.816  15.514  0.00  0.00    +0.000 C 
ENDBRANCH  15  17
ENDBRANCH  13  15
ENDBRANCH   1  13
TORSDOF 5
ENDMDL
