MODEL 1
REMARK VINA RESULT:      -7.6      0.000      0.000
REMARK  Name = 
REMARK  5 active torsions:
REMARK  status: ('A' for Active; 'I' for Inactive)
REMARK    1  A    between atoms: C_1  and  C_2
REMARK    2  A    between atoms: C_5  and  N_6
REMARK    3  A    between atoms: N_14  and  C_15
REMARK    4  A    between atoms: C_15  and  C_16
REMARK    5  A    between atoms: N_18  and  C_19
REMARK                            x       y       z     vdW  Elec       q    Type
REMARK                         _______ _______ _______ _____ _____    ______ ____
ROOT
ATOM      1  N   UNL     1       5.056   4.623  18.356  0.00  0.00    +0.000 N 
ATOM      2  C   UNL     1       4.867   4.159  17.045  0.00  0.00    +0.000 A 
ATOM      3  O   UNL     1       3.977   3.387  16.703  0.00  0.00    +0.000 OA
ATOM      4  C   UNL     1       5.853   4.692  16.137  0.00  0.00    +0.000 A 
ATOM      5  S   UNL     1       5.856   4.326  14.478  0.00  0.00    +0.000 S 
ATOM      6  C   UNL     1       7.248   5.284  14.225  0.00  0.00    +0.000 A 
ATOM      7  C   UNL     1       7.687   5.881  15.390  0.00  0.00    +0.000 A 
ATOM      8  C   UNL     1       6.878   5.521  16.507  0.00  0.00    +0.000 A 
ATOM      9  N   UNL     1       7.062   5.842  17.855  0.00  0.00    +0.000 N 
ATOM     10  C   UNL     1       6.258   5.189  18.806  0.00  0.00    +0.000 A 
ATOM     11  O   UNL     1       6.660   5.067  19.973  0.00  0.00    +0.000 OA
ENDROOT
BRANCH   1  16
ATOM     12  C   UNL     1       1.248   2.745  22.220  0.00  0.00    +0.000 C 
ATOM     13  C   UNL     1       2.256   3.256  21.234  0.00  0.00    +0.000 A 
ATOM     14  C   UNL     1       2.197   4.574  20.761  0.00  0.00    +0.000 A 
ATOM     15  C   UNL     1       3.145   5.046  19.849  0.00  0.00    +0.000 A 
ATOM     16  C   UNL     1       4.142   4.192  19.368  0.00  0.00    +0.000 A 
ATOM     17  C   UNL     1       4.196   2.868  19.826  0.00  0.00    +0.000 A 
ATOM     18  C   UNL     1       3.269   2.410  20.767  0.00  0.00    +0.000 A 
ENDBRANCH   1  16
BRANCH   9  19
ATOM     19  C   UNL     1       8.190   6.665  18.329  0.00  0.00    +0.000 C 
BRANCH  19  20
ATOM     20  C   UNL     1       8.033   8.174  18.085  0.00  0.00    +0.000 C 
ATOM     21  O   UNL     1       7.121   8.611  17.368  0.00  0.00    +0.000 OA
ATOM     22  N   UNL     1       8.874   9.004  18.799  0.00  0.00    +0.000 N 
ATOM     23  H   UNL     1       9.725   8.597  19.183  0.00  0.00    +0.000 HD
BRANCH  22  24
ATOM     24  C   UNL     1       8.782  10.453  18.624  0.00  0.00    +0.000 C 
ATOM     25  C   UNL     1       8.672  11.230  19.944  0.00  0.00    +0.000 C 
ATOM     26  C   UNL     1       9.995  11.328  20.698  0.00  0.00    +0.000 C 
ATOM     27  C   UNL     1      11.109  11.879  19.813  0.00  0.00    +0.000 C 
ATOM     28  C   UNL     1      11.256  11.069  18.531  0.00  0.00    +0.000 C 
ATOM     29  C   UNL     1       9.937  10.993  17.766  0.00  0.00    +0.000 C 
ENDBRANCH  22  24
ENDBRANCH  19  20
ENDBRANCH   9  19
TORSDOF 4
ENDMDL
MODEL 2
REMARK VINA RESULT:      -7.2      7.561      9.800
REMARK  Name = 
REMARK  5 active torsions:
REMARK  status: ('A' for Active; 'I' for Inactive)
REMARK    1  A    between atoms: C_1  and  C_2
REMARK    2  A    between atoms: C_5  and  N_6
REMARK    3  A    between atoms: N_14  and  C_15
REMARK    4  A    between atoms: C_15  and  C_16
REMARK    5  A    between atoms: N_18  and  C_19
REMARK                            x       y       z     vdW  Elec       q    Type
REMARK                         _______ _______ _______ _____ _____    ______ ____
ROOT
ATOM      1  N   UNL     1      -0.577  12.345  20.514  0.00  0.00    +0.000 N 
ATOM      2  C   UNL     1       0.171  13.522  20.357  0.00  0.00    +0.000 A 
ATOM      3  O   UNL     1      -0.098  14.592  20.891  0.00  0.00    +0.000 OA
ATOM      4  C   UNL     1       1.300  13.329  19.480  0.00  0.00    +0.000 A 
ATOM      5  S   UNL     1       2.401  14.573  19.126  0.00  0.00    +0.000 S 
ATOM      6  C   UNL     1       3.300  13.544  18.099  0.00  0.00    +0.000 A 
ATOM      7  C   UNL     1       2.769  12.271  18.045  0.00  0.00    +0.000 A 
ATOM      8  C   UNL     1       1.593  12.154  18.842  0.00  0.00    +0.000 A 
ATOM      9  N   UNL     1       0.729  11.062  18.962  0.00  0.00    +0.000 N 
ATOM     10  C   UNL     1      -0.490  11.254  19.636  0.00  0.00    +0.000 A 
ATOM     11  O   UNL     1      -1.457  10.519  19.384  0.00  0.00    +0.000 OA
ENDROOT
BRANCH   1  16
ATOM     12  C   UNL     1      -5.131  12.751  23.987  0.00  0.00    +0.000 C 
ATOM     13  C   UNL     1      -3.945  12.611  23.080  0.00  0.00    +0.000 A 
ATOM     14  C   UNL     1      -2.748  12.047  23.541  0.00  0.00    +0.000 A 
ATOM     15  C   UNL     1      -1.650  11.911  22.687  0.00  0.00    +0.000 A 
ATOM     16  C   UNL     1      -1.722  12.376  21.371  0.00  0.00    +0.000 A 
ATOM     17  C   UNL     1      -2.912  12.957  20.910  0.00  0.00    +0.000 A 
ATOM     18  C   UNL     1      -4.021  13.057  21.754  0.00  0.00    +0.000 A 
ENDBRANCH   1  16
BRANCH   9  19
ATOM     19  C   UNL     1       0.944   9.794  18.240  0.00  0.00    +0.000 C 
BRANCH  19  20
ATOM     20  C   UNL     1       1.614   8.688  19.069  0.00  0.00    +0.000 C 
ATOM     21  O   UNL     1       1.476   8.641  20.300  0.00  0.00    +0.000 OA
ATOM     22  N   UNL     1       2.263   7.695  18.361  0.00  0.00    +0.000 N 
ATOM     23  H   UNL     1       2.533   7.900  17.400  0.00  0.00    +0.000 HD
BRANCH  22  24
ATOM     24  C   UNL     1       2.922   6.605  19.080  0.00  0.00    +0.000 C 
ATOM     25  C   UNL     1       2.038   5.364  19.268  0.00  0.00    +0.000 C 
ATOM     26  C   UNL     1       1.884   4.535  17.995  0.00  0.00    +0.000 C 
ATOM     27  C   UNL     1       3.238   4.174  17.391  0.00  0.00    +0.000 C 
ATOM     28  C   UNL     1       4.090   5.414  17.150  0.00  0.00    +0.000 C 
ATOM     29  C   UNL     1       4.263   6.228  18.429  0.00  0.00    +0.000 C 
ENDBRANCH  22  24
ENDBRANCH  19  20
ENDBRANCH   9  19
TORSDOF 4
ENDMDL
MODEL 3
REMARK VINA RESULT:      -7.1      9.821     12.201
REMARK  Name = 
REMARK  5 active torsions:
REMARK  status: ('A' for Active; 'I' for Inactive)
REMARK    1  A    between atoms: C_1  and  C_2
REMARK    2  A    between atoms: C_5  and  N_6
REMARK    3  A    between atoms: N_14  and  C_15
REMARK    4  A    between atoms: C_15  and  C_16
REMARK    5  A    between atoms: N_18  and  C_19
REMARK                            x       y       z     vdW  Elec       q    Type
REMARK                         _______ _______ _______ _____ _____    ______ ____
ROOT
ATOM      1  N   UNL     1      -1.073  11.830  21.296  0.00  0.00    +0.000 N 
ATOM      2  C   UNL     1      -0.107  10.850  21.570  0.00  0.00    +0.000 A 
ATOM      3  O   UNL     1       0.352  10.620  22.684  0.00  0.00    +0.000 OA
ATOM      4  C   UNL     1       0.296  10.144  20.379  0.00  0.00    +0.000 A 
ATOM      5  S   UNL     1       1.433   8.882  20.410  0.00  0.00    +0.000 S 
ATOM      6  C   UNL     1       1.314   8.676  18.717  0.00  0.00    +0.000 A 
ATOM      7  C   UNL     1       0.408   9.550  18.150  0.00  0.00    +0.000 A 
ATOM      8  C   UNL     1      -0.173  10.414  19.122  0.00  0.00    +0.000 A 
ATOM      9  N   UNL     1      -1.049  11.485  18.922  0.00  0.00    +0.000 N 
ATOM     10  C   UNL     1      -1.315  12.335  20.010  0.00  0.00    +0.000 A 
ATOM     11  O   UNL     1      -1.675  13.504  19.806  0.00  0.00    +0.000 OA
ENDROOT
BRANCH   1  16
ATOM     12  C   UNL     1      -3.295  15.071  25.483  0.00  0.00    +0.000 C 
ATOM     13  C   UNL     1      -2.692  14.213  24.411  0.00  0.00    +0.000 A 
ATOM     14  C   UNL     1      -1.413  14.484  23.905  0.00  0.00    +0.000 A 
ATOM     15  C   UNL     1      -0.854  13.674  22.913  0.00  0.00    +0.000 A 
ATOM     16  C   UNL     1      -1.584  12.605  22.385  0.00  0.00    +0.000 A 
ATOM     17  C   UNL     1      -2.870  12.339  22.877  0.00  0.00    +0.000 A 
ATOM     18  C   UNL     1      -3.412  13.128  23.895  0.00  0.00    +0.000 A 
ENDBRANCH   1  16
BRANCH   9  19
ATOM     19  C   UNL     1      -1.530  11.879  17.584  0.00  0.00    +0.000 C 
BRANCH  19  20
ATOM     20  C   UNL     1      -2.924  11.345  17.220  0.00  0.00    +0.000 C 
ATOM     21  O   UNL     1      -3.055  10.321  16.533  0.00  0.00    +0.000 OA
ATOM     22  N   UNL     1      -4.001  11.989  17.797  0.00  0.00    +0.000 N 
ATOM     23  H   UNL     1      -3.851  12.931  18.155  0.00  0.00    +0.000 HD
BRANCH  22  24
ATOM     24  C   UNL     1      -5.360  11.536  17.503  0.00  0.00    +0.000 C 
ATOM     25  C   UNL     1      -5.999  10.718  18.634  0.00  0.00    +0.000 C 
ATOM     26  C   UNL     1      -6.457  11.573  19.812  0.00  0.00    +0.000 C 
ATOM     27  C   UNL     1      -7.365  12.713  19.361  0.00  0.00    +0.000 C 
ATOM     28  C   UNL     1      -6.704  13.560  18.279  0.00  0.00    +0.000 C 
ATOM     29  C   UNL     1      -6.268  12.705  17.092  0.00  0.00    +0.000 C 
ENDBRANCH  22  24
ENDBRANCH  19  20
ENDBRANCH   9  19
TORSDOF 4
ENDMDL
MODEL 4
REMARK VINA RESULT:      -7.1      9.066     11.732
REMARK  Name = 
REMARK  5 active torsions:
REMARK  status: ('A' for Active; 'I' for Inactive)
REMARK    1  A    between atoms: C_1  and  C_2
REMARK    2  A    between atoms: C_5  and  N_6
REMARK    3  A    between atoms: N_14  and  C_15
REMARK    4  A    between atoms: C_15  and  C_16
REMARK    5  A    between atoms: N_18  and  C_19
REMARK                            x       y       z     vdW  Elec       q    Type
REMARK                         _______ _______ _______ _____ _____    ______ ____
ROOT
ATOM      1  N   UNL     1       0.394  10.187  19.476  0.00  0.00    +0.000 N 
ATOM      2  C   UNL     1       0.379  10.713  20.777  0.00  0.00    +0.000 A 
ATOM      3  O   UNL     1       1.116  10.341  21.685  0.00  0.00    +0.000 OA
ATOM      4  C   UNL     1      -0.618  11.744  20.929  0.00  0.00    +0.000 A 
ATOM      5  S   UNL     1      -0.846  12.581  22.390  0.00  0.00    +0.000 S 
ATOM      6  C   UNL     1      -2.115  13.503  21.713  0.00  0.00    +0.000 A 
ATOM      7  C   UNL     1      -2.344  13.181  20.390  0.00  0.00    +0.000 A 
ATOM      8  C   UNL     1      -1.476  12.143  19.941  0.00  0.00    +0.000 A 
ATOM      9  N   UNL     1      -1.472  11.486  18.707  0.00  0.00    +0.000 N 
ATOM     10  C   UNL     1      -0.666  10.342  18.571  0.00  0.00    +0.000 A 
ATOM     11  O   UNL     1      -0.954   9.482  17.724  0.00  0.00    +0.000 OA
ENDROOT
BRANCH   1  16
ATOM     12  C   UNL     1       4.028   5.981  18.038  0.00  0.00    +0.000 C 
ATOM     13  C   UNL     1       3.099   7.087  18.439  0.00  0.00    +0.000 A 
ATOM     14  C   UNL     1       2.352   7.007  19.623  0.00  0.00    +0.000 A 
ATOM     15  C   UNL     1       1.495   8.047  19.995  0.00  0.00    +0.000 A 
ATOM     16  C   UNL     1       1.344   9.163  19.167  0.00  0.00    +0.000 A 
ATOM     17  C   UNL     1       2.077   9.241  17.974  0.00  0.00    +0.000 A 
ATOM     18  C   UNL     1       2.961   8.217  17.623  0.00  0.00    +0.000 A 
ENDBRANCH   1  16
BRANCH   9  19
ATOM     19  C   UNL     1      -2.423  11.814  17.628  0.00  0.00    +0.000 C 
BRANCH  19  20
ATOM     20  C   UNL     1      -3.840  11.254  17.830  0.00  0.00    +0.000 C 
ATOM     21  O   UNL     1      -4.046  10.033  17.850  0.00  0.00    +0.000 OA
ATOM     22  N   UNL     1      -4.831  12.175  18.107  0.00  0.00    +0.000 N 
ATOM     23  H   UNL     1      -4.655  13.148  17.859  0.00  0.00    +0.000 HD
BRANCH  22  24
ATOM     24  C   UNL     1      -6.205  11.720  18.315  0.00  0.00    +0.000 C 
ATOM     25  C   UNL     1      -6.549  11.441  19.786  0.00  0.00    +0.000 C 
ATOM     26  C   UNL     1      -6.763  12.710  20.606  0.00  0.00    +0.000 C 
ATOM     27  C   UNL     1      -7.787  13.635  19.955  0.00  0.00    +0.000 C 
ATOM     28  C   UNL     1      -7.412  13.959  18.514  0.00  0.00    +0.000 C 
ATOM     29  C   UNL     1      -7.221  12.688  17.690  0.00  0.00    +0.000 C 
ENDBRANCH  22  24
ENDBRANCH  19  20
ENDBRANCH   9  19
TORSDOF 4
ENDMDL
MODEL 5
REMARK VINA RESULT:      -7.1      4.657      7.078
REMARK  Name = 
REMARK  5 active torsions:
REMARK  status: ('A' for Active; 'I' for Inactive)
REMARK    1  A    between atoms: C_1  and  C_2
REMARK    2  A    between atoms: C_5  and  N_6
REMARK    3  A    between atoms: N_14  and  C_15
REMARK    4  A    between atoms: C_15  and  C_16
REMARK    5  A    between atoms: N_18  and  C_19
REMARK                            x       y       z     vdW  Elec       q    Type
REMARK                         _______ _______ _______ _____ _____    ______ ____
ROOT
ATOM      1  N   UNL     1       2.863   5.924  18.403  0.00  0.00    +0.000 N 
ATOM      2  C   UNL     1       2.194   4.837  18.989  0.00  0.00    +0.000 A 
ATOM      3  O   UNL     1       1.223   4.938  19.730  0.00  0.00    +0.000 OA
ATOM      4  C   UNL     1       2.792   3.577  18.622  0.00  0.00    +0.000 A 
ATOM      5  S   UNL     1       2.176   2.087  19.160  0.00  0.00    +0.000 S 
ATOM      6  C   UNL     1       3.402   1.233  18.330  0.00  0.00    +0.000 A 
ATOM      7  C   UNL     1       4.252   2.078  17.645  0.00  0.00    +0.000 A 
ATOM      8  C   UNL     1       3.901   3.446  17.831  0.00  0.00    +0.000 A 
ATOM      9  N   UNL     1       4.575   4.586  17.383  0.00  0.00    +0.000 N 
ATOM     10  C   UNL     1       4.160   5.836  17.876  0.00  0.00    +0.000 A 
ATOM     11  O   UNL     1       4.959   6.785  17.903  0.00  0.00    +0.000 OA
ENDROOT
BRANCH   1  16
ATOM     12  C   UNL     1       0.640  11.108  19.472  0.00  0.00    +0.000 C 
ATOM     13  C   UNL     1       1.250   9.768  19.186  0.00  0.00    +0.000 A 
ATOM     14  C   UNL     1       1.619   9.409  17.883  0.00  0.00    +0.000 A 
ATOM     15  C   UNL     1       2.196   8.162  17.625  0.00  0.00    +0.000 A 
ATOM     16  C   UNL     1       2.374   7.243  18.663  0.00  0.00    +0.000 A 
ATOM     17  C   UNL     1       1.991   7.592  19.966  0.00  0.00    +0.000 A 
ATOM     18  C   UNL     1       1.449   8.853  20.227  0.00  0.00    +0.000 A 
ENDBRANCH   1  16
BRANCH   9  19
ATOM     19  C   UNL     1       5.818   4.516  16.594  0.00  0.00    +0.000 C 
BRANCH  19  20
ATOM     20  C   UNL     1       5.670   4.933  15.122  0.00  0.00    +0.000 C 
ATOM     21  O   UNL     1       5.480   6.118  14.812  0.00  0.00    +0.000 OA
ATOM     22  N   UNL     1       5.882   3.947  14.178  0.00  0.00    +0.000 N 
ATOM     23  H   UNL     1       5.810   2.978  14.483  0.00  0.00    +0.000 HD
BRANCH  22  24
ATOM     24  C   UNL     1       5.763   4.267  12.756  0.00  0.00    +0.000 C 
ATOM     25  C   UNL     1       7.111   4.354  12.026  0.00  0.00    +0.000 C 
ATOM     26  C   UNL     1       7.734   2.990  11.746  0.00  0.00    +0.000 C 
ATOM     27  C   UNL     1       6.761   2.065  11.021  0.00  0.00    +0.000 C 
ATOM     28  C   UNL     1       5.445   1.933  11.778  0.00  0.00    +0.000 C 
ATOM     29  C   UNL     1       4.813   3.298  12.037  0.00  0.00    +0.000 C 
ENDBRANCH  22  24
ENDBRANCH  19  20
ENDBRANCH   9  19
TORSDOF 4
ENDMDL
MODEL 6
REMARK VINA RESULT:      -7.0      6.635      9.238
REMARK  Name = 
REMARK  5 active torsions:
REMARK  status: ('A' for Active; 'I' for Inactive)
REMARK    1  A    between atoms: C_1  and  C_2
REMARK    2  A    between atoms: C_5  and  N_6
REMARK    3  A    between atoms: N_14  and  C_15
REMARK    4  A    between atoms: C_15  and  C_16
REMARK    5  A    between atoms: N_18  and  C_19
REMARK                            x       y       z     vdW  Elec       q    Type
REMARK                         _______ _______ _______ _____ _____    ______ ____
ROOT
ATOM      1  N   UNL     1       1.990   8.221  19.306  0.00  0.00    +0.000 N 
ATOM      2  C   UNL     1       1.388   7.892  20.531  0.00  0.00    +0.000 A 
ATOM      3  O   UNL     1       1.363   6.764  21.011  0.00  0.00    +0.000 OA
ATOM      4  C   UNL     1       0.788   9.042  21.162  0.00  0.00    +0.000 A 
ATOM      5  S   UNL     1       0.011   8.951  22.669  0.00  0.00    +0.000 S 
ATOM      6  C   UNL     1      -0.369  10.617  22.622  0.00  0.00    +0.000 A 
ATOM      7  C   UNL     1       0.107  11.226  21.478  0.00  0.00    +0.000 A 
ATOM      8  C   UNL     1       0.769  10.300  20.622  0.00  0.00    +0.000 A 
ATOM      9  N   UNL     1       1.291  10.517  19.343  0.00  0.00    +0.000 N 
ATOM     10  C   UNL     1       1.702   9.397  18.598  0.00  0.00    +0.000 A 
ATOM     11  O   UNL     1       1.725   9.455  17.359  0.00  0.00    +0.000 OA
ENDROOT
BRANCH   1  16
ATOM     12  C   UNL     1       4.646   3.915  16.592  0.00  0.00    +0.000 C 
ATOM     13  C   UNL     1       3.952   5.057  17.272  0.00  0.00    +0.000 A 
ATOM     14  C   UNL     1       4.613   6.273  17.493  0.00  0.00    +0.000 A 
ATOM     15  C   UNL     1       3.957   7.337  18.119  0.00  0.00    +0.000 A 
ATOM     16  C   UNL     1       2.643   7.183  18.569  0.00  0.00    +0.000 A 
ATOM     17  C   UNL     1       1.982   5.963  18.366  0.00  0.00    +0.000 A 
ATOM     18  C   UNL     1       2.628   4.914  17.706  0.00  0.00    +0.000 A 
ENDBRANCH   1  16
BRANCH   9  19
ATOM     19  C   UNL     1       1.232  11.828  18.672  0.00  0.00    +0.000 C 
BRANCH  19  20
ATOM     20  C   UNL     1      -0.180  12.281  18.270  0.00  0.00    +0.000 C 
ATOM     21  O   UNL     1      -0.502  13.477  18.311  0.00  0.00    +0.000 OA
ATOM     22  N   UNL     1      -1.014  11.310  17.751  0.00  0.00    +0.000 N 
ATOM     23  H   UNL     1      -0.785  10.337  17.949  0.00  0.00    +0.000 HD
BRANCH  22  24
ATOM     24  C   UNL     1      -2.373  11.664  17.342  0.00  0.00    +0.000 C 
ATOM     25  C   UNL     1      -2.624  11.515  15.835  0.00  0.00    +0.000 C 
ATOM     26  C   UNL     1      -2.785  10.064  15.391  0.00  0.00    +0.000 C 
ATOM     27  C   UNL     1      -3.848   9.339  16.211  0.00  0.00    +0.000 C 
ATOM     28  C   UNL     1      -3.563   9.437  17.705  0.00  0.00    +0.000 C 
ATOM     29  C   UNL     1      -3.426  10.890  18.151  0.00  0.00    +0.000 C 
ENDBRANCH  22  24
ENDBRANCH  19  20
ENDBRANCH   9  19
TORSDOF 4
ENDMDL
MODEL 7
REMARK VINA RESULT:      -6.8      7.411      9.103
REMARK  Name = 
REMARK  5 active torsions:
REMARK  status: ('A' for Active; 'I' for Inactive)
REMARK    1  A    between atoms: C_1  and  C_2
REMARK    2  A    between atoms: C_5  and  N_6
REMARK    3  A    between atoms: N_14  and  C_15
REMARK    4  A    between atoms: C_15  and  C_16
REMARK    5  A    between atoms: N_18  and  C_19
REMARK                            x       y       z     vdW  Elec       q    Type
REMARK                         _______ _______ _______ _____ _____    ______ ____
ROOT
ATOM      1  N   UNL     1       3.641  14.196  19.855  0.00  0.00    +0.000 N 
ATOM      2  C   UNL     1       3.777  14.482  21.222  0.00  0.00    +0.000 A 
ATOM      3  O   UNL     1       2.871  14.391  22.044  0.00  0.00    +0.000 OA
ATOM      4  C   UNL     1       5.114  14.909  21.552  0.00  0.00    +0.000 A 
ATOM      5  S   UNL     1       5.581  15.297  23.139  0.00  0.00    +0.000 S 
ATOM      6  C   UNL     1       7.167  15.675  22.627  0.00  0.00    +0.000 A 
ATOM      7  C   UNL     1       7.332  15.491  21.268  0.00  0.00    +0.000 A 
ATOM      8  C   UNL     1       6.127  15.058  20.643  0.00  0.00    +0.000 A 
ATOM      9  N   UNL     1       5.874  14.862  19.282  0.00  0.00    +0.000 N 
ATOM     10  C   UNL     1       4.544  14.646  18.881  0.00  0.00    +0.000 A 
ATOM     11  O   UNL     1       4.196  14.925  17.723  0.00  0.00    +0.000 OA
ENDROOT
BRANCH   1  16
ATOM     12  C   UNL     1      -1.561  12.411  18.205  0.00  0.00    +0.000 C 
ATOM     13  C   UNL     1      -0.190  12.869  18.606  0.00  0.00    +0.000 A 
ATOM     14  C   UNL     1       0.856  11.952  18.772  0.00  0.00    +0.000 A 
ATOM     15  C   UNL     1       2.133  12.387  19.136  0.00  0.00    +0.000 A 
ATOM     16  C   UNL     1       2.370  13.743  19.378  0.00  0.00    +0.000 A 
ATOM     17  C   UNL     1       1.323  14.663  19.229  0.00  0.00    +0.000 A 
ATOM     18  C   UNL     1       0.056  14.230  18.828  0.00  0.00    +0.000 A 
ENDBRANCH   1  16
BRANCH   9  19
ATOM     19  C   UNL     1       6.898  15.082  18.244  0.00  0.00    +0.000 C 
BRANCH  19  20
ATOM     20  C   UNL     1       7.646  13.814  17.801  0.00  0.00    +0.000 C 
ATOM     21  O   UNL     1       7.111  12.989  17.048  0.00  0.00    +0.000 OA
ATOM     22  N   UNL     1       8.970  13.715  18.184  0.00  0.00    +0.000 N 
ATOM     23  H   UNL     1       9.279  14.289  18.966  0.00  0.00    +0.000 HD
BRANCH  22  24
ATOM     24  C   UNL     1       9.750  12.540  17.797  0.00  0.00    +0.000 C 
ATOM     25  C   UNL     1      11.217  12.852  17.470  0.00  0.00    +0.000 C 
ATOM     26  C   UNL     1      12.070  13.106  18.709  0.00  0.00    +0.000 C 
ATOM     27  C   UNL     1      11.950  11.969  19.719  0.00  0.00    +0.000 C 
ATOM     28  C   UNL     1      10.495  11.701  20.088  0.00  0.00    +0.000 C 
ATOM     29  C   UNL     1       9.649  11.424  18.849  0.00  0.00    +0.000 C 
ENDBRANCH  22  24
ENDBRANCH  19  20
ENDBRANCH   9  19
TORSDOF 4
ENDMDL
MODEL 8
REMARK VINA RESULT:      -6.8     10.862     13.682
REMARK  Name = 
REMARK  5 active torsions:
REMARK  status: ('A' for Active; 'I' for Inactive)
REMARK    1  A    between atoms: C_1  and  C_2
REMARK    2  A    between atoms: C_5  and  N_6
REMARK    3  A    between atoms: N_14  and  C_15
REMARK    4  A    between atoms: C_15  and  C_16
REMARK    5  A    between atoms: N_18  and  C_19
REMARK                            x       y       z     vdW  Elec       q    Type
REMARK                         _______ _______ _______ _____ _____    ______ ____
ROOT
ATOM      1  N   UNL     1      -1.328  12.449  22.402  0.00  0.00    +0.000 N 
ATOM      2  C   UNL     1      -0.555  13.619  22.361  0.00  0.00    +0.000 A 
ATOM      3  O   UNL     1       0.618  13.664  22.008  0.00  0.00    +0.000 OA
ATOM      4  C   UNL     1      -1.303  14.774  22.795  0.00  0.00    +0.000 A 
ATOM      5  S   UNL     1      -0.633  16.335  22.823  0.00  0.00    +0.000 S 
ATOM      6  C   UNL     1      -2.088  16.995  23.429  0.00  0.00    +0.000 A 
ATOM      7  C   UNL     1      -3.067  16.035  23.590  0.00  0.00    +0.000 A 
ATOM      8  C   UNL     1      -2.600  14.737  23.231  0.00  0.00    +0.000 A 
ATOM      9  N   UNL     1      -3.260  13.511  23.350  0.00  0.00    +0.000 N 
ATOM     10  C   UNL     1      -2.517  12.337  23.139  0.00  0.00    +0.000 A 
ATOM     11  O   UNL     1      -2.883  11.273  23.662  0.00  0.00    +0.000 OA
ENDROOT
BRANCH   1  16
ATOM     12  C   UNL     1       1.346   7.633  20.785  0.00  0.00    +0.000 C 
ATOM     13  C   UNL     1       0.619   8.878  21.196  0.00  0.00    +0.000 A 
ATOM     14  C   UNL     1       0.084   9.749  20.238  0.00  0.00    +0.000 A 
ATOM     15  C   UNL     1      -0.602  10.903  20.629  0.00  0.00    +0.000 A 
ATOM     16  C   UNL     1      -0.725  11.220  21.985  0.00  0.00    +0.000 A 
ATOM     17  C   UNL     1      -0.178  10.360  22.947  0.00  0.00    +0.000 A 
ATOM     18  C   UNL     1       0.474   9.188  22.555  0.00  0.00    +0.000 A 
ENDBRANCH   1  16
BRANCH   9  19
ATOM     19  C   UNL     1      -4.629  13.394  23.888  0.00  0.00    +0.000 C 
BRANCH  19  20
ATOM     20  C   UNL     1      -5.745  13.570  22.847  0.00  0.00    +0.000 C 
ATOM     21  O   UNL     1      -6.314  14.662  22.701  0.00  0.00    +0.000 OA
ATOM     22  N   UNL     1      -5.986  12.495  22.014  0.00  0.00    +0.000 N 
ATOM     23  H   UNL     1      -5.660  11.579  22.320  0.00  0.00    +0.000 HD
BRANCH  22  24
ATOM     24  C   UNL     1      -7.030  12.587  20.995  0.00  0.00    +0.000 C 
ATOM     25  C   UNL     1      -6.498  12.904  19.590  0.00  0.00    +0.000 C 
ATOM     26  C   UNL     1      -5.834  11.707  18.913  0.00  0.00    +0.000 C 
ATOM     27  C   UNL     1      -6.749  10.486  18.905  0.00  0.00    +0.000 C 
ATOM     28  C   UNL     1      -7.228  10.138  20.309  0.00  0.00    +0.000 C 
ATOM     29  C   UNL     1      -7.912  11.329  20.975  0.00  0.00    +0.000 C 
ENDBRANCH  22  24
ENDBRANCH  19  20
ENDBRANCH   9  19
TORSDOF 4
ENDMDL
MODEL 9
REMARK VINA RESULT:      -6.8      8.773     11.453
REMARK  Name = 
REMARK  5 active torsions:
REMARK  status: ('A' for Active; 'I' for Inactive)
REMARK    1  A    between atoms: C_1  and  C_2
REMARK    2  A    between atoms: C_5  and  N_6
REMARK    3  A    between atoms: N_14  and  C_15
REMARK    4  A    between atoms: C_15  and  C_16
REMARK    5  A    between atoms: N_18  and  C_19
REMARK                            x       y       z     vdW  Elec       q    Type
REMARK                         _______ _______ _______ _____ _____    ______ ____
ROOT
ATOM      1  N   UNL     1       0.481   9.732  19.530  0.00  0.00    +0.000 N 
ATOM      2  C   UNL     1       0.326   9.983  20.902  0.00  0.00    +0.000 A 
ATOM      3  O   UNL     1       0.924   9.385  21.790  0.00  0.00    +0.000 OA
ATOM      4  C   UNL     1      -0.635  11.029  21.152  0.00  0.00    +0.000 A 
ATOM      5  S   UNL     1      -1.008  11.567  22.720  0.00  0.00    +0.000 S 
ATOM      6  C   UNL     1      -2.140  12.693  22.110  0.00  0.00    +0.000 A 
ATOM      7  C   UNL     1      -2.214  12.662  20.732  0.00  0.00    +0.000 A 
ATOM      8  C   UNL     1      -1.344  11.679  20.178  0.00  0.00    +0.000 A 
ATOM      9  N   UNL     1      -1.212  11.287  18.843  0.00  0.00    +0.000 N 
ATOM     10  C   UNL     1      -0.448  10.140  18.562  0.00  0.00    +0.000 A 
ATOM     11  O   UNL     1      -0.665   9.492  17.527  0.00  0.00    +0.000 OA
ENDROOT
BRANCH   1  16
ATOM     12  C   UNL     1       4.408   5.792  18.109  0.00  0.00    +0.000 C 
ATOM     13  C   UNL     1       3.365   6.812  18.453  0.00  0.00    +0.000 A 
ATOM     14  C   UNL     1       3.181   7.952  17.658  0.00  0.00    +0.000 A 
ATOM     15  C   UNL     1       2.200   8.894  17.980  0.00  0.00    +0.000 A 
ATOM     16  C   UNL     1       1.416   8.728  19.125  0.00  0.00    +0.000 A 
ATOM     17  C   UNL     1       1.607   7.597  19.933  0.00  0.00    +0.000 A 
ATOM     18  C   UNL     1       2.562   6.638  19.588  0.00  0.00    +0.000 A 
ENDBRANCH   1  16
BRANCH   9  19
ATOM     19  C   UNL     1      -2.004  11.891  17.755  0.00  0.00    +0.000 C 
BRANCH  19  20
ATOM     20  C   UNL     1      -3.426  11.329  17.606  0.00  0.00    +0.000 C 
ATOM     21  O   UNL     1      -3.615  10.173  17.203  0.00  0.00    +0.000 OA
ATOM     22  N   UNL     1      -4.455  12.131  18.060  0.00  0.00    +0.000 N 
ATOM     23  H   UNL     1      -4.267  13.127  18.164  0.00  0.00    +0.000 HD
BRANCH  22  24
ATOM     24  C   UNL     1      -5.837  11.664  17.956  0.00  0.00    +0.000 C 
ATOM     25  C   UNL     1      -6.425  11.170  19.286  0.00  0.00    +0.000 C 
ATOM     26  C   UNL     1      -6.798  12.304  20.238  0.00  0.00    +0.000 C 
ATOM     27  C   UNL     1      -7.709  13.327  19.566  0.00  0.00    +0.000 C 
ATOM     28  C   UNL     1      -7.096  13.859  18.277  0.00  0.00    +0.000 C 
ATOM     29  C   UNL     1      -6.746  12.726  17.317  0.00  0.00    +0.000 C 
ENDBRANCH  22  24
ENDBRANCH  19  20
ENDBRANCH   9  19
TORSDOF 4
ENDMDL
