MODEL 1
REMARK VINA RESULT:      -5.3      0.000      0.000
REMARK  Name = 
REMARK  8 active torsions:
REMARK  status: ('A' for Active; 'I' for Inactive)
REMARK    1  A    between atoms: C_1  and  O_2
REMARK    2  A    between atoms: O_2  and  C_3
REMARK    3  A    between atoms: C_6  and  O_7
REMARK    4  A    between atoms: O_7  and  C_8
REMARK    5  A    between atoms: C_8  and  C_9
REMARK    6  A    between atoms: C_9  and  C_10
REMARK    7  A    between atoms: C_10  and  O_11
REMARK    8  A    between atoms: O_11  and  N_12
REMARK                            x       y       z     vdW  Elec       q    Type
REMARK                         _______ _______ _______ _____ _____    ______ ____
ROOT
ATOM      1  C   UNL     1       3.377   3.374  19.885  0.00  0.00    +0.000 A 
ATOM      2  C   UNL     1       3.177   4.748  19.990  0.00  0.00    +0.000 A 
ATOM      3  C   UNL     1       3.593   5.608  18.974  0.00  0.00    +0.000 A 
ATOM      4  C   UNL     1       4.233   5.105  17.839  0.00  0.00    +0.000 A 
ATOM      5  C   UNL     1       4.443   3.727  17.737  0.00  0.00    +0.000 A 
ATOM      6  C   UNL     1       4.015   2.861  18.757  0.00  0.00    +0.000 A 
ENDROOT
BRANCH   1   8
ATOM      7  C   UNL     1       1.698   3.038  21.517  0.00  0.00    +0.000 C 
ATOM      8  O   UNL     1       2.947   2.653  20.961  0.00  0.00    +0.000 OA
ENDBRANCH   1   8
BRANCH   4   9
ATOM      9  O   UNL     1       4.694   5.864  16.793  0.00  0.00    +0.000 OA
BRANCH   9  10
ATOM     10  C   UNL     1       5.676   6.847  17.139  0.00  0.00    +0.000 C 
BRANCH  10  11
ATOM     11  C   UNL     1       7.070   6.233  17.178  0.00  0.00    +0.000 C 
BRANCH  11  12
ATOM     12  C   UNL     1       7.751   6.402  18.530  0.00  0.00    +0.000 C 
BRANCH  12  13
ATOM     13  O   UNL     1       7.299   5.375  19.418  0.00  0.00    +0.000 OA
BRANCH  13  14
ATOM     14  N   UNL     1       8.138   5.390  20.608  0.00  0.00    +0.000 NA
ATOM     15  H   UNL     1       7.848   4.522  21.060  0.00  0.00    +0.000 HD
ATOM     16  H   UNL     1       7.700   6.139  21.147  0.00  0.00    +0.000 HD
ENDBRANCH  13  14
ENDBRANCH  12  13
ENDBRANCH  11  12
ENDBRANCH  10  11
ENDBRANCH   9  10
ENDBRANCH   4   9
TORSDOF 7
ENDMDL
MODEL 2
REMARK VINA RESULT:      -5.3      1.826      2.358
REMARK  Name = 
REMARK  8 active torsions:
REMARK  status: ('A' for Active; 'I' for Inactive)
REMARK    1  A    between atoms: C_1  and  O_2
REMARK    2  A    between atoms: O_2  and  C_3
REMARK    3  A    between atoms: C_6  and  O_7
REMARK    4  A    between atoms: O_7  and  C_8
REMARK    5  A    between atoms: C_8  and  C_9
REMARK    6  A    between atoms: C_9  and  C_10
REMARK    7  A    between atoms: C_10  and  O_11
REMARK    8  A    between atoms: O_11  and  N_12
REMARK                            x       y       z     vdW  Elec       q    Type
REMARK                         _______ _______ _______ _____ _____    ______ ____
ROOT
ATOM      1  C   UNL     1       1.903   3.558  19.263  0.00  0.00    +0.000 A 
ATOM      2  C   UNL     1       2.637   2.674  18.476  0.00  0.00    +0.000 A 
ATOM      3  C   UNL     1       3.578   3.149  17.564  0.00  0.00    +0.000 A 
ATOM      4  C   UNL     1       3.790   4.522  17.413  0.00  0.00    +0.000 A 
ATOM      5  C   UNL     1       3.046   5.409  18.196  0.00  0.00    +0.000 A 
ATOM      6  C   UNL     1       2.105   4.930  19.122  0.00  0.00    +0.000 A 
ENDROOT
BRANCH   1   8
ATOM      7  C   UNL     1       1.409   2.772  21.440  0.00  0.00    +0.000 C 
ATOM      8  O   UNL     1       0.998   2.962  20.093  0.00  0.00    +0.000 OA
ENDBRANCH   1   8
BRANCH   4   9
ATOM      9  O   UNL     1       4.678   5.091  16.536  0.00  0.00    +0.000 OA
BRANCH   9  10
ATOM     10  C   UNL     1       4.970   4.310  15.372  0.00  0.00    +0.000 C 
BRANCH  10  11
ATOM     11  C   UNL     1       6.474   4.204  15.149  0.00  0.00    +0.000 C 
BRANCH  11  12
ATOM     12  C   UNL     1       7.273   5.096  16.090  0.00  0.00    +0.000 C 
BRANCH  12  13
ATOM     13  O   UNL     1       7.980   4.278  17.028  0.00  0.00    +0.000 OA
BRANCH  13  14
ATOM     14  N   UNL     1       7.275   4.320  18.301  0.00  0.00    +0.000 NA
ATOM     15  H   UNL     1       6.388   4.738  18.018  0.00  0.00    +0.000 HD
ATOM     16  H   UNL     1       7.785   5.062  18.784  0.00  0.00    +0.000 HD
ENDBRANCH  13  14
ENDBRANCH  12  13
ENDBRANCH  11  12
ENDBRANCH  10  11
ENDBRANCH   9  10
ENDBRANCH   4   9
TORSDOF 7
ENDMDL
MODEL 3
REMARK VINA RESULT:      -5.3      2.076      2.087
REMARK  Name = 
REMARK  8 active torsions:
REMARK  status: ('A' for Active; 'I' for Inactive)
REMARK    1  A    between atoms: C_1  and  O_2
REMARK    2  A    between atoms: O_2  and  C_3
REMARK    3  A    between atoms: C_6  and  O_7
REMARK    4  A    between atoms: O_7  and  C_8
REMARK    5  A    between atoms: C_8  and  C_9
REMARK    6  A    between atoms: C_9  and  C_10
REMARK    7  A    between atoms: C_10  and  O_11
REMARK    8  A    between atoms: O_11  and  N_12
REMARK                            x       y       z     vdW  Elec       q    Type
REMARK                         _______ _______ _______ _____ _____    ______ ____
ROOT
ATOM      1  C   UNL     1       1.801   4.290  19.573  0.00  0.00    +0.000 A 
ATOM      2  C   UNL     1       2.520   5.434  19.909  0.00  0.00    +0.000 A 
ATOM      3  C   UNL     1       3.469   5.959  19.033  0.00  0.00    +0.000 A 
ATOM      4  C   UNL     1       3.725   5.337  17.809  0.00  0.00    +0.000 A 
ATOM      5  C   UNL     1       3.010   4.183  17.476  0.00  0.00    +0.000 A 
ATOM      6  C   UNL     1       2.047   3.660  18.355  0.00  0.00    +0.000 A 
ENDROOT
BRANCH   1   8
ATOM      7  C   UNL     1       1.328   2.744  21.301  0.00  0.00    +0.000 C 
ATOM      8  O   UNL     1       0.925   3.868  20.532  0.00  0.00    +0.000 OA
ENDBRANCH   1   8
BRANCH   4   9
ATOM      9  O   UNL     1       4.645   5.763  16.885  0.00  0.00    +0.000 OA
BRANCH   9  10
ATOM     10  C   UNL     1       5.441   6.883  17.289  0.00  0.00    +0.000 C 
BRANCH  10  11
ATOM     11  C   UNL     1       6.926   6.563  17.179  0.00  0.00    +0.000 C 
BRANCH  11  12
ATOM     12  C   UNL     1       7.246   5.115  17.527  0.00  0.00    +0.000 C 
BRANCH  12  13
ATOM     13  O   UNL     1       7.776   4.458  16.371  0.00  0.00    +0.000 OA
BRANCH  13  14
ATOM     14  N   UNL     1       7.475   5.270  15.200  0.00  0.00    +0.000 NA
ATOM     15  H   UNL     1       8.248   5.937  15.223  0.00  0.00    +0.000 HD
ATOM     16  H   UNL     1       6.657   5.787  15.525  0.00  0.00    +0.000 HD
ENDBRANCH  13  14
ENDBRANCH  12  13
ENDBRANCH  11  12
ENDBRANCH  10  11
ENDBRANCH   9  10
ENDBRANCH   4   9
TORSDOF 7
ENDMDL
MODEL 4
REMARK VINA RESULT:      -5.2      2.785      3.085
REMARK  Name = 
REMARK  8 active torsions:
REMARK  status: ('A' for Active; 'I' for Inactive)
REMARK    1  A    between atoms: C_1  and  O_2
REMARK    2  A    between atoms: O_2  and  C_3
REMARK    3  A    between atoms: C_6  and  O_7
REMARK    4  A    between atoms: O_7  and  C_8
REMARK    5  A    between atoms: C_8  and  C_9
REMARK    6  A    between atoms: C_9  and  C_10
REMARK    7  A    between atoms: C_10  and  O_11
REMARK    8  A    between atoms: O_11  and  N_12
REMARK                            x       y       z     vdW  Elec       q    Type
REMARK                         _______ _______ _______ _____ _____    ______ ____
ROOT
ATOM      1  C   UNL     1       2.047   3.122  19.424  0.00  0.00    +0.000 A 
ATOM      2  C   UNL     1       2.527   4.366  19.826  0.00  0.00    +0.000 A 
ATOM      3  C   UNL     1       3.332   5.125  18.977  0.00  0.00    +0.000 A 
ATOM      4  C   UNL     1       3.684   4.642  17.714  0.00  0.00    +0.000 A 
ATOM      5  C   UNL     1       3.210   3.389  17.315  0.00  0.00    +0.000 A 
ATOM      6  C   UNL     1       2.391   2.629  18.167  0.00  0.00    +0.000 A 
ENDROOT
BRANCH   1   8
ATOM      7  C   UNL     1       1.673   2.668  21.716  0.00  0.00    +0.000 C 
ATOM      8  O   UNL     1       1.294   2.475  20.361  0.00  0.00    +0.000 OA
ENDBRANCH   1   8
BRANCH   4   9
ATOM      9  O   UNL     1       4.480   5.300  16.812  0.00  0.00    +0.000 OA
BRANCH   9  10
ATOM     10  C   UNL     1       5.451   4.485  16.147  0.00  0.00    +0.000 C 
BRANCH  10  11
ATOM     11  C   UNL     1       5.473   4.773  14.651  0.00  0.00    +0.000 C 
BRANCH  11  12
ATOM     12  C   UNL     1       6.827   4.487  14.015  0.00  0.00    +0.000 C 
BRANCH  12  13
ATOM     13  O   UNL     1       7.769   5.475  14.445  0.00  0.00    +0.000 OA
BRANCH  13  14
ATOM     14  N   UNL     1       8.601   5.845  13.309  0.00  0.00    +0.000 NA
ATOM     15  H   UNL     1       9.107   4.974  13.147  0.00  0.00    +0.000 HD
ATOM     16  H   UNL     1       9.273   6.473  13.754  0.00  0.00    +0.000 HD
ENDBRANCH  13  14
ENDBRANCH  12  13
ENDBRANCH  11  12
ENDBRANCH  10  11
ENDBRANCH   9  10
ENDBRANCH   4   9
TORSDOF 7
ENDMDL
MODEL 5
REMARK VINA RESULT:      -5.2      2.171      4.960
REMARK  Name = 
REMARK  8 active torsions:
REMARK  status: ('A' for Active; 'I' for Inactive)
REMARK    1  A    between atoms: C_1  and  O_2
REMARK    2  A    between atoms: O_2  and  C_3
REMARK    3  A    between atoms: C_6  and  O_7
REMARK    4  A    between atoms: O_7  and  C_8
REMARK    5  A    between atoms: C_8  and  C_9
REMARK    6  A    between atoms: C_9  and  C_10
REMARK    7  A    between atoms: C_10  and  O_11
REMARK    8  A    between atoms: O_11  and  N_12
REMARK                            x       y       z     vdW  Elec       q    Type
REMARK                         _______ _______ _______ _____ _____    ______ ____
ROOT
ATOM      1  C   UNL     1       4.787   5.338  16.951  0.00  0.00    +0.000 A 
ATOM      2  C   UNL     1       3.849   6.147  17.588  0.00  0.00    +0.000 A 
ATOM      3  C   UNL     1       2.608   5.636  17.964  0.00  0.00    +0.000 A 
ATOM      4  C   UNL     1       2.278   4.306  17.693  0.00  0.00    +0.000 A 
ATOM      5  C   UNL     1       3.215   3.497  17.044  0.00  0.00    +0.000 A 
ATOM      6  C   UNL     1       4.469   4.010  16.675  0.00  0.00    +0.000 A 
ENDROOT
BRANCH   1   8
ATOM      7  C   UNL     1       6.865   5.227  15.825  0.00  0.00    +0.000 C 
ATOM      8  O   UNL     1       5.948   5.972  16.614  0.00  0.00    +0.000 OA
ENDBRANCH   1   8
BRANCH   4   9
ATOM      9  O   UNL     1       1.082   3.711  18.006  0.00  0.00    +0.000 OA
BRANCH   9  10
ATOM     10  C   UNL     1       1.174   2.578  18.877  0.00  0.00    +0.000 C 
BRANCH  10  11
ATOM     11  C   UNL     1       1.344   3.018  20.326  0.00  0.00    +0.000 C 
BRANCH  11  12
ATOM     12  C   UNL     1       2.757   2.794  20.849  0.00  0.00    +0.000 C 
BRANCH  12  13
ATOM     13  O   UNL     1       3.463   1.934  19.949  0.00  0.00    +0.000 OA
BRANCH  13  14
ATOM     14  N   UNL     1       4.881   2.258  20.016  0.00  0.00    +0.000 NA
ATOM     15  H   UNL     1       4.875   3.223  19.682  0.00  0.00    +0.000 HD
ATOM     16  H   UNL     1       5.246   1.703  19.241  0.00  0.00    +0.000 HD
ENDBRANCH  13  14
ENDBRANCH  12  13
ENDBRANCH  11  12
ENDBRANCH  10  11
ENDBRANCH   9  10
ENDBRANCH   4   9
TORSDOF 7
ENDMDL
MODEL 6
REMARK VINA RESULT:      -5.1      2.735      5.610
REMARK  Name = 
REMARK  8 active torsions:
REMARK  status: ('A' for Active; 'I' for Inactive)
REMARK    1  A    between atoms: C_1  and  O_2
REMARK    2  A    between atoms: O_2  and  C_3
REMARK    3  A    between atoms: C_6  and  O_7
REMARK    4  A    between atoms: O_7  and  C_8
REMARK    5  A    between atoms: C_8  and  C_9
REMARK    6  A    between atoms: C_9  and  C_10
REMARK    7  A    between atoms: C_10  and  O_11
REMARK    8  A    between atoms: O_11  and  N_12
REMARK                            x       y       z     vdW  Elec       q    Type
REMARK                         _______ _______ _______ _____ _____    ______ ____
ROOT
ATOM      1  C   UNL     1       6.253   5.079  16.514  0.00  0.00    +0.000 A 
ATOM      2  C   UNL     1       6.322   5.693  17.762  0.00  0.00    +0.000 A 
ATOM      3  C   UNL     1       5.454   5.317  18.787  0.00  0.00    +0.000 A 
ATOM      4  C   UNL     1       4.490   4.329  18.574  0.00  0.00    +0.000 A 
ATOM      5  C   UNL     1       4.415   3.721  17.318  0.00  0.00    +0.000 A 
ATOM      6  C   UNL     1       5.295   4.092  16.288  0.00  0.00    +0.000 A 
ENDROOT
BRANCH   1   8
ATOM      7  C   UNL     1       7.094   4.967  14.305  0.00  0.00    +0.000 C 
ATOM      8  O   UNL     1       7.140   5.560  15.595  0.00  0.00    +0.000 OA
ENDBRANCH   1   8
BRANCH   4   9
ATOM      9  O   UNL     1       3.582   3.899  19.508  0.00  0.00    +0.000 OA
BRANCH   9  10
ATOM     10  C   UNL     1       2.884   4.938  20.203  0.00  0.00    +0.000 C 
BRANCH  10  11
ATOM     11  C   UNL     1       1.415   4.578  20.387  0.00  0.00    +0.000 C 
BRANCH  11  12
ATOM     12  C   UNL     1       1.183   3.076  20.478  0.00  0.00    +0.000 C 
BRANCH  12  13
ATOM     13  O   UNL     1       0.627   2.609  19.245  0.00  0.00    +0.000 OA
BRANCH  13  14
ATOM     14  N   UNL     1       1.610   1.757  18.589  0.00  0.00    +0.000 NA
ATOM     15  H   UNL     1       1.933   2.375  17.843  0.00  0.00    +0.000 HD
ATOM     16  H   UNL     1       1.003   1.073  18.133  0.00  0.00    +0.000 HD
ENDBRANCH  13  14
ENDBRANCH  12  13
ENDBRANCH  11  12
ENDBRANCH  10  11
ENDBRANCH   9  10
ENDBRANCH   4   9
TORSDOF 7
ENDMDL
MODEL 7
REMARK VINA RESULT:      -5.1      2.412      5.349
REMARK  Name = 
REMARK  8 active torsions:
REMARK  status: ('A' for Active; 'I' for Inactive)
REMARK    1  A    between atoms: C_1  and  O_2
REMARK    2  A    between atoms: O_2  and  C_3
REMARK    3  A    between atoms: C_6  and  O_7
REMARK    4  A    between atoms: O_7  and  C_8
REMARK    5  A    between atoms: C_8  and  C_9
REMARK    6  A    between atoms: C_9  and  C_10
REMARK    7  A    between atoms: C_10  and  O_11
REMARK    8  A    between atoms: O_11  and  N_12
REMARK                            x       y       z     vdW  Elec       q    Type
REMARK                         _______ _______ _______ _____ _____    ______ ____
ROOT
ATOM      1  C   UNL     1       5.696   5.882  17.334  0.00  0.00    +0.000 A 
ATOM      2  C   UNL     1       4.885   5.160  16.461  0.00  0.00    +0.000 A 
ATOM      3  C   UNL     1       4.083   4.121  16.932  0.00  0.00    +0.000 A 
ATOM      4  C   UNL     1       4.091   3.777  18.286  0.00  0.00    +0.000 A 
ATOM      5  C   UNL     1       4.913   4.495  19.160  0.00  0.00    +0.000 A 
ATOM      6  C   UNL     1       5.713   5.548  18.686  0.00  0.00    +0.000 A 
ENDROOT
BRANCH   1   8
ATOM      7  C   UNL     1       7.498   7.405  17.521  0.00  0.00    +0.000 C 
ATOM      8  O   UNL     1       6.449   6.852  16.738  0.00  0.00    +0.000 OA
ENDBRANCH   1   8
BRANCH   4   9
ATOM      9  O   UNL     1       3.354   2.765  18.847  0.00  0.00    +0.000 OA
BRANCH   9  10
ATOM     10  C   UNL     1       1.962   2.768  18.512  0.00  0.00    +0.000 C 
BRANCH  10  11
ATOM     11  C   UNL     1       1.100   2.862  19.765  0.00  0.00    +0.000 C 
BRANCH  11  12
ATOM     12  C   UNL     1       1.198   4.219  20.449  0.00  0.00    +0.000 C 
BRANCH  12  13
ATOM     13  O   UNL     1       2.136   4.139  21.526  0.00  0.00    +0.000 OA
BRANCH  13  14
ATOM     14  N   UNL     1       2.262   2.744  21.926  0.00  0.00    +0.000 NA
ATOM     15  H   UNL     1       2.679   2.339  21.086  0.00  0.00    +0.000 HD
ATOM     16  H   UNL     1       1.284   2.448  21.915  0.00  0.00    +0.000 HD
ENDBRANCH  13  14
ENDBRANCH  12  13
ENDBRANCH  11  12
ENDBRANCH  10  11
ENDBRANCH   9  10
ENDBRANCH   4   9
TORSDOF 7
ENDMDL
MODEL 8
REMARK VINA RESULT:      -5.1      2.893      5.568
REMARK  Name = 
REMARK  8 active torsions:
REMARK  status: ('A' for Active; 'I' for Inactive)
REMARK    1  A    between atoms: C_1  and  O_2
REMARK    2  A    between atoms: O_2  and  C_3
REMARK    3  A    between atoms: C_6  and  O_7
REMARK    4  A    between atoms: O_7  and  C_8
REMARK    5  A    between atoms: C_8  and  C_9
REMARK    6  A    between atoms: C_9  and  C_10
REMARK    7  A    between atoms: C_10  and  O_11
REMARK    8  A    between atoms: O_11  and  N_12
REMARK                            x       y       z     vdW  Elec       q    Type
REMARK                         _______ _______ _______ _____ _____    ______ ____
ROOT
ATOM      1  C   UNL     1       6.477   5.461  16.524  0.00  0.00    +0.000 A 
ATOM      2  C   UNL     1       5.202   5.986  16.325  0.00  0.00    +0.000 A 
ATOM      3  C   UNL     1       4.245   5.931  17.338  0.00  0.00    +0.000 A 
ATOM      4  C   UNL     1       4.544   5.333  18.564  0.00  0.00    +0.000 A 
ATOM      5  C   UNL     1       5.820   4.798  18.760  0.00  0.00    +0.000 A 
ATOM      6  C   UNL     1       6.787   4.862  17.743  0.00  0.00    +0.000 A 
ENDROOT
BRANCH   1   8
ATOM      7  C   UNL     1       6.931   4.809  14.295  0.00  0.00    +0.000 C 
ATOM      8  O   UNL     1       7.305   5.557  15.443  0.00  0.00    +0.000 OA
ENDBRANCH   1   8
BRANCH   4   9
ATOM      9  O   UNL     1       3.673   5.214  19.617  0.00  0.00    +0.000 OA
BRANCH   9  10
ATOM     10  C   UNL     1       2.287   5.177  19.259  0.00  0.00    +0.000 C 
BRANCH  10  11
ATOM     11  C   UNL     1       1.540   4.132  20.078  0.00  0.00    +0.000 C 
BRANCH  11  12
ATOM     12  C   UNL     1       0.895   3.055  19.215  0.00  0.00    +0.000 C 
BRANCH  12  13
ATOM     13  O   UNL     1       1.402   3.155  17.880  0.00  0.00    +0.000 OA
BRANCH  13  14
ATOM     14  N   UNL     1       2.190   1.964  17.595  0.00  0.00    +0.000 NA
ATOM     15  H   UNL     1       2.528   2.175  16.655  0.00  0.00    +0.000 HD
ATOM     16  H   UNL     1       1.454   1.267  17.470  0.00  0.00    +0.000 HD
ENDBRANCH  13  14
ENDBRANCH  12  13
ENDBRANCH  11  12
ENDBRANCH  10  11
ENDBRANCH   9  10
ENDBRANCH   4   9
TORSDOF 7
ENDMDL
MODEL 9
REMARK VINA RESULT:      -5.1      2.060      2.549
REMARK  Name = 
REMARK  8 active torsions:
REMARK  status: ('A' for Active; 'I' for Inactive)
REMARK    1  A    between atoms: C_1  and  O_2
REMARK    2  A    between atoms: O_2  and  C_3
REMARK    3  A    between atoms: C_6  and  O_7
REMARK    4  A    between atoms: O_7  and  C_8
REMARK    5  A    between atoms: C_8  and  C_9
REMARK    6  A    between atoms: C_9  and  C_10
REMARK    7  A    between atoms: C_10  and  O_11
REMARK    8  A    between atoms: O_11  and  N_12
REMARK                            x       y       z     vdW  Elec       q    Type
REMARK                         _______ _______ _______ _____ _____    ______ ____
ROOT
ATOM      1  C   UNL     1       2.488   3.559  19.083  0.00  0.00    +0.000 A 
ATOM      2  C   UNL     1       3.838   3.217  19.084  0.00  0.00    +0.000 A 
ATOM      3  C   UNL     1       4.786   4.064  18.511  0.00  0.00    +0.000 A 
ATOM      4  C   UNL     1       4.396   5.264  17.913  0.00  0.00    +0.000 A 
ATOM      5  C   UNL     1       3.040   5.603  17.904  0.00  0.00    +0.000 A 
ATOM      6  C   UNL     1       2.086   4.754  18.489  0.00  0.00    +0.000 A 
ENDROOT
BRANCH   1   8
ATOM      7  C   UNL     1       1.371   2.808  21.029  0.00  0.00    +0.000 C 
ATOM      8  O   UNL     1       1.667   2.629  19.651  0.00  0.00    +0.000 OA
ENDBRANCH   1   8
BRANCH   4   9
ATOM      9  O   UNL     1       5.244   6.158  17.311  0.00  0.00    +0.000 OA
BRANCH   9  10
ATOM     10  C   UNL     1       5.093   6.281  15.892  0.00  0.00    +0.000 C 
BRANCH  10  11
ATOM     11  C   UNL     1       5.339   4.946  15.201  0.00  0.00    +0.000 C 
BRANCH  11  12
ATOM     12  C   UNL     1       6.692   4.884  14.503  0.00  0.00    +0.000 C 
BRANCH  12  13
ATOM     13  O   UNL     1       7.698   5.409  15.376  0.00  0.00    +0.000 OA
BRANCH  13  14
ATOM     14  N   UNL     1       7.836   4.512  16.515  0.00  0.00    +0.000 NA
ATOM     15  H   UNL     1       7.906   5.181  17.282  0.00  0.00    +0.000 HD
ATOM     16  H   UNL     1       8.784   4.159  16.373  0.00  0.00    +0.000 HD
ENDBRANCH  13  14
ENDBRANCH  12  13
ENDBRANCH  11  12
ENDBRANCH  10  11
ENDBRANCH   9  10
ENDBRANCH   4   9
TORSDOF 7
ENDMDL
