MODEL 1
REMARK VINA RESULT:      -7.6      0.000      0.000
REMARK  Name = 
REMARK  2 active torsions:
REMARK  status: ('A' for Active; 'I' for Inactive)
REMARK    1  A    between atoms: N_3  and  C_4
REMARK    2  A    between atoms: N_12  and  C_13
REMARK                            x       y       z     vdW  Elec       q    Type
REMARK                         _______ _______ _______ _____ _____    ______ ____
ROOT
ATOM      1  O   UNL     1       7.521   8.839  17.257  0.00  0.00    +0.000 OA
ATOM      2  C   UNL     1       8.070   8.188  18.133  0.00  0.00    +0.000 C 
ATOM      3  N   UNL     1       7.829   6.840  18.363  0.00  0.00    +0.000 N 
ATOM      4  N   UNL     1       8.975   8.716  19.040  0.00  0.00    +0.000 N 
ATOM      5  H   UNL     1       8.187   6.455  19.224  0.00  0.00    +0.000 HD
ATOM      6  H   UNL     1       9.500   8.060  19.598  0.00  0.00    +0.000 HD
ENDROOT
BRANCH   3   7
ATOM      7  C   UNL     1       6.879   6.053  17.664  0.00  0.00    +0.000 A 
ATOM      8  C   UNL     1       7.156   5.399  16.458  0.00  0.00    +0.000 A 
ATOM      9  C   UNL     1       6.147   4.735  15.760  0.00  0.00    +0.000 A 
ATOM     10 CL   UNL     1       6.506   3.984  14.253  0.00  0.00    +0.000 Cl
ATOM     11  C   UNL     1       4.853   4.690  16.261  0.00  0.00    +0.000 A 
ATOM     12  C   UNL     1       4.584   5.293  17.485  0.00  0.00    +0.000 A 
ATOM     13 CL   UNL     1       2.986   5.239  18.122  0.00  0.00    +0.000 Cl
ATOM     14  C   UNL     1       5.587   5.963  18.193  0.00  0.00    +0.000 A 
ENDBRANCH   3   7
BRANCH   4  15
ATOM     15  C   UNL     1       9.318  10.086  19.170  0.00  0.00    +0.000 A 
ATOM     16  C   UNL     1       9.760  10.884  18.108  0.00  0.00    +0.000 A 
ATOM     17  C   UNL     1      10.079  12.229  18.310  0.00  0.00    +0.000 A 
ATOM     18 CL   UNL     1      10.636  13.181  16.988  0.00  0.00    +0.000 Cl
ATOM     19  C   UNL     1       9.953  12.805  19.567  0.00  0.00    +0.000 A 
ATOM     20  C   UNL     1       9.498  12.022  20.623  0.00  0.00    +0.000 A 
ATOM     21 CL   UNL     1       9.318  12.726  22.183  0.00  0.00    +0.000 Cl
ATOM     22  C   UNL     1       9.182  10.672  20.434  0.00  0.00    +0.000 A 
ENDBRANCH   4  15
TORSDOF 2
ENDMDL
MODEL 2
REMARK VINA RESULT:      -7.5      0.160      2.016
REMARK  Name = 
REMARK  2 active torsions:
REMARK  status: ('A' for Active; 'I' for Inactive)
REMARK    1  A    between atoms: N_3  and  C_4
REMARK    2  A    between atoms: N_12  and  C_13
REMARK                            x       y       z     vdW  Elec       q    Type
REMARK                         _______ _______ _______ _____ _____    ______ ____
ROOT
ATOM      1  O   UNL     1       7.339   8.967  17.288  0.00  0.00    +0.000 OA
ATOM      2  C   UNL     1       7.952   8.260  18.075  0.00  0.00    +0.000 C 
ATOM      3  N   UNL     1       7.714   6.903  18.245  0.00  0.00    +0.000 N 
ATOM      4  N   UNL     1       8.937   8.726  18.930  0.00  0.00    +0.000 N 
ATOM      5  H   UNL     1       8.139   6.464  19.048  0.00  0.00    +0.000 HD
ATOM      6  H   UNL     1       9.499   8.034  19.402  0.00  0.00    +0.000 HD
ENDROOT
BRANCH   3   7
ATOM      7  C   UNL     1       6.697   6.167  17.584  0.00  0.00    +0.000 A 
ATOM      8  C   UNL     1       5.416   5.974  18.114  0.00  0.00    +0.000 A 
ATOM      9  C   UNL     1       4.497   5.145  17.470  0.00  0.00    +0.000 A 
ATOM     10 CL   UNL     1       2.947   4.885  18.172  0.00  0.00    +0.000 Cl
ATOM     11  C   UNL     1       4.828   4.515  16.277  0.00  0.00    +0.000 A 
ATOM     12  C   UNL     1       6.081   4.746  15.719  0.00  0.00    +0.000 A 
ATOM     13 CL   UNL     1       6.502   3.977  14.238  0.00  0.00    +0.000 Cl
ATOM     14  C   UNL     1       7.011   5.574  16.357  0.00  0.00    +0.000 A 
ENDBRANCH   3   7
BRANCH   4  15
ATOM     15  C   UNL     1       9.307  10.083  19.111  0.00  0.00    +0.000 A 
ATOM     16  C   UNL     1       9.764  10.911  18.079  0.00  0.00    +0.000 A 
ATOM     17  C   UNL     1      10.111  12.241  18.330  0.00  0.00    +0.000 A 
ATOM     18 CL   UNL     1      10.684  13.230  17.044  0.00  0.00    +0.000 Cl
ATOM     19  C   UNL     1       9.997  12.772  19.608  0.00  0.00    +0.000 A 
ATOM     20  C   UNL     1       9.529  11.959  20.635  0.00  0.00    +0.000 A 
ATOM     21 CL   UNL     1       9.365  12.608  22.221  0.00  0.00    +0.000 Cl
ATOM     22  C   UNL     1       9.185  10.624  20.396  0.00  0.00    +0.000 A 
ENDBRANCH   4  15
TORSDOF 2
ENDMDL
MODEL 3
REMARK VINA RESULT:      -7.5      0.202      2.850
REMARK  Name = 
REMARK  2 active torsions:
REMARK  status: ('A' for Active; 'I' for Inactive)
REMARK    1  A    between atoms: N_3  and  C_4
REMARK    2  A    between atoms: N_12  and  C_13
REMARK                            x       y       z     vdW  Elec       q    Type
REMARK                         _______ _______ _______ _____ _____    ______ ____
ROOT
ATOM      1  O   UNL     1       7.358   9.075  17.302  0.00  0.00    +0.000 OA
ATOM      2  C   UNL     1       7.976   8.341  18.060  0.00  0.00    +0.000 C 
ATOM      3  N   UNL     1       7.746   6.977  18.176  0.00  0.00    +0.000 N 
ATOM      4  N   UNL     1       8.958   8.779  18.933  0.00  0.00    +0.000 N 
ATOM      5  H   UNL     1       8.174   6.509  18.961  0.00  0.00    +0.000 HD
ATOM      6  H   UNL     1       9.525   8.072  19.377  0.00  0.00    +0.000 HD
ENDROOT
BRANCH   3   7
ATOM      7  C   UNL     1       6.734   6.261  17.486  0.00  0.00    +0.000 A 
ATOM      8  C   UNL     1       5.425   6.126  17.962  0.00  0.00    +0.000 A 
ATOM      9  C   UNL     1       4.506   5.314  17.296  0.00  0.00    +0.000 A 
ATOM     10 CL   UNL     1       2.918   5.124  17.933  0.00  0.00    +0.000 Cl
ATOM     11  C   UNL     1       4.866   4.645  16.133  0.00  0.00    +0.000 A 
ATOM     12  C   UNL     1       6.150   4.820  15.627  0.00  0.00    +0.000 A 
ATOM     13 CL   UNL     1       6.609   4.002  14.184  0.00  0.00    +0.000 Cl
ATOM     14  C   UNL     1       7.081   5.629  16.288  0.00  0.00    +0.000 A 
ENDBRANCH   3   7
BRANCH   4  15
ATOM     15  C   UNL     1       9.320  10.130  19.168  0.00  0.00    +0.000 A 
ATOM     16  C   UNL     1       9.214  10.761  20.413  0.00  0.00    +0.000 A 
ATOM     17  C   UNL     1       9.592  12.096  20.572  0.00  0.00    +0.000 A 
ATOM     18 CL   UNL     1       9.435  12.849  22.112  0.00  0.00    +0.000 Cl
ATOM     19  C   UNL     1      10.092  12.822  19.499  0.00  0.00    +0.000 A 
ATOM     20  C   UNL     1      10.215  12.196  18.263  0.00  0.00    +0.000 A 
ATOM     21 CL   UNL     1      10.851  13.077  16.928  0.00  0.00    +0.000 Cl
ATOM     22  C   UNL     1       9.834  10.861  18.090  0.00  0.00    +0.000 A 
ENDBRANCH   4  15
TORSDOF 2
ENDMDL
MODEL 4
REMARK VINA RESULT:      -7.5      0.131      2.014
REMARK  Name = 
REMARK  2 active torsions:
REMARK  status: ('A' for Active; 'I' for Inactive)
REMARK    1  A    between atoms: N_3  and  C_4
REMARK    2  A    between atoms: N_12  and  C_13
REMARK                            x       y       z     vdW  Elec       q    Type
REMARK                         _______ _______ _______ _____ _____    ______ ____
ROOT
ATOM      1  O   UNL     1       7.462   8.956  17.323  0.00  0.00    +0.000 OA
ATOM      2  C   UNL     1       8.066   8.264  18.129  0.00  0.00    +0.000 C 
ATOM      3  N   UNL     1       7.870   6.897  18.277  0.00  0.00    +0.000 N 
ATOM      4  N   UNL     1       8.995   8.756  19.030  0.00  0.00    +0.000 N 
ATOM      5  H   UNL     1       8.275   6.466  19.094  0.00  0.00    +0.000 HD
ATOM      6  H   UNL     1       9.562   8.079  19.519  0.00  0.00    +0.000 HD
ENDROOT
BRANCH   3   7
ATOM      7  C   UNL     1       6.910   6.132  17.566  0.00  0.00    +0.000 A 
ATOM      8  C   UNL     1       7.178   5.495  16.349  0.00  0.00    +0.000 A 
ATOM      9  C   UNL     1       6.161   4.853  15.642  0.00  0.00    +0.000 A 
ATOM     10 CL   UNL     1       6.509   4.123  14.123  0.00  0.00    +0.000 Cl
ATOM     11  C   UNL     1       4.867   4.813  16.146  0.00  0.00    +0.000 A 
ATOM     12  C   UNL     1       4.607   5.398  17.380  0.00  0.00    +0.000 A 
ATOM     13 CL   UNL     1       3.010   5.350  18.020  0.00  0.00    +0.000 Cl
ATOM     14  C   UNL     1       5.619   6.046  18.097  0.00  0.00    +0.000 A 
ENDBRANCH   3   7
BRANCH   4  15
ATOM     15  C   UNL     1       9.308  10.123  19.238  0.00  0.00    +0.000 A 
ATOM     16  C   UNL     1       9.171  10.776  20.469  0.00  0.00    +0.000 A 
ATOM     17  C   UNL     1       9.501  12.126  20.603  0.00  0.00    +0.000 A 
ATOM     18 CL   UNL     1       9.307  12.906  22.125  0.00  0.00    +0.000 Cl
ATOM     19  C   UNL     1       9.984  12.847  19.517  0.00  0.00    +0.000 A 
ATOM     20  C   UNL     1      10.137  12.200  18.296  0.00  0.00    +0.000 A 
ATOM     21 CL   UNL     1      10.751  13.075  16.946  0.00  0.00    +0.000 Cl
ATOM     22  C   UNL     1       9.804  10.850  18.149  0.00  0.00    +0.000 A 
ENDBRANCH   4  15
TORSDOF 2
ENDMDL
MODEL 5
REMARK VINA RESULT:      -7.4      6.002      7.912
REMARK  Name = 
REMARK  2 active torsions:
REMARK  status: ('A' for Active; 'I' for Inactive)
REMARK    1  A    between atoms: N_3  and  C_4
REMARK    2  A    between atoms: N_12  and  C_13
REMARK                            x       y       z     vdW  Elec       q    Type
REMARK                         _______ _______ _______ _____ _____    ______ ____
ROOT
ATOM      1  O   UNL     1       3.855   4.299  16.380  0.00  0.00    +0.000 OA
ATOM      2  C   UNL     1       4.908   4.131  16.978  0.00  0.00    +0.000 C 
ATOM      3  N   UNL     1       5.025   4.148  18.361  0.00  0.00    +0.000 N 
ATOM      4  N   UNL     1       6.131   3.943  16.355  0.00  0.00    +0.000 N 
ATOM      5  H   UNL     1       5.961   4.192  18.737  0.00  0.00    +0.000 HD
ATOM      6  H   UNL     1       6.898   3.635  16.934  0.00  0.00    +0.000 HD
ENDROOT
BRANCH   3   7
ATOM      7  C   UNL     1       3.965   4.420  19.263  0.00  0.00    +0.000 A 
ATOM      8  C   UNL     1       3.323   3.433  20.020  0.00  0.00    +0.000 A 
ATOM      9  C   UNL     1       2.212   3.747  20.803  0.00  0.00    +0.000 A 
ATOM     10 CL   UNL     1       1.410   2.503  21.682  0.00  0.00    +0.000 Cl
ATOM     11  C   UNL     1       1.737   5.051  20.867  0.00  0.00    +0.000 A 
ATOM     12  C   UNL     1       2.405   6.045  20.158  0.00  0.00    +0.000 A 
ATOM     13 CL   UNL     1       1.832   7.666  20.233  0.00  0.00    +0.000 Cl
ATOM     14  C   UNL     1       3.519   5.741  19.368  0.00  0.00    +0.000 A 
ENDBRANCH   3   7
BRANCH   4  15
ATOM     15  C   UNL     1       6.375   4.026  14.960  0.00  0.00    +0.000 A 
ATOM     16  C   UNL     1       5.660   3.302  13.999  0.00  0.00    +0.000 A 
ATOM     17  C   UNL     1       5.955   3.435  12.640  0.00  0.00    +0.000 A 
ATOM     18 CL   UNL     1       5.069   2.520  11.482  0.00  0.00    +0.000 Cl
ATOM     19  C   UNL     1       6.956   4.298  12.214  0.00  0.00    +0.000 A 
ATOM     20  C   UNL     1       7.660   5.031  13.163  0.00  0.00    +0.000 A 
ATOM     21 CL   UNL     1       8.892   6.119  12.650  0.00  0.00    +0.000 Cl
ATOM     22  C   UNL     1       7.378   4.902  14.527  0.00  0.00    +0.000 A 
ENDBRANCH   4  15
TORSDOF 2
ENDMDL
MODEL 6
REMARK VINA RESULT:      -7.3      6.008      7.900
REMARK  Name = 
REMARK  2 active torsions:
REMARK  status: ('A' for Active; 'I' for Inactive)
REMARK    1  A    between atoms: N_3  and  C_4
REMARK    2  A    between atoms: N_12  and  C_13
REMARK                            x       y       z     vdW  Elec       q    Type
REMARK                         _______ _______ _______ _____ _____    ______ ____
ROOT
ATOM      1  O   UNL     1       3.979   4.517  16.328  0.00  0.00    +0.000 OA
ATOM      2  C   UNL     1       4.969   4.102  16.912  0.00  0.00    +0.000 C 
ATOM      3  N   UNL     1       5.040   3.924  18.287  0.00  0.00    +0.000 N 
ATOM      4  N   UNL     1       6.165   3.793  16.286  0.00  0.00    +0.000 N 
ATOM      5  H   UNL     1       5.957   3.764  18.678  0.00  0.00    +0.000 HD
ATOM      6  H   UNL     1       6.851   3.291  16.829  0.00  0.00    +0.000 HD
ENDROOT
BRANCH   3   7
ATOM      7  C   UNL     1       4.008   4.253  19.203  0.00  0.00    +0.000 A 
ATOM      8  C   UNL     1       3.348   3.305  19.994  0.00  0.00    +0.000 A 
ATOM      9  C   UNL     1       2.265   3.675  20.791  0.00  0.00    +0.000 A 
ATOM     10 CL   UNL     1       1.437   2.479  21.712  0.00  0.00    +0.000 Cl
ATOM     11  C   UNL     1       1.837   4.996  20.835  0.00  0.00    +0.000 A 
ATOM     12  C   UNL     1       2.524   5.950  20.092  0.00  0.00    +0.000 A 
ATOM     13 CL   UNL     1       2.009   7.592  20.142  0.00  0.00    +0.000 Cl
ATOM     14  C   UNL     1       3.610   5.591  19.288  0.00  0.00    +0.000 A 
ENDBRANCH   3   7
BRANCH   4  15
ATOM     15  C   UNL     1       6.468   4.009  14.917  0.00  0.00    +0.000 A 
ATOM     16  C   UNL     1       7.441   4.908  14.466  0.00  0.00    +0.000 A 
ATOM     17  C   UNL     1       7.687   5.069  13.100  0.00  0.00    +0.000 A 
ATOM     18 CL   UNL     1       8.880   6.193  12.575  0.00  0.00    +0.000 Cl
ATOM     19  C   UNL     1       6.978   4.330  12.162  0.00  0.00    +0.000 A 
ATOM     20  C   UNL     1       6.021   3.424  12.605  0.00  0.00    +0.000 A 
ATOM     21 CL   UNL     1       5.146   2.487  11.455  0.00  0.00    +0.000 Cl
ATOM     22  C   UNL     1       5.761   3.259  13.969  0.00  0.00    +0.000 A 
ENDBRANCH   4  15
TORSDOF 2
ENDMDL
MODEL 7
REMARK VINA RESULT:      -7.3      1.077      7.730
REMARK  Name = 
REMARK  2 active torsions:
REMARK  status: ('A' for Active; 'I' for Inactive)
REMARK    1  A    between atoms: N_3  and  C_4
REMARK    2  A    between atoms: N_12  and  C_13
REMARK                            x       y       z     vdW  Elec       q    Type
REMARK                         _______ _______ _______ _____ _____    ______ ____
ROOT
ATOM      1  O   UNL     1       7.530   9.238  17.764  0.00  0.00    +0.000 OA
ATOM      2  C   UNL     1       8.297   8.672  18.529  0.00  0.00    +0.000 C 
ATOM      3  N   UNL     1       9.314   9.315  19.222  0.00  0.00    +0.000 N 
ATOM      4  N   UNL     1       8.282   7.309  18.774  0.00  0.00    +0.000 N 
ATOM      5  H   UNL     1      10.001   8.727  19.670  0.00  0.00    +0.000 HD
ATOM      6  H   UNL     1       8.833   6.977  19.551  0.00  0.00    +0.000 HD
ENDROOT
BRANCH   3   7
ATOM      7  C   UNL     1       9.641  10.690  19.096  0.00  0.00    +0.000 A 
ATOM      8  C   UNL     1      10.178  11.251  17.932  0.00  0.00    +0.000 A 
ATOM      9  C   UNL     1      10.585  12.585  17.908  0.00  0.00    +0.000 A 
ATOM     10 CL   UNL     1      11.291  13.235  16.479  0.00  0.00    +0.000 Cl
ATOM     11  C   UNL     1      10.442  13.389  19.032  0.00  0.00    +0.000 A 
ATOM     12  C   UNL     1       9.860  12.849  20.175  0.00  0.00    +0.000 A 
ATOM     13 CL   UNL     1       9.671  13.835  21.573  0.00  0.00    +0.000 Cl
ATOM     14  C   UNL     1       9.450  11.512  20.211  0.00  0.00    +0.000 A 
ENDBRANCH   3   7
BRANCH   4  15
ATOM     15  C   UNL     1       7.471   6.354  18.111  0.00  0.00    +0.000 A 
ATOM     16  C   UNL     1       7.476   6.154  16.725  0.00  0.00    +0.000 A 
ATOM     17  C   UNL     1       6.650   5.191  16.139  0.00  0.00    +0.000 A 
ATOM     18 CL   UNL     1       6.666   4.979  14.431  0.00  0.00    +0.000 Cl
ATOM     19  C   UNL     1       5.814   4.405  16.922  0.00  0.00    +0.000 A 
ATOM     20  C   UNL     1       5.817   4.588  18.301  0.00  0.00    +0.000 A 
ATOM     21 CL   UNL     1       4.801   3.608  19.286  0.00  0.00    +0.000 Cl
ATOM     22  C   UNL     1       6.635   5.553  18.898  0.00  0.00    +0.000 A 
ENDBRANCH   4  15
TORSDOF 2
ENDMDL
MODEL 8
REMARK VINA RESULT:      -7.3      5.962      7.548
REMARK  Name = 
REMARK  2 active torsions:
REMARK  status: ('A' for Active; 'I' for Inactive)
REMARK    1  A    between atoms: N_3  and  C_4
REMARK    2  A    between atoms: N_12  and  C_13
REMARK                            x       y       z     vdW  Elec       q    Type
REMARK                         _______ _______ _______ _____ _____    ______ ____
ROOT
ATOM      1  O   UNL     1       4.189   5.361  16.439  0.00  0.00    +0.000 OA
ATOM      2  C   UNL     1       4.955   4.571  16.971  0.00  0.00    +0.000 C 
ATOM      3  N   UNL     1       5.995   3.935  16.308  0.00  0.00    +0.000 N 
ATOM      4  N   UNL     1       4.863   4.174  18.295  0.00  0.00    +0.000 N 
ATOM      5  H   UNL     1       6.438   3.166  16.789  0.00  0.00    +0.000 HD
ATOM      6  H   UNL     1       5.646   3.665  18.676  0.00  0.00    +0.000 HD
ENDROOT
BRANCH   3   7
ATOM      7  C   UNL     1       6.275   4.062  14.923  0.00  0.00    +0.000 A 
ATOM      8  C   UNL     1       5.614   3.326  13.932  0.00  0.00    +0.000 A 
ATOM      9  C   UNL     1       6.013   3.411  12.598  0.00  0.00    +0.000 A 
ATOM     10 CL   UNL     1       5.217   2.455  11.408  0.00  0.00    +0.000 Cl
ATOM     11  C   UNL     1       7.057   4.248  12.224  0.00  0.00    +0.000 A 
ATOM     12  C   UNL     1       7.681   5.021  13.197  0.00  0.00    +0.000 A 
ATOM     13 CL   UNL     1       8.972   6.067  12.747  0.00  0.00    +0.000 Cl
ATOM     14  C   UNL     1       7.291   4.942  14.538  0.00  0.00    +0.000 A 
ENDBRANCH   3   7
BRANCH   4  15
ATOM     15  C   UNL     1       3.825   4.521  19.197  0.00  0.00    +0.000 A 
ATOM     16  C   UNL     1       3.342   5.824  19.367  0.00  0.00    +0.000 A 
ATOM     17  C   UNL     1       2.315   6.093  20.274  0.00  0.00    +0.000 A 
ATOM     18 CL   UNL     1       1.753   7.708  20.473  0.00  0.00    +0.000 Cl
ATOM     19  C   UNL     1       1.742   5.069  21.018  0.00  0.00    +0.000 A 
ATOM     20  C   UNL     1       2.206   3.770  20.841  0.00  0.00    +0.000 A 
ATOM     21 CL   UNL     1       1.493   2.487  21.742  0.00  0.00    +0.000 Cl
ATOM     22  C   UNL     1       3.239   3.490  19.941  0.00  0.00    +0.000 A 
ENDBRANCH   4  15
TORSDOF 2
ENDMDL
MODEL 9
REMARK VINA RESULT:      -7.3      5.946      7.464
REMARK  Name = 
REMARK  2 active torsions:
REMARK  status: ('A' for Active; 'I' for Inactive)
REMARK    1  A    between atoms: N_3  and  C_4
REMARK    2  A    between atoms: N_12  and  C_13
REMARK                            x       y       z     vdW  Elec       q    Type
REMARK                         _______ _______ _______ _____ _____    ______ ____
ROOT
ATOM      1  O   UNL     1       4.371   5.453  16.423  0.00  0.00    +0.000 OA
ATOM      2  C   UNL     1       5.033   4.578  16.960  0.00  0.00    +0.000 C 
ATOM      3  N   UNL     1       6.046   3.873  16.324  0.00  0.00    +0.000 N 
ATOM      4  N   UNL     1       4.834   4.143  18.260  0.00  0.00    +0.000 N 
ATOM      5  H   UNL     1       6.392   3.050  16.795  0.00  0.00    +0.000 HD
ATOM      6  H   UNL     1       5.547   3.551  18.659  0.00  0.00    +0.000 HD
ENDROOT
BRANCH   3   7
ATOM      7  C   UNL     1       6.410   4.024  14.961  0.00  0.00    +0.000 A 
ATOM      8  C   UNL     1       7.444   4.862  14.527  0.00  0.00    +0.000 A 
ATOM      9  C   UNL     1       7.679   5.055  13.166  0.00  0.00    +0.000 A 
ATOM     10 CL   UNL     1       8.922   6.133  12.660  0.00  0.00    +0.000 Cl
ATOM     11  C   UNL     1       6.906   4.400  12.215  0.00  0.00    +0.000 A 
ATOM     12  C   UNL     1       5.913   3.526  12.642  0.00  0.00    +0.000 A 
ATOM     13 CL   UNL     1       4.953   2.702  11.475  0.00  0.00    +0.000 Cl
ATOM     14  C   UNL     1       5.667   3.325  14.005  0.00  0.00    +0.000 A 
ENDBRANCH   3   7
BRANCH   4  15
ATOM     15  C   UNL     1       3.785   4.550  19.122  0.00  0.00    +0.000 A 
ATOM     16  C   UNL     1       3.350   5.875  19.249  0.00  0.00    +0.000 A 
ATOM     17  C   UNL     1       2.307   6.204  20.118  0.00  0.00    +0.000 A 
ATOM     18 CL   UNL     1       1.805   7.844  20.266  0.00  0.00    +0.000 Cl
ATOM     19  C   UNL     1       1.671   5.220  20.866  0.00  0.00    +0.000 A 
ATOM     20  C   UNL     1       2.088   3.900  20.731  0.00  0.00    +0.000 A 
ATOM     21 CL   UNL     1       1.298   2.667  21.636  0.00  0.00    +0.000 Cl
ATOM     22  C   UNL     1       3.136   3.560  19.869  0.00  0.00    +0.000 A 
ENDBRANCH   4  15
TORSDOF 2
ENDMDL
