MODEL 1
REMARK VINA RESULT:      -8.7      0.000      0.000
REMARK  Name = 
REMARK  3 active torsions:
REMARK  status: ('A' for Active; 'I' for Inactive)
REMARK    1  A    between atoms: C_2  and  C_3
REMARK    2  A    between atoms: C_3  and  C_4
REMARK    3  A    between atoms: C_6  and  N_7
REMARK                            x       y       z     vdW  Elec       q    Type
REMARK                         _______ _______ _______ _____ _____    ______ ____
ROOT
ATOM      1  C   UNL     1       1.948   8.215  18.108  0.00  0.00    +0.000 C 
ENDROOT
BRANCH   1   3
ATOM      2  O   UNL     1       1.765   7.772  20.443  0.00  0.00    +0.000 OA
ATOM      3  C   UNL     1       1.474   8.532  19.516  0.00  0.00    +0.000 C 
ATOM      4  N   UNL     1       0.681   9.651  19.671  0.00  0.00    +0.000 N 
ATOM      5  C   UNL     1       0.280  10.591  18.596  0.00  0.00    +0.000 C 
ATOM      6  C   UNL     1      -0.639  11.597  19.275  0.00  0.00    +0.000 C 
ATOM      7  C   UNL     1      -0.663  13.039  18.832  0.00  0.00    +0.000 C 
ATOM      8  C   UNL     1      -1.839  12.148  18.543  0.00  0.00    +0.000 C 
ATOM      9  C   UNL     1      -0.696  11.194  20.708  0.00  0.00    +0.000 A 
ATOM     10  C   UNL     1      -1.381  11.748  21.785  0.00  0.00    +0.000 A 
ATOM     11  C   UNL     1      -1.271  11.157  23.047  0.00  0.00    +0.000 A 
ATOM     12  C   UNL     1      -0.475  10.020  23.229  0.00  0.00    +0.000 A 
ATOM     13  C   UNL     1       0.213   9.461  22.154  0.00  0.00    +0.000 A 
ATOM     14  C   UNL     1       0.093  10.054  20.903  0.00  0.00    +0.000 A 
ENDBRANCH   1   3
BRANCH   1  15
ATOM     15  C   UNL     1       2.428   6.788  17.900  0.00  0.00    +0.000 A 
ATOM     16  N   UNL     1       3.682   6.550  17.675  0.00  0.00    +0.000 NA
ATOM     17  C   UNL     1       4.082   5.237  17.524  0.00  0.00    +0.000 A 
ATOM     18  C   UNL     1       3.200   4.223  17.563  0.00  0.00    +0.000 A 
ATOM     19  C   UNL     1       1.792   4.494  17.822  0.00  0.00    +0.000 A 
ATOM     20  O   UNL     1       0.981   3.590  17.983  0.00  0.00    +0.000 OA
ATOM     21  N   UNL     1       1.477   5.808  17.905  0.00  0.00    +0.000 N 
ATOM     22  H   UNL     1       0.540   6.012  18.243  0.00  0.00    +0.000 HD
BRANCH  17  23
ATOM     23  N   UNL     1       5.426   4.912  17.318  0.00  0.00    +0.000 N 
ATOM     24  C   UNL     1       6.317   4.592  18.450  0.00  0.00    +0.000 C 
ATOM     25  C   UNL     1       7.771   4.901  18.046  0.00  0.00    +0.000 C 
ATOM     26  O   UNL     1       8.165   4.191  16.857  0.00  0.00    +0.000 OA
ATOM     27  C   UNL     1       7.290   4.523  15.766  0.00  0.00    +0.000 C 
ATOM     28  C   UNL     1       5.837   4.175  16.100  0.00  0.00    +0.000 C 
ENDBRANCH  17  23
ENDBRANCH   1  15
TORSDOF 3
ENDMDL
MODEL 2
REMARK VINA RESULT:      -8.6      2.873      8.720
REMARK  Name = 
REMARK  3 active torsions:
REMARK  status: ('A' for Active; 'I' for Inactive)
REMARK    1  A    between atoms: C_2  and  C_3
REMARK    2  A    between atoms: C_3  and  C_4
REMARK    3  A    between atoms: C_6  and  N_7
REMARK                            x       y       z     vdW  Elec       q    Type
REMARK                         _______ _______ _______ _____ _____    ______ ____
ROOT
ATOM      1  C   UNL     1       1.149   8.673  20.359  0.00  0.00    +0.000 C 
ENDROOT
BRANCH   1   3
ATOM      2  O   UNL     1       2.592   8.529  18.468  0.00  0.00    +0.000 OA
ATOM      3  C   UNL     1       2.066   7.926  19.406  0.00  0.00    +0.000 C 
ATOM      4  N   UNL     1       2.219   6.570  19.618  0.00  0.00    +0.000 N 
ATOM      5  C   UNL     1       1.600   5.784  20.713  0.00  0.00    +0.000 C 
ATOM      6  C   UNL     1       2.025   4.346  20.455  0.00  0.00    +0.000 C 
ATOM      7  C   UNL     1       2.281   3.401  21.603  0.00  0.00    +0.000 C 
ATOM      8  C   UNL     1       1.072   3.208  20.730  0.00  0.00    +0.000 C 
ATOM      9  C   UNL     1       2.886   4.388  19.240  0.00  0.00    +0.000 A 
ATOM     10  C   UNL     1       3.544   3.373  18.552  0.00  0.00    +0.000 A 
ATOM     11  C   UNL     1       4.290   3.687  17.412  0.00  0.00    +0.000 A 
ATOM     12  C   UNL     1       4.380   5.010  16.967  0.00  0.00    +0.000 A 
ATOM     13  C   UNL     1       3.724   6.031  17.652  0.00  0.00    +0.000 A 
ATOM     14  C   UNL     1       2.981   5.708  18.781  0.00  0.00    +0.000 A 
ENDBRANCH   1   3
BRANCH   1  15
ATOM     15  C   UNL     1       0.516   9.929  19.787  0.00  0.00    +0.000 A 
ATOM     16  N   UNL     1      -0.492   9.838  18.976  0.00  0.00    +0.000 NA
ATOM     17  C   UNL     1      -1.059  11.004  18.503  0.00  0.00    +0.000 A 
ATOM     18  C   UNL     1      -0.566  12.211  18.831  0.00  0.00    +0.000 A 
ATOM     19  C   UNL     1       0.563  12.310  19.748  0.00  0.00    +0.000 A 
ATOM     20  O   UNL     1       0.963  13.391  20.162  0.00  0.00    +0.000 OA
ATOM     21  N   UNL     1       1.092  11.121  20.121  0.00  0.00    +0.000 N 
ATOM     22  H   UNL     1       1.768  11.163  20.879  0.00  0.00    +0.000 HD
BRANCH  17  23
ATOM     23  N   UNL     1      -2.171  10.973  17.656  0.00  0.00    +0.000 N 
ATOM     24  C   UNL     1      -2.201  10.102  16.465  0.00  0.00    +0.000 C 
ATOM     25  C   UNL     1      -3.170  10.702  15.429  0.00  0.00    +0.000 C 
ATOM     26  O   UNL     1      -4.491  10.890  15.970  0.00  0.00    +0.000 OA
ATOM     27  C   UNL     1      -4.441  11.748  17.122  0.00  0.00    +0.000 C 
ATOM     28  C   UNL     1      -3.534  11.159  18.207  0.00  0.00    +0.000 C 
ENDBRANCH  17  23
ENDBRANCH   1  15
TORSDOF 3
ENDMDL
MODEL 3
REMARK VINA RESULT:      -8.5      2.744      8.903
REMARK  Name = 
REMARK  3 active torsions:
REMARK  status: ('A' for Active; 'I' for Inactive)
REMARK    1  A    between atoms: C_2  and  C_3
REMARK    2  A    between atoms: C_3  and  C_4
REMARK    3  A    between atoms: C_6  and  N_7
REMARK                            x       y       z     vdW  Elec       q    Type
REMARK                         _______ _______ _______ _____ _____    ______ ____
ROOT
ATOM      1  C   UNL     1       1.001   8.366  20.858  0.00  0.00    +0.000 C 
ENDROOT
BRANCH   1   3
ATOM      2  O   UNL     1       2.374   8.496  18.914  0.00  0.00    +0.000 OA
ATOM      3  C   UNL     1       1.914   7.771  19.799  0.00  0.00    +0.000 C 
ATOM      4  N   UNL     1       2.141   6.411  19.861  0.00  0.00    +0.000 N 
ATOM      5  C   UNL     1       1.603   5.483  20.886  0.00  0.00    +0.000 C 
ATOM      6  C   UNL     1       2.087   4.104  20.462  0.00  0.00    +0.000 C 
ATOM      7  C   UNL     1       2.432   3.059  21.493  0.00  0.00    +0.000 C 
ATOM      8  C   UNL     1       1.201   2.896  20.647  0.00  0.00    +0.000 C 
ATOM      9  C   UNL     1       2.897   4.318  19.230  0.00  0.00    +0.000 A 
ATOM     10  C   UNL     1       3.575   3.415  18.417  0.00  0.00    +0.000 A 
ATOM     11  C   UNL     1       4.260   3.885  17.292  0.00  0.00    +0.000 A 
ATOM     12  C   UNL     1       4.269   5.251  16.988  0.00  0.00    +0.000 A 
ATOM     13  C   UNL     1       3.592   6.158  17.799  0.00  0.00    +0.000 A 
ATOM     14  C   UNL     1       2.910   5.681  18.912  0.00  0.00    +0.000 A 
ENDBRANCH   1   3
BRANCH   1  15
ATOM     15  C   UNL     1       0.463   9.749  20.536  0.00  0.00    +0.000 A 
ATOM     16  N   UNL     1      -0.597   9.880  19.801  0.00  0.00    +0.000 NA
ATOM     17  C   UNL     1      -1.072  11.153  19.558  0.00  0.00    +0.000 A 
ATOM     18  C   UNL     1      -0.439  12.243  20.028  0.00  0.00    +0.000 A 
ATOM     19  C   UNL     1       0.749  12.092  20.859  0.00  0.00    +0.000 A 
ATOM     20  O   UNL     1       1.281  13.052  21.401  0.00  0.00    +0.000 OA
ATOM     21  N   UNL     1       1.177  10.816  21.003  0.00  0.00    +0.000 N 
ATOM     22  H   UNL     1       1.900  10.675  21.704  0.00  0.00    +0.000 HD
BRANCH  17  23
ATOM     23  N   UNL     1      -2.232  11.359  18.806  0.00  0.00    +0.000 N 
ATOM     24  C   UNL     1      -3.346  12.175  19.327  0.00  0.00    +0.000 C 
ATOM     25  C   UNL     1      -4.655  11.729  18.649  0.00  0.00    +0.000 C 
ATOM     26  O   UNL     1      -4.576  11.811  17.213  0.00  0.00    +0.000 OA
ATOM     27  C   UNL     1      -3.492  11.002  16.727  0.00  0.00    +0.000 C 
ATOM     28  C   UNL     1      -2.157  11.451  17.329  0.00  0.00    +0.000 C 
ENDBRANCH  17  23
ENDBRANCH   1  15
TORSDOF 3
ENDMDL
MODEL 4
REMARK VINA RESULT:      -8.5      2.796      8.540
REMARK  Name = 
REMARK  3 active torsions:
REMARK  status: ('A' for Active; 'I' for Inactive)
REMARK    1  A    between atoms: C_2  and  C_3
REMARK    2  A    between atoms: C_3  and  C_4
REMARK    3  A    between atoms: C_6  and  N_7
REMARK                            x       y       z     vdW  Elec       q    Type
REMARK                         _______ _______ _______ _____ _____    ______ ____
ROOT
ATOM      1  C   UNL     1       2.109   8.624  18.762  0.00  0.00    +0.000 C 
ENDROOT
BRANCH   1   3
ATOM      2  O   UNL     1       1.357   7.374  20.648  0.00  0.00    +0.000 OA
ATOM      3  C   UNL     1       2.006   7.360  19.599  0.00  0.00    +0.000 C 
ATOM      4  N   UNL     1       2.705   6.256  19.153  0.00  0.00    +0.000 N 
ATOM      5  C   UNL     1       3.518   6.180  17.914  0.00  0.00    +0.000 C 
ATOM      6  C   UNL     1       4.125   4.786  17.926  0.00  0.00    +0.000 C 
ATOM      7  C   UNL     1       4.357   4.036  16.638  0.00  0.00    +0.000 C 
ATOM      8  C   UNL     1       5.530   4.562  17.418  0.00  0.00    +0.000 C 
ATOM      9  C   UNL     1       3.609   4.127  19.159  0.00  0.00    +0.000 A 
ATOM     10  C   UNL     1       3.836   2.855  19.676  0.00  0.00    +0.000 A 
ATOM     11  C   UNL     1       3.227   2.486  20.880  0.00  0.00    +0.000 A 
ATOM     12  C   UNL     1       2.394   3.383  21.557  0.00  0.00    +0.000 A 
ATOM     13  C   UNL     1       2.164   4.657  21.043  0.00  0.00    +0.000 A 
ATOM     14  C   UNL     1       2.777   5.017  19.849  0.00  0.00    +0.000 A 
ENDBRANCH   1   3
BRANCH   1  15
ATOM     15  C   UNL     1       1.021   9.653  19.020  0.00  0.00    +0.000 A 
ATOM     16  N   UNL     1       0.013   9.750  18.211  0.00  0.00    +0.000 NA
ATOM     17  C   UNL     1      -0.970  10.675  18.498  0.00  0.00    +0.000 A 
ATOM     18  C   UNL     1      -0.879  11.492  19.562  0.00  0.00    +0.000 A 
ATOM     19  C   UNL     1       0.253  11.376  20.473  0.00  0.00    +0.000 A 
ATOM     20  O   UNL     1       0.310  12.020  21.514  0.00  0.00    +0.000 OA
ATOM     21  N   UNL     1       1.195  10.483  20.089  0.00  0.00    +0.000 N 
ATOM     22  H   UNL     1       1.905  10.272  20.786  0.00  0.00    +0.000 HD
BRANCH  17  23
ATOM     23  N   UNL     1      -2.101  10.801  17.686  0.00  0.00    +0.000 N 
ATOM     24  C   UNL     1      -2.219  10.055  16.418  0.00  0.00    +0.000 C 
ATOM     25  C   UNL     1      -3.169  10.817  15.475  0.00  0.00    +0.000 C 
ATOM     26  O   UNL     1      -4.461  11.038  16.071  0.00  0.00    +0.000 OA
ATOM     27  C   UNL     1      -4.324  11.773  17.299  0.00  0.00    +0.000 C 
ATOM     28  C   UNL     1      -3.435  11.022  18.294  0.00  0.00    +0.000 C 
ENDBRANCH  17  23
ENDBRANCH   1  15
TORSDOF 3
ENDMDL
MODEL 5
REMARK VINA RESULT:      -8.4      1.219      1.522
REMARK  Name = 
REMARK  3 active torsions:
REMARK  status: ('A' for Active; 'I' for Inactive)
REMARK    1  A    between atoms: C_2  and  C_3
REMARK    2  A    between atoms: C_3  and  C_4
REMARK    3  A    between atoms: C_6  and  N_7
REMARK                            x       y       z     vdW  Elec       q    Type
REMARK                         _______ _______ _______ _____ _____    ______ ____
ROOT
ATOM      1  C   UNL     1       1.877   8.213  18.812  0.00  0.00    +0.000 C 
ENDROOT
BRANCH   1   3
ATOM      2  O   UNL     1       1.457   8.228  21.158  0.00  0.00    +0.000 OA
ATOM      3  C   UNL     1       1.247   8.777  20.074  0.00  0.00    +0.000 C 
ATOM      4  N   UNL     1       0.413   9.867  19.924  0.00  0.00    +0.000 N 
ATOM      5  C   UNL     1       0.105  10.560  18.648  0.00  0.00    +0.000 C 
ATOM      6  C   UNL     1      -0.906  11.635  19.018  0.00  0.00    +0.000 C 
ATOM      7  C   UNL     1      -0.919  12.960  18.297  0.00  0.00    +0.000 C 
ATOM      8  C   UNL     1      -2.034  11.977  18.075  0.00  0.00    +0.000 C 
ATOM      9  C   UNL     1      -1.105  11.518  20.490  0.00  0.00    +0.000 A 
ATOM     10  C   UNL     1      -1.915  12.240  21.361  0.00  0.00    +0.000 A 
ATOM     11  C   UNL     1      -1.925  11.913  22.720  0.00  0.00    +0.000 A 
ATOM     12  C   UNL     1      -1.125  10.871  23.203  0.00  0.00    +0.000 A 
ATOM     13  C   UNL     1      -0.312  10.146  22.336  0.00  0.00    +0.000 A 
ATOM     14  C   UNL     1      -0.312  10.476  20.986  0.00  0.00    +0.000 A 
ENDBRANCH   1   3
BRANCH   1  15
ATOM     15  C   UNL     1       2.620   6.902  18.999  0.00  0.00    +0.000 A 
ATOM     16  N   UNL     1       3.659   6.633  18.270  0.00  0.00    +0.000 NA
ATOM     17  C   UNL     1       4.326   5.446  18.493  0.00  0.00    +0.000 A 
ATOM     18  C   UNL     1       3.898   4.558  19.409  0.00  0.00    +0.000 A 
ATOM     19  C   UNL     1       2.734   4.866  20.230  0.00  0.00    +0.000 A 
ATOM     20  O   UNL     1       2.386   4.139  21.152  0.00  0.00    +0.000 OA
ATOM     21  N   UNL     1       2.109   6.024  19.911  0.00  0.00    +0.000 N 
ATOM     22  H   UNL     1       1.400   6.333  20.571  0.00  0.00    +0.000 HD
BRANCH  17  23
ATOM     23  N   UNL     1       5.474   5.116  17.768  0.00  0.00    +0.000 N 
ATOM     24  C   UNL     1       5.469   5.106  16.292  0.00  0.00    +0.000 C 
ATOM     25  C   UNL     1       6.564   4.145  15.793  0.00  0.00    +0.000 C 
ATOM     26  O   UNL     1       7.864   4.491  16.307  0.00  0.00    +0.000 OA
ATOM     27  C   UNL     1       7.849   4.485  17.744  0.00  0.00    +0.000 C 
ATOM     28  C   UNL     1       6.814   5.475  18.288  0.00  0.00    +0.000 C 
ENDBRANCH  17  23
ENDBRANCH   1  15
TORSDOF 3
ENDMDL
MODEL 6
REMARK VINA RESULT:      -8.4      2.769      8.593
REMARK  Name = 
REMARK  3 active torsions:
REMARK  status: ('A' for Active; 'I' for Inactive)
REMARK    1  A    between atoms: C_2  and  C_3
REMARK    2  A    between atoms: C_3  and  C_4
REMARK    3  A    between atoms: C_6  and  N_7
REMARK                            x       y       z     vdW  Elec       q    Type
REMARK                         _______ _______ _______ _____ _____    ______ ____
ROOT
ATOM      1  C   UNL     1       1.907   8.686  18.936  0.00  0.00    +0.000 C 
ENDROOT
BRANCH   1   3
ATOM      2  O   UNL     1       1.237   7.386  20.818  0.00  0.00    +0.000 OA
ATOM      3  C   UNL     1       1.853   7.404  19.749  0.00  0.00    +0.000 C 
ATOM      4  N   UNL     1       2.556   6.322  19.259  0.00  0.00    +0.000 N 
ATOM      5  C   UNL     1       3.330   6.286  17.994  0.00  0.00    +0.000 C 
ATOM      6  C   UNL     1       3.961   4.902  17.958  0.00  0.00    +0.000 C 
ATOM      7  C   UNL     1       4.165   4.182  16.648  0.00  0.00    +0.000 C 
ATOM      8  C   UNL     1       5.352   4.714  17.402  0.00  0.00    +0.000 C 
ATOM      9  C   UNL     1       3.496   4.210  19.193  0.00  0.00    +0.000 A 
ATOM     10  C   UNL     1       3.761   2.932  19.677  0.00  0.00    +0.000 A 
ATOM     11  C   UNL     1       3.197   2.528  20.891  0.00  0.00    +0.000 A 
ATOM     12  C   UNL     1       2.371   3.396  21.612  0.00  0.00    +0.000 A 
ATOM     13  C   UNL     1       2.103   4.676  21.132  0.00  0.00    +0.000 A 
ATOM     14  C   UNL     1       2.671   5.071  19.927  0.00  0.00    +0.000 A 
ENDBRANCH   1   3
BRANCH   1  15
ATOM     15  C   UNL     1       0.845   9.713  19.288  0.00  0.00    +0.000 A 
ATOM     16  N   UNL     1      -0.187   9.873  18.519  0.00  0.00    +0.000 NA
ATOM     17  C   UNL     1      -1.145  10.793  18.891  0.00  0.00    +0.000 A 
ATOM     18  C   UNL     1      -1.008  11.545  19.998  0.00  0.00    +0.000 A 
ATOM     19  C   UNL     1       0.150  11.359  20.863  0.00  0.00    +0.000 A 
ATOM     20  O   UNL     1       0.250  11.939  21.938  0.00  0.00    +0.000 OA
ATOM     21  N   UNL     1       1.065  10.477  20.398  0.00  0.00    +0.000 N 
ATOM     22  H   UNL     1       1.793  10.215  21.059  0.00  0.00    +0.000 HD
BRANCH  17  23
ATOM     23  N   UNL     1      -2.298  10.984  18.125  0.00  0.00    +0.000 N 
ATOM     24  C   UNL     1      -3.440  11.763  18.643  0.00  0.00    +0.000 C 
ATOM     25  C   UNL     1      -4.727  11.297  17.937  0.00  0.00    +0.000 C 
ATOM     26  O   UNL     1      -4.629  11.408  16.505  0.00  0.00    +0.000 OA
ATOM     27  C   UNL     1      -3.517  10.635  16.020  0.00  0.00    +0.000 C 
ATOM     28  C   UNL     1      -2.204  11.106  16.651  0.00  0.00    +0.000 C 
ENDBRANCH  17  23
ENDBRANCH   1  15
TORSDOF 3
ENDMDL
MODEL 7
REMARK VINA RESULT:      -8.2      2.897      5.472
REMARK  Name = 
REMARK  3 active torsions:
REMARK  status: ('A' for Active; 'I' for Inactive)
REMARK    1  A    between atoms: C_2  and  C_3
REMARK    2  A    between atoms: C_3  and  C_4
REMARK    3  A    between atoms: C_6  and  N_7
REMARK                            x       y       z     vdW  Elec       q    Type
REMARK                         _______ _______ _______ _____ _____    ______ ____
ROOT
ATOM      1  C   UNL     1      -0.118  11.981  19.862  0.00  0.00    +0.000 C 
ENDROOT
BRANCH   1   3
ATOM      2  O   UNL     1      -2.083  12.731  20.984  0.00  0.00    +0.000 OA
ATOM      3  C   UNL     1      -1.613  12.232  19.958  0.00  0.00    +0.000 C 
ATOM      4  N   UNL     1      -2.385  11.829  18.887  0.00  0.00    +0.000 N 
ATOM      5  C   UNL     1      -1.885  11.207  17.637  0.00  0.00    +0.000 C 
ATOM      6  C   UNL     1      -3.133  10.895  16.825  0.00  0.00    +0.000 C 
ATOM      7  C   UNL     1      -3.112  10.979  15.319  0.00  0.00    +0.000 C 
ATOM      8  C   UNL     1      -3.206   9.638  15.992  0.00  0.00    +0.000 C 
ATOM      9  C   UNL     1      -4.281  11.377  17.642  0.00  0.00    +0.000 A 
ATOM     10  C   UNL     1      -5.651  11.349  17.397  0.00  0.00    +0.000 A 
ATOM     11  C   UNL     1      -6.530  11.867  18.352  0.00  0.00    +0.000 A 
ATOM     12  C   UNL     1      -6.040  12.413  19.543  0.00  0.00    +0.000 A 
ATOM     13  C   UNL     1      -4.670  12.444  19.794  0.00  0.00    +0.000 A 
ATOM     14  C   UNL     1      -3.804  11.923  18.840  0.00  0.00    +0.000 A 
ENDBRANCH   1   3
BRANCH   1  15
ATOM     15  C   UNL     1       0.362  10.706  20.536  0.00  0.00    +0.000 A 
ATOM     16  N   UNL     1       0.945   9.782  19.838  0.00  0.00    +0.000 NA
ATOM     17  C   UNL     1       1.396   8.654  20.493  0.00  0.00    +0.000 A 
ATOM     18  C   UNL     1       1.204   8.482  21.813  0.00  0.00    +0.000 A 
ATOM     19  C   UNL     1       0.554   9.525  22.595  0.00  0.00    +0.000 A 
ATOM     20  O   UNL     1       0.469   9.457  23.815  0.00  0.00    +0.000 OA
ATOM     21  N   UNL     1       0.097  10.572  21.868  0.00  0.00    +0.000 N 
ATOM     22  H   UNL     1      -0.211  11.377  22.408  0.00  0.00    +0.000 HD
BRANCH  17  23
ATOM     23  N   UNL     1       2.066   7.639  19.804  0.00  0.00    +0.000 N 
ATOM     24  C   UNL     1       1.969   6.230  20.233  0.00  0.00    +0.000 C 
ATOM     25  C   UNL     1       3.223   5.473  19.759  0.00  0.00    +0.000 C 
ATOM     26  O   UNL     1       3.407   5.571  18.334  0.00  0.00    +0.000 OA
ATOM     27  C   UNL     1       3.509   6.950  17.938  0.00  0.00    +0.000 C 
ATOM     28  C   UNL     1       2.253   7.730  18.337  0.00  0.00    +0.000 C 
ENDBRANCH  17  23
ENDBRANCH   1  15
TORSDOF 3
ENDMDL
MODEL 8
REMARK VINA RESULT:      -8.1      1.602      3.058
REMARK  Name = 
REMARK  3 active torsions:
REMARK  status: ('A' for Active; 'I' for Inactive)
REMARK    1  A    between atoms: C_2  and  C_3
REMARK    2  A    between atoms: C_3  and  C_4
REMARK    3  A    between atoms: C_6  and  N_7
REMARK                            x       y       z     vdW  Elec       q    Type
REMARK                         _______ _______ _______ _____ _____    ______ ____
ROOT
ATOM      1  C   UNL     1       2.133   8.737  18.039  0.00  0.00    +0.000 C 
ENDROOT
BRANCH   1   3
ATOM      2  O   UNL     1       1.914   8.030  20.305  0.00  0.00    +0.000 OA
ATOM      3  C   UNL     1       1.610   8.875  19.459  0.00  0.00    +0.000 C 
ATOM      4  N   UNL     1       0.763   9.935  19.714  0.00  0.00    +0.000 N 
ATOM      5  C   UNL     1       0.345  10.971  18.738  0.00  0.00    +0.000 C 
ATOM      6  C   UNL     1      -0.634  11.854  19.496  0.00  0.00    +0.000 C 
ATOM      7  C   UNL     1      -0.713  13.335  19.215  0.00  0.00    +0.000 C 
ATOM      8  C   UNL     1      -1.840  12.432  18.795  0.00  0.00    +0.000 C 
ATOM      9  C   UNL     1      -0.707  11.292  20.874  0.00  0.00    +0.000 A 
ATOM     10  C   UNL     1      -1.443  11.693  21.985  0.00  0.00    +0.000 A 
ATOM     11  C   UNL     1      -1.335  10.971  23.177  0.00  0.00    +0.000 A 
ATOM     12  C   UNL     1      -0.494   9.856  23.255  0.00  0.00    +0.000 A 
ATOM     13  C   UNL     1       0.245   9.450  22.146  0.00  0.00    +0.000 A 
ATOM     14  C   UNL     1       0.129  10.172  20.965  0.00  0.00    +0.000 A 
ENDBRANCH   1   3
BRANCH   1  15
ATOM     15  C   UNL     1       2.948   7.483  17.776  0.00  0.00    +0.000 A 
ATOM     16  N   UNL     1       2.527   6.332  18.201  0.00  0.00    +0.000 NA
ATOM     17  C   UNL     1       3.281   5.213  17.913  0.00  0.00    +0.000 A 
ATOM     18  C   UNL     1       4.446   5.300  17.246  0.00  0.00    +0.000 A 
ATOM     19  C   UNL     1       4.913   6.594  16.765  0.00  0.00    +0.000 A 
ATOM     20  O   UNL     1       5.905   6.697  16.054  0.00  0.00    +0.000 OA
ATOM     21  N   UNL     1       4.143   7.644  17.136  0.00  0.00    +0.000 N 
ATOM     22  H   UNL     1       4.360   8.526  16.678  0.00  0.00    +0.000 HD
BRANCH  17  23
ATOM     23  N   UNL     1       2.862   3.939  18.309  0.00  0.00    +0.000 N 
ATOM     24  C   UNL     1       3.831   2.925  18.767  0.00  0.00    +0.000 C 
ATOM     25  C   UNL     1       3.240   1.522  18.525  0.00  0.00    +0.000 C 
ATOM     26  O   UNL     1       1.965   1.354  19.173  0.00  0.00    +0.000 OA
ATOM     27  C   UNL     1       1.035   2.346  18.707  0.00  0.00    +0.000 C 
ATOM     28  C   UNL     1       1.554   3.760  18.982  0.00  0.00    +0.000 C 
ENDBRANCH  17  23
ENDBRANCH   1  15
TORSDOF 3
ENDMDL
MODEL 9
REMARK VINA RESULT:      -8.0      2.281      8.628
REMARK  Name = 
REMARK  3 active torsions:
REMARK  status: ('A' for Active; 'I' for Inactive)
REMARK    1  A    between atoms: C_2  and  C_3
REMARK    2  A    between atoms: C_3  and  C_4
REMARK    3  A    between atoms: C_6  and  N_7
REMARK                            x       y       z     vdW  Elec       q    Type
REMARK                         _______ _______ _______ _____ _____    ______ ____
ROOT
ATOM      1  C   UNL     1       2.468   7.860  19.896  0.00  0.00    +0.000 C 
ENDROOT
BRANCH   1   3
ATOM      2  O   UNL     1       1.271   5.932  20.625  0.00  0.00    +0.000 OA
ATOM      3  C   UNL     1       2.138   6.377  19.869  0.00  0.00    +0.000 C 
ATOM      4  N   UNL     1       2.882   5.586  19.018  0.00  0.00    +0.000 N 
ATOM      5  C   UNL     1       3.949   6.055  18.101  0.00  0.00    +0.000 C 
ATOM      6  C   UNL     1       4.492   4.793  17.448  0.00  0.00    +0.000 C 
ATOM      7  C   UNL     1       4.983   4.813  16.022  0.00  0.00    +0.000 C 
ATOM      8  C   UNL     1       5.967   4.663  17.149  0.00  0.00    +0.000 C 
ATOM      9  C   UNL     1       3.691   3.668  18.008  0.00  0.00    +0.000 A 
ATOM     10  C   UNL     1       3.753   2.298  17.771  0.00  0.00    +0.000 A 
ATOM     11  C   UNL     1       2.877   1.445  18.449  0.00  0.00    +0.000 A 
ATOM     12  C   UNL     1       1.944   1.961  19.354  0.00  0.00    +0.000 A 
ATOM     13  C   UNL     1       1.877   3.332  19.594  0.00  0.00    +0.000 A 
ATOM     14  C   UNL     1       2.754   4.172  18.919  0.00  0.00    +0.000 A 
ENDBRANCH   1   3
BRANCH   1  15
ATOM     15  C   UNL     1       1.358   8.753  20.422  0.00  0.00    +0.000 A 
ATOM     16  N   UNL     1       0.499   9.275  19.603  0.00  0.00    +0.000 NA
ATOM     17  C   UNL     1      -0.513  10.055  20.125  0.00  0.00    +0.000 A 
ATOM     18  C   UNL     1      -0.596  10.312  21.443  0.00  0.00    +0.000 A 
ATOM     19  C   UNL     1       0.367   9.719  22.361  0.00  0.00    +0.000 A 
ATOM     20  O   UNL     1       0.254   9.834  23.575  0.00  0.00    +0.000 OA
ATOM     21  N   UNL     1       1.356   9.014  21.763  0.00  0.00    +0.000 N 
ATOM     22  H   UNL     1       1.939   8.463  22.388  0.00  0.00    +0.000 HD
BRANCH  17  23
ATOM     23  N   UNL     1      -1.492  10.614  19.299  0.00  0.00    +0.000 N 
ATOM     24  C   UNL     1      -2.050  11.952  19.573  0.00  0.00    +0.000 C 
ATOM     25  C   UNL     1      -3.461  12.042  18.962  0.00  0.00    +0.000 C 
ATOM     26  O   UNL     1      -3.458  11.759  17.551  0.00  0.00    +0.000 OA
ATOM     27  C   UNL     1      -2.920  10.449  17.306  0.00  0.00    +0.000 C 
ATOM     28  C   UNL     1      -1.491  10.332  17.844  0.00  0.00    +0.000 C 
ENDBRANCH  17  23
ENDBRANCH   1  15
TORSDOF 3
ENDMDL
