MODEL 1
REMARK VINA RESULT:      -7.2      0.000      0.000
REMARK  Name = 
REMARK  8 active torsions:
REMARK  status: ('A' for Active; 'I' for Inactive)
REMARK    1  A    between atoms: C_1  and  C_2
REMARK    2  A    between atoms: C_2  and  C_3
REMARK    3  A    between atoms: C_3  and  C_4
REMARK    4  A    between atoms: C_4  and  N_5
REMARK    5  A    between atoms: C_6  and  N_8
REMARK    6  A    between atoms: S_9  and  N_10
REMARK    7  A    between atoms: S_9  and  C_12
REMARK    8  A    between atoms: C_15  and  C_16
REMARK                            x       y       z     vdW  Elec       q    Type
REMARK                         _______ _______ _______ _____ _____    ______ ____
ROOT
ATOM      1  N   UNL     1       5.642   3.789  16.340  0.00  0.00    +0.000 NA
ATOM      2  S   UNL     1       5.602   4.735  17.542  0.00  0.00    +0.000 S 
ATOM      3  O   UNL     1       5.577   6.177  17.520  0.00  0.00    +0.000 OA
ENDROOT
BRANCH   2   4
ATOM      4  C   UNL     1       4.358   4.183  18.680  0.00  0.00    +0.000 A 
ATOM      5  C   UNL     1       3.171   4.915  18.792  0.00  0.00    +0.000 A 
ATOM      6  C   UNL     1       2.183   4.503  19.687  0.00  0.00    +0.000 A 
ATOM      7  C   UNL     1       2.373   3.360  20.473  0.00  0.00    +0.000 A 
ATOM      8  C   UNL     1       1.321   2.912  21.446  0.00  0.00    +0.000 C 
ATOM      9  C   UNL     1       3.565   2.630  20.346  0.00  0.00    +0.000 A 
ATOM     10  C   UNL     1       4.560   3.038  19.451  0.00  0.00    +0.000 A 
ENDBRANCH   2   4
BRANCH   1  12
ATOM     11  N   UNL     1       5.913   3.670  14.062  0.00  0.00    +0.000 N 
ATOM     12  C   UNL     1       6.403   4.144  15.238  0.00  0.00    +0.000 C 
ATOM     13  O   UNL     1       7.468   4.745  15.316  0.00  0.00    +0.000 OA
ATOM     14  H   UNL     1       5.123   3.053  14.157  0.00  0.00    +0.000 HD
BRANCH  11  15
ATOM     15  C   UNL     1       6.618   3.805  12.807  0.00  0.00    +0.000 C 
BRANCH  15  16
ATOM     16  C   UNL     1       5.884   3.153  11.633  0.00  0.00    +0.000 C 
BRANCH  16  18
ATOM     17  C   UNL     1       3.678   3.612  10.492  0.00  0.00    +0.000 C 
ATOM     18  C   UNL     1       4.363   3.216  11.790  0.00  0.00    +0.000 C 
ENDBRANCH  16  18
ENDBRANCH  15  16
ENDBRANCH  11  15
ENDBRANCH   1  12
BRANCH   2  19
ATOM     19  N   UNL     1       7.084   4.369  18.247  0.00  0.00    +0.000 NA
ATOM     20  H   UNL     1       7.030   3.362  18.380  0.00  0.00    +0.000 HD
ATOM     21  H   UNL     1       7.005   4.755  19.181  0.00  0.00    +0.000 HD
ENDBRANCH   2  19
TORSDOF 6
ENDMDL
MODEL 2
REMARK VINA RESULT:      -7.1      1.356      1.902
REMARK  Name = 
REMARK  8 active torsions:
REMARK  status: ('A' for Active; 'I' for Inactive)
REMARK    1  A    between atoms: C_1  and  C_2
REMARK    2  A    between atoms: C_2  and  C_3
REMARK    3  A    between atoms: C_3  and  C_4
REMARK    4  A    between atoms: C_4  and  N_5
REMARK    5  A    between atoms: C_6  and  N_8
REMARK    6  A    between atoms: S_9  and  N_10
REMARK    7  A    between atoms: S_9  and  C_12
REMARK    8  A    between atoms: C_15  and  C_16
REMARK                            x       y       z     vdW  Elec       q    Type
REMARK                         _______ _______ _______ _____ _____    ______ ____
ROOT
ATOM      1  N   UNL     1       5.971   4.502  15.622  0.00  0.00    +0.000 NA
ATOM      2  S   UNL     1       5.517   5.834  16.222  0.00  0.00    +0.000 S 
ATOM      3  O   UNL     1       4.929   6.953  15.525  0.00  0.00    +0.000 OA
ENDROOT
BRANCH   2   4
ATOM      4  C   UNL     1       4.546   5.522  17.673  0.00  0.00    +0.000 A 
ATOM      5  C   UNL     1       4.780   4.352  18.405  0.00  0.00    +0.000 A 
ATOM      6  C   UNL     1       4.022   4.082  19.545  0.00  0.00    +0.000 A 
ATOM      7  C   UNL     1       3.029   4.977  19.961  0.00  0.00    +0.000 A 
ATOM      8  C   UNL     1       2.200   4.693  21.181  0.00  0.00    +0.000 C 
ATOM      9  C   UNL     1       2.809   6.151  19.223  0.00  0.00    +0.000 A 
ATOM     10  C   UNL     1       3.565   6.426  18.079  0.00  0.00    +0.000 A 
ENDBRANCH   2   4
BRANCH   1  12
ATOM     11  N   UNL     1       6.036   3.606  13.508  0.00  0.00    +0.000 N 
ATOM     12  C   UNL     1       6.574   4.505  14.375  0.00  0.00    +0.000 C 
ATOM     13  O   UNL     1       7.559   5.180  14.100  0.00  0.00    +0.000 OA
ATOM     14  H   UNL     1       5.341   2.999  13.913  0.00  0.00    +0.000 HD
BRANCH  11  15
ATOM     15  C   UNL     1       6.597   3.344  12.202  0.00  0.00    +0.000 C 
BRANCH  15  16
ATOM     16  C   UNL     1       5.592   2.717  11.232  0.00  0.00    +0.000 C 
BRANCH  16  18
ATOM     17  C   UNL     1       3.465   3.592  10.189  0.00  0.00    +0.000 C 
ATOM     18  C   UNL     1       4.162   3.200  11.482  0.00  0.00    +0.000 C 
ENDBRANCH  16  18
ENDBRANCH  15  16
ENDBRANCH  11  15
ENDBRANCH   1  12
BRANCH   2  19
ATOM     19  N   UNL     1       6.995   6.427  16.761  0.00  0.00    +0.000 NA
ATOM     20  H   UNL     1       7.514   6.562  15.896  0.00  0.00    +0.000 HD
ATOM     21  H   UNL     1       7.430   5.622  17.198  0.00  0.00    +0.000 HD
ENDBRANCH   2  19
TORSDOF 6
ENDMDL
MODEL 3
REMARK VINA RESULT:      -7.0      0.450      1.099
REMARK  Name = 
REMARK  8 active torsions:
REMARK  status: ('A' for Active; 'I' for Inactive)
REMARK    1  A    between atoms: C_1  and  C_2
REMARK    2  A    between atoms: C_2  and  C_3
REMARK    3  A    between atoms: C_3  and  C_4
REMARK    4  A    between atoms: C_4  and  N_5
REMARK    5  A    between atoms: C_6  and  N_8
REMARK    6  A    between atoms: S_9  and  N_10
REMARK    7  A    between atoms: S_9  and  C_12
REMARK    8  A    between atoms: C_15  and  C_16
REMARK                            x       y       z     vdW  Elec       q    Type
REMARK                         _______ _______ _______ _____ _____    ______ ____
ROOT
ATOM      1  N   UNL     1       5.746   3.881  16.219  0.00  0.00    +0.000 NA
ATOM      2  S   UNL     1       5.719   4.823  17.424  0.00  0.00    +0.000 S 
ATOM      3  O   UNL     1       5.751   6.265  17.408  0.00  0.00    +0.000 OA
ENDROOT
BRANCH   2   4
ATOM      4  C   UNL     1       4.433   4.316  18.535  0.00  0.00    +0.000 A 
ATOM      5  C   UNL     1       4.149   2.951  18.662  0.00  0.00    +0.000 A 
ATOM      6  C   UNL     1       3.134   2.531  19.525  0.00  0.00    +0.000 A 
ATOM      7  C   UNL     1       2.402   3.468  20.263  0.00  0.00    +0.000 A 
ATOM      8  C   UNL     1       1.303   3.028  21.187  0.00  0.00    +0.000 C 
ATOM      9  C   UNL     1       2.702   4.833  20.132  0.00  0.00    +0.000 A 
ATOM     10  C   UNL     1       3.716   5.260  19.269  0.00  0.00    +0.000 A 
ENDBRANCH   2   4
BRANCH   1  12
ATOM     11  N   UNL     1       6.110   3.675  13.960  0.00  0.00    +0.000 N 
ATOM     12  C   UNL     1       6.541   4.210  15.134  0.00  0.00    +0.000 C 
ATOM     13  O   UNL     1       7.587   4.841  15.227  0.00  0.00    +0.000 OA
ATOM     14  H   UNL     1       5.332   3.042  14.050  0.00  0.00    +0.000 HD
BRANCH  11  15
ATOM     15  C   UNL     1       6.861   3.777  12.729  0.00  0.00    +0.000 C 
BRANCH  15  16
ATOM     16  C   UNL     1       6.032   3.433  11.490  0.00  0.00    +0.000 C 
BRANCH  16  18
ATOM     17  C   UNL     1       3.621   3.674  10.778  0.00  0.00    +0.000 C 
ATOM     18  C   UNL     1       4.572   3.128  11.832  0.00  0.00    +0.000 C 
ENDBRANCH  16  18
ENDBRANCH  15  16
ENDBRANCH  11  15
ENDBRANCH   1  12
BRANCH   2  19
ATOM     19  N   UNL     1       7.172   4.396  18.156  0.00  0.00    +0.000 NA
ATOM     20  H   UNL     1       7.392   3.504  17.720  0.00  0.00    +0.000 HD
ATOM     21  H   UNL     1       6.901   4.159  19.103  0.00  0.00    +0.000 HD
ENDBRANCH   2  19
TORSDOF 6
ENDMDL
MODEL 4
REMARK VINA RESULT:      -7.0      1.487      1.683
REMARK  Name = 
REMARK  8 active torsions:
REMARK  status: ('A' for Active; 'I' for Inactive)
REMARK    1  A    between atoms: C_1  and  C_2
REMARK    2  A    between atoms: C_2  and  C_3
REMARK    3  A    between atoms: C_3  and  C_4
REMARK    4  A    between atoms: C_4  and  N_5
REMARK    5  A    between atoms: C_6  and  N_8
REMARK    6  A    between atoms: S_9  and  N_10
REMARK    7  A    between atoms: S_9  and  C_12
REMARK    8  A    between atoms: C_15  and  C_16
REMARK                            x       y       z     vdW  Elec       q    Type
REMARK                         _______ _______ _______ _____ _____    ______ ____
ROOT
ATOM      1  N   UNL     1       5.917   4.601  15.567  0.00  0.00    +0.000 NA
ATOM      2  S   UNL     1       5.487   5.953  16.141  0.00  0.00    +0.000 S 
ATOM      3  O   UNL     1       4.944   7.077  15.419  0.00  0.00    +0.000 OA
ENDROOT
BRANCH   2   4
ATOM      4  C   UNL     1       4.480   5.685  17.576  0.00  0.00    +0.000 A 
ATOM      5  C   UNL     1       3.501   6.631  17.901  0.00  0.00    +0.000 A 
ATOM      6  C   UNL     1       2.703   6.444  19.031  0.00  0.00    +0.000 A 
ATOM      7  C   UNL     1       2.877   5.315  19.840  0.00  0.00    +0.000 A 
ATOM      8  C   UNL     1       2.030   5.108  21.063  0.00  0.00    +0.000 C 
ATOM      9  C   UNL     1       3.858   4.370  19.500  0.00  0.00    +0.000 A 
ATOM     10  C   UNL     1       4.661   4.552  18.369  0.00  0.00    +0.000 A 
ENDBRANCH   2   4
BRANCH   1  12
ATOM     11  N   UNL     1       5.966   3.716  13.448  0.00  0.00    +0.000 N 
ATOM     12  C   UNL     1       6.545   4.571  14.333  0.00  0.00    +0.000 C 
ATOM     13  O   UNL     1       7.578   5.180  14.083  0.00  0.00    +0.000 OA
ATOM     14  H   UNL     1       5.223   3.155  13.834  0.00  0.00    +0.000 HD
BRANCH  11  15
ATOM     15  C   UNL     1       6.534   3.425  12.151  0.00  0.00    +0.000 C 
BRANCH  15  16
ATOM     16  C   UNL     1       5.586   2.640  11.242  0.00  0.00    +0.000 C 
BRANCH  16  18
ATOM     17  C   UNL     1       3.566   3.783  10.247  0.00  0.00    +0.000 C 
ATOM     18  C   UNL     1       4.122   3.034  11.448  0.00  0.00    +0.000 C 
ENDBRANCH  16  18
ENDBRANCH  15  16
ENDBRANCH  11  15
ENDBRANCH   1  12
BRANCH   2  19
ATOM     19  N   UNL     1       6.970   6.513  16.702  0.00  0.00    +0.000 NA
ATOM     20  H   UNL     1       6.937   7.505  16.479  0.00  0.00    +0.000 HD
ATOM     21  H   UNL     1       7.636   6.124  16.043  0.00  0.00    +0.000 HD
ENDBRANCH   2  19
TORSDOF 6
ENDMDL
MODEL 5
REMARK VINA RESULT:      -6.9      4.051      5.621
REMARK  Name = 
REMARK  8 active torsions:
REMARK  status: ('A' for Active; 'I' for Inactive)
REMARK    1  A    between atoms: C_1  and  C_2
REMARK    2  A    between atoms: C_2  and  C_3
REMARK    3  A    between atoms: C_3  and  C_4
REMARK    4  A    between atoms: C_4  and  N_5
REMARK    5  A    between atoms: C_6  and  N_8
REMARK    6  A    between atoms: S_9  and  N_10
REMARK    7  A    between atoms: S_9  and  C_12
REMARK    8  A    between atoms: C_15  and  C_16
REMARK                            x       y       z     vdW  Elec       q    Type
REMARK                         _______ _______ _______ _____ _____    ______ ____
ROOT
ATOM      1  N   UNL     1       6.062   6.365  17.709  0.00  0.00    +0.000 NA
ATOM      2  S   UNL     1       6.276   5.303  18.789  0.00  0.00    +0.000 S 
ATOM      3  O   UNL     1       7.141   5.388  19.941  0.00  0.00    +0.000 OA
ENDROOT
BRANCH   2   4
ATOM      4  C   UNL     1       4.701   4.695  19.331  0.00  0.00    +0.000 A 
ATOM      5  C   UNL     1       4.532   3.316  19.507  0.00  0.00    +0.000 A 
ATOM      6  C   UNL     1       3.298   2.816  19.925  0.00  0.00    +0.000 A 
ATOM      7  C   UNL     1       2.229   3.686  20.171  0.00  0.00    +0.000 A 
ATOM      8  C   UNL     1       0.894   3.158  20.612  0.00  0.00    +0.000 C 
ATOM      9  C   UNL     1       2.413   5.066  19.998  0.00  0.00    +0.000 A 
ATOM     10  C   UNL     1       3.647   5.574  19.578  0.00  0.00    +0.000 A 
ENDBRANCH   2   4
BRANCH   1  12
ATOM     11  N   UNL     1       7.278   8.300  17.936  0.00  0.00    +0.000 N 
ATOM     12  C   UNL     1       7.149   7.113  17.286  0.00  0.00    +0.000 C 
ATOM     13  O   UNL     1       7.873   6.789  16.352  0.00  0.00    +0.000 OA
ATOM     14  H   UNL     1       6.521   8.517  18.565  0.00  0.00    +0.000 HD
BRANCH  11  15
ATOM     15  C   UNL     1       8.257   9.296  17.563  0.00  0.00    +0.000 C 
BRANCH  15  16
ATOM     16  C   UNL     1       8.979   9.908  18.766  0.00  0.00    +0.000 C 
BRANCH  16  18
ATOM     17  C   UNL     1      10.681  11.557  17.893  0.00  0.00    +0.000 C 
ATOM     18  C   UNL     1       9.321  11.384  18.551  0.00  0.00    +0.000 C 
ENDBRANCH  16  18
ENDBRANCH  15  16
ENDBRANCH  11  15
ENDBRANCH   1  12
BRANCH   2  19
ATOM     19  N   UNL     1       6.961   4.080  17.860  0.00  0.00    +0.000 NA
ATOM     20  H   UNL     1       7.665   3.690  18.483  0.00  0.00    +0.000 HD
ATOM     21  H   UNL     1       7.491   4.583  17.158  0.00  0.00    +0.000 HD
ENDBRANCH   2  19
TORSDOF 6
ENDMDL
MODEL 6
REMARK VINA RESULT:      -6.8      0.940      1.084
REMARK  Name = 
REMARK  8 active torsions:
REMARK  status: ('A' for Active; 'I' for Inactive)
REMARK    1  A    between atoms: C_1  and  C_2
REMARK    2  A    between atoms: C_2  and  C_3
REMARK    3  A    between atoms: C_3  and  C_4
REMARK    4  A    between atoms: C_4  and  N_5
REMARK    5  A    between atoms: C_6  and  N_8
REMARK    6  A    between atoms: S_9  and  N_10
REMARK    7  A    between atoms: S_9  and  C_12
REMARK    8  A    between atoms: C_15  and  C_16
REMARK                            x       y       z     vdW  Elec       q    Type
REMARK                         _______ _______ _______ _____ _____    ______ ____
ROOT
ATOM      1  N   UNL     1       4.921   4.559  16.340  0.00  0.00    +0.000 NA
ATOM      2  S   UNL     1       5.355   4.970  17.748  0.00  0.00    +0.000 S 
ATOM      3  O   UNL     1       5.750   6.285  18.192  0.00  0.00    +0.000 OA
ENDROOT
BRANCH   2   4
ATOM      4  C   UNL     1       4.205   4.316  18.929  0.00  0.00    +0.000 A 
ATOM      5  C   UNL     1       3.236   5.167  19.473  0.00  0.00    +0.000 A 
ATOM      6  C   UNL     1       2.327   4.674  20.411  0.00  0.00    +0.000 A 
ATOM      7  C   UNL     1       2.379   3.333  20.809  0.00  0.00    +0.000 A 
ATOM      8  C   UNL     1       1.412   2.795  21.824  0.00  0.00    +0.000 C 
ATOM      9  C   UNL     1       3.351   2.488  20.251  0.00  0.00    +0.000 A 
ATOM     10  C   UNL     1       4.266   2.976  19.311  0.00  0.00    +0.000 A 
ENDBRANCH   2   4
BRANCH   1  12
ATOM     11  N   UNL     1       6.393   4.268  14.601  0.00  0.00    +0.000 N 
ATOM     12  C   UNL     1       5.564   5.126  15.252  0.00  0.00    +0.000 C 
ATOM     13  O   UNL     1       5.475   6.311  14.955  0.00  0.00    +0.000 OA
ATOM     14  H   UNL     1       6.500   3.371  15.047  0.00  0.00    +0.000 HD
BRANCH  11  15
ATOM     15  C   UNL     1       7.264   4.683  13.525  0.00  0.00    +0.000 C 
BRANCH  15  16
ATOM     16  C   UNL     1       6.768   4.240  12.146  0.00  0.00    +0.000 C 
BRANCH  16  18
ATOM     17  C   UNL     1       4.520   3.268  11.532  0.00  0.00    +0.000 C 
ATOM     18  C   UNL     1       5.852   3.018  12.222  0.00  0.00    +0.000 C 
ENDBRANCH  16  18
ENDBRANCH  15  16
ENDBRANCH  11  15
ENDBRANCH   1  12
BRANCH   2  19
ATOM     19  N   UNL     1       6.758   4.056  17.897  0.00  0.00    +0.000 NA
ATOM     20  H   UNL     1       6.604   3.296  17.238  0.00  0.00    +0.000 HD
ATOM     21  H   UNL     1       6.666   3.626  18.810  0.00  0.00    +0.000 HD
ENDBRANCH   2  19
TORSDOF 6
ENDMDL
MODEL 7
REMARK VINA RESULT:      -6.8      1.204      1.803
REMARK  Name = 
REMARK  8 active torsions:
REMARK  status: ('A' for Active; 'I' for Inactive)
REMARK    1  A    between atoms: C_1  and  C_2
REMARK    2  A    between atoms: C_2  and  C_3
REMARK    3  A    between atoms: C_3  and  C_4
REMARK    4  A    between atoms: C_4  and  N_5
REMARK    5  A    between atoms: C_6  and  N_8
REMARK    6  A    between atoms: S_9  and  N_10
REMARK    7  A    between atoms: S_9  and  C_12
REMARK    8  A    between atoms: C_15  and  C_16
REMARK                            x       y       z     vdW  Elec       q    Type
REMARK                         _______ _______ _______ _____ _____    ______ ____
ROOT
ATOM      1  N   UNL     1       5.656   4.164  15.559  0.00  0.00    +0.000 NA
ATOM      2  S   UNL     1       5.749   5.002  16.836  0.00  0.00    +0.000 S 
ATOM      3  O   UNL     1       5.984   6.422  16.936  0.00  0.00    +0.000 OA
ENDROOT
BRANCH   2   4
ATOM      4  C   UNL     1       4.392   4.595  17.903  0.00  0.00    +0.000 A 
ATOM      5  C   UNL     1       4.594   3.665  18.929  0.00  0.00    +0.000 A 
ATOM      6  C   UNL     1       3.536   3.324  19.775  0.00  0.00    +0.000 A 
ATOM      7  C   UNL     1       2.276   3.908  19.601  0.00  0.00    +0.000 A 
ATOM      8  C   UNL     1       1.129   3.542  20.499  0.00  0.00    +0.000 C 
ATOM      9  C   UNL     1       2.089   4.845  18.572  0.00  0.00    +0.000 A 
ATOM     10  C   UNL     1       3.144   5.190  17.721  0.00  0.00    +0.000 A 
ENDBRANCH   2   4
BRANCH   1  12
ATOM     11  N   UNL     1       6.154   3.856  13.338  0.00  0.00    +0.000 N 
ATOM     12  C   UNL     1       6.503   4.463  14.504  0.00  0.00    +0.000 C 
ATOM     13  O   UNL     1       7.523   5.130  14.622  0.00  0.00    +0.000 OA
ATOM     14  H   UNL     1       5.391   3.204  13.418  0.00  0.00    +0.000 HD
BRANCH  11  15
ATOM     15  C   UNL     1       6.971   3.918  12.147  0.00  0.00    +0.000 C 
BRANCH  15  16
ATOM     16  C   UNL     1       7.141   2.559  11.463  0.00  0.00    +0.000 C 
BRANCH  16  18
ATOM     17  C   UNL     1       6.090   0.281  11.176  0.00  0.00    +0.000 C 
ATOM     18  C   UNL     1       5.837   1.759  11.426  0.00  0.00    +0.000 C 
ENDBRANCH  16  18
ENDBRANCH  15  16
ENDBRANCH  11  15
ENDBRANCH   1  12
BRANCH   2  19
ATOM     19  N   UNL     1       7.119   4.317  17.531  0.00  0.00    +0.000 NA
ATOM     20  H   UNL     1       7.736   5.117  17.652  0.00  0.00    +0.000 HD
ATOM     21  H   UNL     1       7.531   3.788  16.772  0.00  0.00    +0.000 HD
ENDBRANCH   2  19
TORSDOF 6
ENDMDL
MODEL 8
REMARK VINA RESULT:      -6.8      0.906      1.079
REMARK  Name = 
REMARK  8 active torsions:
REMARK  status: ('A' for Active; 'I' for Inactive)
REMARK    1  A    between atoms: C_1  and  C_2
REMARK    2  A    between atoms: C_2  and  C_3
REMARK    3  A    between atoms: C_3  and  C_4
REMARK    4  A    between atoms: C_4  and  N_5
REMARK    5  A    between atoms: C_6  and  N_8
REMARK    6  A    between atoms: S_9  and  N_10
REMARK    7  A    between atoms: S_9  and  C_12
REMARK    8  A    between atoms: C_15  and  C_16
REMARK                            x       y       z     vdW  Elec       q    Type
REMARK                         _______ _______ _______ _____ _____    ______ ____
ROOT
ATOM      1  N   UNL     1       5.724   4.031  16.310  0.00  0.00    +0.000 NA
ATOM      2  S   UNL     1       5.727   4.845  17.606  0.00  0.00    +0.000 S 
ATOM      3  O   UNL     1       5.796   6.280  17.738  0.00  0.00    +0.000 OA
ENDROOT
BRANCH   2   4
ATOM      4  C   UNL     1       4.433   4.259  18.668  0.00  0.00    +0.000 A 
ATOM      5  C   UNL     1       3.766   5.174  19.490  0.00  0.00    +0.000 A 
ATOM      6  C   UNL     1       2.751   4.733  20.340  0.00  0.00    +0.000 A 
ATOM      7  C   UNL     1       2.395   3.379  20.373  0.00  0.00    +0.000 A 
ATOM      8  C   UNL     1       1.311   2.891  21.290  0.00  0.00    +0.000 C 
ATOM      9  C   UNL     1       3.067   2.472  19.539  0.00  0.00    +0.000 A 
ATOM     10  C   UNL     1       4.087   2.908  18.685  0.00  0.00    +0.000 A 
ENDBRANCH   2   4
BRANCH   1  12
ATOM     11  N   UNL     1       5.983   4.206  14.035  0.00  0.00    +0.000 N 
ATOM     12  C   UNL     1       6.523   4.450  15.259  0.00  0.00    +0.000 C 
ATOM     13  O   UNL     1       7.650   4.908  15.405  0.00  0.00    +0.000 OA
ATOM     14  H   UNL     1       5.127   3.676  14.053  0.00  0.00    +0.000 HD
BRANCH  11  15
ATOM     15  C   UNL     1       6.702   4.436  12.802  0.00  0.00    +0.000 C 
BRANCH  15  16
ATOM     16  C   UNL     1       6.977   3.151  12.018  0.00  0.00    +0.000 C 
BRANCH  16  18
ATOM     17  C   UNL     1       5.995   1.011  11.104  0.00  0.00    +0.000 C 
ATOM     18  C   UNL     1       5.695   2.377  11.700  0.00  0.00    +0.000 C 
ENDBRANCH  16  18
ENDBRANCH  15  16
ENDBRANCH  11  15
ENDBRANCH   1  12
BRANCH   2  19
ATOM     19  N   UNL     1       7.171   4.309  18.280  0.00  0.00    +0.000 NA
ATOM     20  H   UNL     1       7.853   4.964  17.905  0.00  0.00    +0.000 HD
ATOM     21  H   UNL     1       7.354   3.440  17.791  0.00  0.00    +0.000 HD
ENDBRANCH   2  19
TORSDOF 6
ENDMDL
MODEL 9
REMARK VINA RESULT:      -6.7      0.814      1.663
REMARK  Name = 
REMARK  8 active torsions:
REMARK  status: ('A' for Active; 'I' for Inactive)
REMARK    1  A    between atoms: C_1  and  C_2
REMARK    2  A    between atoms: C_2  and  C_3
REMARK    3  A    between atoms: C_3  and  C_4
REMARK    4  A    between atoms: C_4  and  N_5
REMARK    5  A    between atoms: C_6  and  N_8
REMARK    6  A    between atoms: S_9  and  N_10
REMARK    7  A    between atoms: S_9  and  C_12
REMARK    8  A    between atoms: C_15  and  C_16
REMARK                            x       y       z     vdW  Elec       q    Type
REMARK                         _______ _______ _______ _____ _____    ______ ____
ROOT
ATOM      1  N   UNL     1       5.441   3.989  16.378  0.00  0.00    +0.000 NA
ATOM      2  S   UNL     1       5.554   4.817  17.660  0.00  0.00    +0.000 S 
ATOM      3  O   UNL     1       5.636   6.253  17.770  0.00  0.00    +0.000 OA
ENDROOT
BRANCH   2   4
ATOM      4  C   UNL     1       4.352   4.245  18.832  0.00  0.00    +0.000 A 
ATOM      5  C   UNL     1       4.533   2.992  19.429  0.00  0.00    +0.000 A 
ATOM      6  C   UNL     1       3.594   2.519  20.349  0.00  0.00    +0.000 A 
ATOM      7  C   UNL     1       2.475   3.293  20.677  0.00  0.00    +0.000 A 
ATOM      8  C   UNL     1       1.455   2.791  21.658  0.00  0.00    +0.000 C 
ATOM      9  C   UNL     1       2.310   4.551  20.077  0.00  0.00    +0.000 A 
ATOM     10  C   UNL     1       3.246   5.030  19.154  0.00  0.00    +0.000 A 
ENDBRANCH   2   4
BRANCH   1  12
ATOM     11  N   UNL     1       5.936   3.614  14.166  0.00  0.00    +0.000 N 
ATOM     12  C   UNL     1       6.150   4.395  15.259  0.00  0.00    +0.000 C 
ATOM     13  O   UNL     1       6.966   5.309  15.268  0.00  0.00    +0.000 OA
ATOM     14  H   UNL     1       5.371   2.799  14.339  0.00  0.00    +0.000 HD
BRANCH  11  15
ATOM     15  C   UNL     1       6.674   3.772  12.933  0.00  0.00    +0.000 C 
BRANCH  15  16
ATOM     16  C   UNL     1       6.048   3.017  11.758  0.00  0.00    +0.000 C 
BRANCH  16  18
ATOM     17  C   UNL     1       6.255   0.567  11.184  0.00  0.00    +0.000 C 
ATOM     18  C   UNL     1       6.961   1.913  11.222  0.00  0.00    +0.000 C 
ENDBRANCH  16  18
ENDBRANCH  15  16
ENDBRANCH  11  15
ENDBRANCH   1  12
BRANCH   2  19
ATOM     19  N   UNL     1       7.049   4.284  18.216  0.00  0.00    +0.000 NA
ATOM     20  H   UNL     1       7.564   5.152  18.348  0.00  0.00    +0.000 HD
ATOM     21  H   UNL     1       7.469   3.858  17.398  0.00  0.00    +0.000 HD
ENDBRANCH   2  19
TORSDOF 6
ENDMDL
