MODEL 1
REMARK VINA RESULT:      -7.2      0.000      0.000
REMARK  Name = 
REMARK  11 active torsions:
REMARK  status: ('A' for Active; 'I' for Inactive)
REMARK    1  A    between atoms: C_2  and  C_11
REMARK    2  A    between atoms: N_3  and  C_4
REMARK    3  A    between atoms: C_4  and  C_5
REMARK    4  A    between atoms: C_5  and  C_6
REMARK    5  A    between atoms: C_6  and  C_7
REMARK    6  A    between atoms: C_7  and  C_8
REMARK    7  A    between atoms: C_8  and  C_9
REMARK    8  A    between atoms: C_9  and  S_10
REMARK    9  A    between atoms: C_13  and  C_14
REMARK   10  A    between atoms: N_22  and  C_23
REMARK   11  A    between atoms: C_23  and  C_24
REMARK                            x       y       z     vdW  Elec       q    Type
REMARK                         _______ _______ _______ _____ _____    ______ ____
ROOT
ATOM      1  C   UNL     1       3.329   7.333  18.080  0.00  0.00    +0.000 A 
ATOM      2  C   UNL     1       2.654   8.519  17.846  0.00  0.00    +0.000 A 
ATOM      3  C   UNL     1       1.624   8.607  18.810  0.00  0.00    +0.000 A 
ATOM      4  N   UNL     1       1.659   7.544  19.623  0.00  0.00    +0.000 NA
ATOM      5  N   UNL     1       2.715   6.804  19.196  0.00  0.00    +0.000 N 
ENDROOT
BRANCH   3   6
ATOM      6  C   UNL     1       0.619   9.663  18.936  0.00  0.00    +0.000 A 
ATOM      7  C   UNL     1       0.552  10.437  20.107  0.00  0.00    +0.000 A 
ATOM      8  C   UNL     1      -0.452  11.392  20.268  0.00  0.00    +0.000 A 
ATOM      9  C   UNL     1      -1.384  11.585  19.255  0.00  0.00    +0.000 A 
ATOM     10  F   UNL     1      -2.358  12.491  19.417  0.00  0.00    +0.000 F 
ATOM     11  C   UNL     1      -1.324  10.849  18.078  0.00  0.00    +0.000 A 
ATOM     12  C   UNL     1      -0.322   9.889  17.917  0.00  0.00    +0.000 A 
ENDBRANCH   3   6
BRANCH   1  14
ATOM     13  O   UNL     1       4.383   5.892  16.533  0.00  0.00    +0.000 OA
ATOM     14  C   UNL     1       4.462   6.785  17.367  0.00  0.00    +0.000 C 
ATOM     15  N   UNL     1       5.669   7.356  17.724  0.00  0.00    +0.000 N 
ATOM     16  H   UNL     1       5.660   8.201  18.274  0.00  0.00    +0.000 HD
BRANCH  15  17
ATOM     17  C   UNL     1       6.945   6.888  17.226  0.00  0.00    +0.000 C 
BRANCH  17  18
ATOM     18  C   UNL     1       8.118   7.550  17.940  0.00  0.00    +0.000 C 
BRANCH  18  19
ATOM     19  C   UNL     1       8.082   9.070  17.769  0.00  0.00    +0.000 C 
BRANCH  19  20
ATOM     20  C   UNL     1       8.992   9.769  18.781  0.00  0.00    +0.000 C 
BRANCH  20  21
ATOM     21  C   UNL     1       9.146  11.260  18.462  0.00  0.00    +0.000 C 
BRANCH  21  22
ATOM     22  C   UNL     1      10.480  11.536  17.773  0.00  0.00    +0.000 C 
BRANCH  22  23
ATOM     23  S   UNL     1      10.903  13.298  17.877  0.00  0.00    +0.000 S 
ATOM     24  H   UNL     1      11.720  13.326  16.812  0.00  0.00    +0.000 HD
ENDBRANCH  22  23
ENDBRANCH  21  22
ENDBRANCH  20  21
ENDBRANCH  19  20
ENDBRANCH  18  19
ENDBRANCH  17  18
ENDBRANCH  15  17
ENDBRANCH   1  14
BRANCH   5  25
ATOM     25  C   UNL     1       3.132   5.671  20.016  0.00  0.00    +0.000 C 
BRANCH  25  26
ATOM     26  C   UNL     1       2.496   4.361  19.619  0.00  0.00    +0.000 A 
ATOM     27  C   UNL     1       1.197   4.040  20.046  0.00  0.00    +0.000 A 
ATOM     28  C   UNL     1       0.570   2.875  19.597  0.00  0.00    +0.000 A 
ATOM     29  C   UNL     1       1.227   2.016  18.721  0.00  0.00    +0.000 A 
ATOM     30  C   UNL     1       2.526   2.309  18.309  0.00  0.00    +0.000 A 
ATOM     31  C   UNL     1       3.160   3.468  18.760  0.00  0.00    +0.000 A 
ENDBRANCH  25  26
ENDBRANCH   5  25
TORSDOF 11
ENDMDL
MODEL 2
REMARK VINA RESULT:      -7.1      4.228      5.622
REMARK  Name = 
REMARK  11 active torsions:
REMARK  status: ('A' for Active; 'I' for Inactive)
REMARK    1  A    between atoms: C_2  and  C_11
REMARK    2  A    between atoms: N_3  and  C_4
REMARK    3  A    between atoms: C_4  and  C_5
REMARK    4  A    between atoms: C_5  and  C_6
REMARK    5  A    between atoms: C_6  and  C_7
REMARK    6  A    between atoms: C_7  and  C_8
REMARK    7  A    between atoms: C_8  and  C_9
REMARK    8  A    between atoms: C_9  and  S_10
REMARK    9  A    between atoms: C_13  and  C_14
REMARK   10  A    between atoms: N_22  and  C_23
REMARK   11  A    between atoms: C_23  and  C_24
REMARK                            x       y       z     vdW  Elec       q    Type
REMARK                         _______ _______ _______ _____ _____    ______ ____
ROOT
ATOM      1  C   UNL     1       5.069   5.965  17.087  0.00  0.00    +0.000 A 
ATOM      2  C   UNL     1       4.519   7.220  17.286  0.00  0.00    +0.000 A 
ATOM      3  C   UNL     1       3.339   7.041  18.041  0.00  0.00    +0.000 A 
ATOM      4  N   UNL     1       3.162   5.744  18.323  0.00  0.00    +0.000 NA
ATOM      5  N   UNL     1       4.231   5.112  17.775  0.00  0.00    +0.000 N 
ENDROOT
BRANCH   3   6
ATOM      6  C   UNL     1       2.392   8.074  18.461  0.00  0.00    +0.000 A 
ATOM      7  C   UNL     1       2.073   9.133  17.595  0.00  0.00    +0.000 A 
ATOM      8  C   UNL     1       1.233  10.164  18.017  0.00  0.00    +0.000 A 
ATOM      9  C   UNL     1       0.699  10.133  19.300  0.00  0.00    +0.000 A 
ATOM     10  F   UNL     1      -0.094  11.132  19.710  0.00  0.00    +0.000 F 
ATOM     11  C   UNL     1       0.981   9.084  20.166  0.00  0.00    +0.000 A 
ATOM     12  C   UNL     1       1.826   8.054  19.747  0.00  0.00    +0.000 A 
ENDBRANCH   3   6
BRANCH   1  14
ATOM     13  O   UNL     1       7.395   5.610  16.880  0.00  0.00    +0.000 OA
ATOM     14  C   UNL     1       6.279   5.612  16.376  0.00  0.00    +0.000 C 
ATOM     15  N   UNL     1       6.067   5.285  15.050  0.00  0.00    +0.000 N 
ATOM     16  H   UNL     1       5.121   5.127  14.737  0.00  0.00    +0.000 HD
BRANCH  15  17
ATOM     17  C   UNL     1       7.141   5.011  14.121  0.00  0.00    +0.000 C 
BRANCH  17  18
ATOM     18  C   UNL     1       6.624   4.506  12.778  0.00  0.00    +0.000 C 
BRANCH  18  19
ATOM     19  C   UNL     1       5.753   3.260  12.955  0.00  0.00    +0.000 C 
BRANCH  19  20
ATOM     20  C   UNL     1       5.129   2.821  11.629  0.00  0.00    +0.000 C 
BRANCH  20  21
ATOM     21  C   UNL     1       4.318   3.953  10.989  0.00  0.00    +0.000 C 
BRANCH  21  22
ATOM     22  C   UNL     1       3.138   3.398  10.195  0.00  0.00    +0.000 C 
BRANCH  22  23
ATOM     23  S   UNL     1       2.448   4.669   9.098  0.00  0.00    +0.000 S 
ATOM     24  H   UNL     1       3.410   5.584   9.293  0.00  0.00    +0.000 HD
ENDBRANCH  22  23
ENDBRANCH  21  22
ENDBRANCH  20  21
ENDBRANCH  19  20
ENDBRANCH  18  19
ENDBRANCH  17  18
ENDBRANCH  15  17
ENDBRANCH   1  14
BRANCH   5  25
ATOM     25  C   UNL     1       4.425   3.698  18.087  0.00  0.00    +0.000 C 
BRANCH  25  26
ATOM     26  C   UNL     1       3.369   3.123  19.000  0.00  0.00    +0.000 A 
ATOM     27  C   UNL     1       3.562   3.102  20.391  0.00  0.00    +0.000 A 
ATOM     28  C   UNL     1       2.546   2.663  21.242  0.00  0.00    +0.000 A 
ATOM     29  C   UNL     1       1.328   2.238  20.721  0.00  0.00    +0.000 A 
ATOM     30  C   UNL     1       1.130   2.229  19.341  0.00  0.00    +0.000 A 
ATOM     31  C   UNL     1       2.146   2.661  18.486  0.00  0.00    +0.000 A 
ENDBRANCH  25  26
ENDBRANCH   5  25
TORSDOF 11
ENDMDL
MODEL 3
REMARK VINA RESULT:      -7.1      2.886      3.757
REMARK  Name = 
REMARK  11 active torsions:
REMARK  status: ('A' for Active; 'I' for Inactive)
REMARK    1  A    between atoms: C_2  and  C_11
REMARK    2  A    between atoms: N_3  and  C_4
REMARK    3  A    between atoms: C_4  and  C_5
REMARK    4  A    between atoms: C_5  and  C_6
REMARK    5  A    between atoms: C_6  and  C_7
REMARK    6  A    between atoms: C_7  and  C_8
REMARK    7  A    between atoms: C_8  and  C_9
REMARK    8  A    between atoms: C_9  and  S_10
REMARK    9  A    between atoms: C_13  and  C_14
REMARK   10  A    between atoms: N_22  and  C_23
REMARK   11  A    between atoms: C_23  and  C_24
REMARK                            x       y       z     vdW  Elec       q    Type
REMARK                         _______ _______ _______ _____ _____    ______ ____
ROOT
ATOM      1  C   UNL     1       3.263   7.402  18.198  0.00  0.00    +0.000 A 
ATOM      2  C   UNL     1       2.605   8.614  18.074  0.00  0.00    +0.000 A 
ATOM      3  C   UNL     1       1.634   8.665  19.100  0.00  0.00    +0.000 A 
ATOM      4  N   UNL     1       1.690   7.555  19.845  0.00  0.00    +0.000 NA
ATOM      5  N   UNL     1       2.701   6.820  19.315  0.00  0.00    +0.000 N 
ENDROOT
BRANCH   3   6
ATOM      6  C   UNL     1       0.664   9.732  19.347  0.00  0.00    +0.000 A 
ATOM      7  C   UNL     1       0.561  10.312  20.622  0.00  0.00    +0.000 A 
ATOM      8  C   UNL     1      -0.413  11.274  20.886  0.00  0.00    +0.000 A 
ATOM      9  C   UNL     1      -1.280  11.669  19.874  0.00  0.00    +0.000 A 
ATOM     10  F   UNL     1      -2.227  12.581  20.133  0.00  0.00    +0.000 F 
ATOM     11  C   UNL     1      -1.183  11.128  18.598  0.00  0.00    +0.000 A 
ATOM     12  C   UNL     1      -0.210  10.161  18.333  0.00  0.00    +0.000 A 
ENDBRANCH   3   6
BRANCH   1  14
ATOM     13  O   UNL     1       4.197   6.012  16.532  0.00  0.00    +0.000 OA
ATOM     14  C   UNL     1       4.341   6.874  17.390  0.00  0.00    +0.000 C 
ATOM     15  N   UNL     1       5.574   7.427  17.681  0.00  0.00    +0.000 N 
ATOM     16  H   UNL     1       5.608   8.253  18.260  0.00  0.00    +0.000 HD
BRANCH  15  17
ATOM     17  C   UNL     1       6.808   6.971  17.080  0.00  0.00    +0.000 C 
BRANCH  17  18
ATOM     18  C   UNL     1       7.505   5.914  17.930  0.00  0.00    +0.000 C 
BRANCH  18  19
ATOM     19  C   UNL     1       7.269   4.510  17.368  0.00  0.00    +0.000 C 
BRANCH  19  20
ATOM     20  C   UNL     1       7.301   4.507  15.838  0.00  0.00    +0.000 C 
BRANCH  20  21
ATOM     21  C   UNL     1       6.159   3.666  15.256  0.00  0.00    +0.000 C 
BRANCH  21  22
ATOM     22  C   UNL     1       5.618   4.294  13.974  0.00  0.00    +0.000 C 
BRANCH  22  23
ATOM     23  S   UNL     1       6.199   3.381  12.517  0.00  0.00    +0.000 S 
ATOM     24  H   UNL     1       5.263   2.420  12.550  0.00  0.00    +0.000 HD
ENDBRANCH  22  23
ENDBRANCH  21  22
ENDBRANCH  20  21
ENDBRANCH  19  20
ENDBRANCH  18  19
ENDBRANCH  17  18
ENDBRANCH  15  17
ENDBRANCH   1  14
BRANCH   5  25
ATOM     25  C   UNL     1       3.137   5.631  20.041  0.00  0.00    +0.000 C 
BRANCH  25  26
ATOM     26  C   UNL     1       2.833   4.334  19.331  0.00  0.00    +0.000 A 
ATOM     27  C   UNL     1       3.869   3.455  18.974  0.00  0.00    +0.000 A 
ATOM     28  C   UNL     1       3.581   2.211  18.408  0.00  0.00    +0.000 A 
ATOM     29  C   UNL     1       2.261   1.828  18.189  0.00  0.00    +0.000 A 
ATOM     30  C   UNL     1       1.223   2.699  18.515  0.00  0.00    +0.000 A 
ATOM     31  C   UNL     1       1.506   3.947  19.075  0.00  0.00    +0.000 A 
ENDBRANCH  25  26
ENDBRANCH   5  25
TORSDOF 11
ENDMDL
MODEL 4
REMARK VINA RESULT:      -7.1      5.222      9.280
REMARK  Name = 
REMARK  11 active torsions:
REMARK  status: ('A' for Active; 'I' for Inactive)
REMARK    1  A    between atoms: C_2  and  C_11
REMARK    2  A    between atoms: N_3  and  C_4
REMARK    3  A    between atoms: C_4  and  C_5
REMARK    4  A    between atoms: C_5  and  C_6
REMARK    5  A    between atoms: C_6  and  C_7
REMARK    6  A    between atoms: C_7  and  C_8
REMARK    7  A    between atoms: C_8  and  C_9
REMARK    8  A    between atoms: C_9  and  S_10
REMARK    9  A    between atoms: C_13  and  C_14
REMARK   10  A    between atoms: N_22  and  C_23
REMARK   11  A    between atoms: C_23  and  C_24
REMARK                            x       y       z     vdW  Elec       q    Type
REMARK                         _______ _______ _______ _____ _____    ______ ____
ROOT
ATOM      1  C   UNL     1       1.374   8.882  20.563  0.00  0.00    +0.000 A 
ATOM      2  C   UNL     1       2.029   7.683  20.336  0.00  0.00    +0.000 A 
ATOM      3  C   UNL     1       2.222   7.573  18.941  0.00  0.00    +0.000 A 
ATOM      4  N   UNL     1       1.734   8.653  18.320  0.00  0.00    +0.000 NA
ATOM      5  N   UNL     1       1.261   9.451  19.311  0.00  0.00    +0.000 N 
ENDROOT
BRANCH   3   6
ATOM      6  C   UNL     1       2.832   6.457  18.218  0.00  0.00    +0.000 A 
ATOM      7  C   UNL     1       2.226   5.190  18.234  0.00  0.00    +0.000 A 
ATOM      8  C   UNL     1       2.842   4.102  17.612  0.00  0.00    +0.000 A 
ATOM      9  C   UNL     1       4.059   4.281  16.964  0.00  0.00    +0.000 A 
ATOM     10  F   UNL     1       4.657   3.233  16.383  0.00  0.00    +0.000 F 
ATOM     11  C   UNL     1       4.666   5.530  16.915  0.00  0.00    +0.000 A 
ATOM     12  C   UNL     1       4.053   6.618  17.540  0.00  0.00    +0.000 A 
ENDBRANCH   3   6
BRANCH   1  14
ATOM     13  O   UNL     1       1.688   9.606  22.789  0.00  0.00    +0.000 OA
ATOM     14  C   UNL     1       0.952   9.455  21.822  0.00  0.00    +0.000 C 
ATOM     15  N   UNL     1      -0.383   9.812  21.848  0.00  0.00    +0.000 N 
ATOM     16  H   UNL     1      -0.894   9.835  20.978  0.00  0.00    +0.000 HD
BRANCH  15  17
ATOM     17  C   UNL     1      -1.050  10.297  23.037  0.00  0.00    +0.000 C 
BRANCH  17  18
ATOM     18  C   UNL     1      -1.291  11.802  22.987  0.00  0.00    +0.000 C 
BRANCH  18  19
ATOM     19  C   UNL     1      -2.770  12.133  23.199  0.00  0.00    +0.000 C 
BRANCH  19  20
ATOM     20  C   UNL     1      -3.042  13.627  23.017  0.00  0.00    +0.000 C 
BRANCH  20  21
ATOM     21  C   UNL     1      -4.074  13.879  21.913  0.00  0.00    +0.000 C 
BRANCH  21  22
ATOM     22  C   UNL     1      -4.993  12.673  21.739  0.00  0.00    +0.000 C 
BRANCH  22  23
ATOM     23  S   UNL     1      -6.602  13.182  21.070  0.00  0.00    +0.000 S 
ATOM     24  H   UNL     1      -6.610  14.414  21.602  0.00  0.00    +0.000 HD
ENDBRANCH  22  23
ENDBRANCH  21  22
ENDBRANCH  20  21
ENDBRANCH  19  20
ENDBRANCH  18  19
ENDBRANCH  17  18
ENDBRANCH  15  17
ENDBRANCH   1  14
BRANCH   5  25
ATOM     25  C   UNL     1       0.839  10.804  18.959  0.00  0.00    +0.000 C 
BRANCH  25  26
ATOM     26  C   UNL     1      -0.620  10.914  18.591  0.00  0.00    +0.000 A 
ATOM     27  C   UNL     1      -1.194  10.019  17.672  0.00  0.00    +0.000 A 
ATOM     28  C   UNL     1      -2.565  10.056  17.406  0.00  0.00    +0.000 A 
ATOM     29  C   UNL     1      -3.380  10.983  18.049  0.00  0.00    +0.000 A 
ATOM     30  C   UNL     1      -2.822  11.893  18.945  0.00  0.00    +0.000 A 
ATOM     31  C   UNL     1      -1.451  11.864  19.209  0.00  0.00    +0.000 A 
ENDBRANCH  25  26
ENDBRANCH   5  25
TORSDOF 11
ENDMDL
MODEL 5
REMARK VINA RESULT:      -7.0      4.932      8.452
REMARK  Name = 
REMARK  11 active torsions:
REMARK  status: ('A' for Active; 'I' for Inactive)
REMARK    1  A    between atoms: C_2  and  C_11
REMARK    2  A    between atoms: N_3  and  C_4
REMARK    3  A    between atoms: C_4  and  C_5
REMARK    4  A    between atoms: C_5  and  C_6
REMARK    5  A    between atoms: C_6  and  C_7
REMARK    6  A    between atoms: C_7  and  C_8
REMARK    7  A    between atoms: C_8  and  C_9
REMARK    8  A    between atoms: C_9  and  S_10
REMARK    9  A    between atoms: C_13  and  C_14
REMARK   10  A    between atoms: N_22  and  C_23
REMARK   11  A    between atoms: C_23  and  C_24
REMARK                            x       y       z     vdW  Elec       q    Type
REMARK                         _______ _______ _______ _____ _____    ______ ____
ROOT
ATOM      1  C   UNL     1       2.201   8.082  18.833  0.00  0.00    +0.000 A 
ATOM      2  C   UNL     1       3.050   7.974  17.745  0.00  0.00    +0.000 A 
ATOM      3  C   UNL     1       3.785   6.779  17.909  0.00  0.00    +0.000 A 
ATOM      4  N   UNL     1       3.405   6.152  19.029  0.00  0.00    +0.000 NA
ATOM      5  N   UNL     1       2.424   6.928  19.556  0.00  0.00    +0.000 N 
ENDROOT
BRANCH   3   6
ATOM      6  C   UNL     1       4.837   6.260  17.034  0.00  0.00    +0.000 A 
ATOM      7  C   UNL     1       4.568   5.188  16.167  0.00  0.00    +0.000 A 
ATOM      8  C   UNL     1       5.586   4.637  15.387  0.00  0.00    +0.000 A 
ATOM      9  C   UNL     1       6.870   5.162  15.462  0.00  0.00    +0.000 A 
ATOM     10  F   UNL     1       7.849   4.621  14.726  0.00  0.00    +0.000 F 
ATOM     11  C   UNL     1       7.155   6.238  16.295  0.00  0.00    +0.000 A 
ATOM     12  C   UNL     1       6.138   6.788  17.079  0.00  0.00    +0.000 A 
ENDBRANCH   3   6
BRANCH   1  14
ATOM     13  O   UNL     1       1.174   9.706  20.208  0.00  0.00    +0.000 OA
ATOM     14  C   UNL     1       1.245   9.126  19.131  0.00  0.00    +0.000 C 
ATOM     15  N   UNL     1       0.391   9.411  18.083  0.00  0.00    +0.000 N 
ATOM     16  H   UNL     1       0.606   9.039  17.169  0.00  0.00    +0.000 HD
BRANCH  15  17
ATOM     17  C   UNL     1      -0.716  10.336  18.191  0.00  0.00    +0.000 C 
BRANCH  17  18
ATOM     18  C   UNL     1      -1.751  10.125  17.091  0.00  0.00    +0.000 C 
BRANCH  18  19
ATOM     19  C   UNL     1      -3.165  10.047  17.672  0.00  0.00    +0.000 C 
BRANCH  19  20
ATOM     20  C   UNL     1      -3.809  11.432  17.768  0.00  0.00    +0.000 C 
BRANCH  20  21
ATOM     21  C   UNL     1      -5.090  11.514  16.933  0.00  0.00    +0.000 C 
BRANCH  21  22
ATOM     22  C   UNL     1      -5.997  12.636  17.434  0.00  0.00    +0.000 C 
BRANCH  22  23
ATOM     23  S   UNL     1      -7.103  12.032  18.740  0.00  0.00    +0.000 S 
ATOM     24  H   UNL     1      -6.924  13.060  19.585  0.00  0.00    +0.000 HD
ENDBRANCH  22  23
ENDBRANCH  21  22
ENDBRANCH  20  21
ENDBRANCH  19  20
ENDBRANCH  18  19
ENDBRANCH  17  18
ENDBRANCH  15  17
ENDBRANCH   1  14
BRANCH   5  25
ATOM     25  C   UNL     1       1.668   6.402  20.689  0.00  0.00    +0.000 C 
BRANCH  25  26
ATOM     26  C   UNL     1       1.598   4.895  20.731  0.00  0.00    +0.000 A 
ATOM     27  C   UNL     1       0.831   4.189  19.789  0.00  0.00    +0.000 A 
ATOM     28  C   UNL     1       0.846   2.793  19.765  0.00  0.00    +0.000 A 
ATOM     29  C   UNL     1       1.621   2.082  20.677  0.00  0.00    +0.000 A 
ATOM     30  C   UNL     1       2.368   2.768  21.633  0.00  0.00    +0.000 A 
ATOM     31  C   UNL     1       2.351   4.164  21.666  0.00  0.00    +0.000 A 
ENDBRANCH  25  26
ENDBRANCH   5  25
TORSDOF 11
ENDMDL
MODEL 6
REMARK VINA RESULT:      -7.0      5.415      9.121
REMARK  Name = 
REMARK  11 active torsions:
REMARK  status: ('A' for Active; 'I' for Inactive)
REMARK    1  A    between atoms: C_2  and  C_11
REMARK    2  A    between atoms: N_3  and  C_4
REMARK    3  A    between atoms: C_4  and  C_5
REMARK    4  A    between atoms: C_5  and  C_6
REMARK    5  A    between atoms: C_6  and  C_7
REMARK    6  A    between atoms: C_7  and  C_8
REMARK    7  A    between atoms: C_8  and  C_9
REMARK    8  A    between atoms: C_9  and  S_10
REMARK    9  A    between atoms: C_13  and  C_14
REMARK   10  A    between atoms: N_22  and  C_23
REMARK   11  A    between atoms: C_23  and  C_24
REMARK                            x       y       z     vdW  Elec       q    Type
REMARK                         _______ _______ _______ _____ _____    ______ ____
ROOT
ATOM      1  C   UNL     1       1.499   8.286  20.771  0.00  0.00    +0.000 A 
ATOM      2  C   UNL     1       1.880   6.955  20.800  0.00  0.00    +0.000 A 
ATOM      3  C   UNL     1       2.152   6.573  19.467  0.00  0.00    +0.000 A 
ATOM      4  N   UNL     1       1.974   7.612  18.642  0.00  0.00    +0.000 NA
ATOM      5  N   UNL     1       1.618   8.647  19.445  0.00  0.00    +0.000 N 
ENDROOT
BRANCH   3   6
ATOM      6  C   UNL     1       2.548   5.247  18.991  0.00  0.00    +0.000 A 
ATOM      7  C   UNL     1       3.592   4.552  19.624  0.00  0.00    +0.000 A 
ATOM      8  C   UNL     1       4.027   3.323  19.127  0.00  0.00    +0.000 A 
ATOM      9  C   UNL     1       3.412   2.779  18.005  0.00  0.00    +0.000 A 
ATOM     10  F   UNL     1       3.842   1.607  17.520  0.00  0.00    +0.000 F 
ATOM     11  C   UNL     1       2.362   3.436  17.377  0.00  0.00    +0.000 A 
ATOM     12  C   UNL     1       1.928   4.669  17.870  0.00  0.00    +0.000 A 
ENDBRANCH   3   6
BRANCH   1  14
ATOM     13  O   UNL     1       1.915   9.648  22.656  0.00  0.00    +0.000 OA
ATOM     14  C   UNL     1       1.119   9.140  21.876  0.00  0.00    +0.000 C 
ATOM     15  N   UNL     1      -0.245   9.327  21.988  0.00  0.00    +0.000 N 
ATOM     16  H   UNL     1      -0.837   9.039  21.223  0.00  0.00    +0.000 HD
BRANCH  15  17
ATOM     17  C   UNL     1      -0.859  10.047  23.083  0.00  0.00    +0.000 C 
BRANCH  17  18
ATOM     18  C   UNL     1      -1.139  11.503  22.727  0.00  0.00    +0.000 C 
BRANCH  18  19
ATOM     19  C   UNL     1      -2.511  11.943  23.243  0.00  0.00    +0.000 C 
BRANCH  19  20
ATOM     20  C   UNL     1      -3.284  12.727  22.180  0.00  0.00    +0.000 C 
BRANCH  20  21
ATOM     21  C   UNL     1      -3.905  14.000  22.763  0.00  0.00    +0.000 C 
BRANCH  21  22
ATOM     22  C   UNL     1      -2.996  14.614  23.824  0.00  0.00    +0.000 C 
BRANCH  22  23
ATOM     23  S   UNL     1      -3.827  15.995  24.661  0.00  0.00    +0.000 S 
ATOM     24  H   UNL     1      -4.135  15.334  25.787  0.00  0.00    +0.000 HD
ENDBRANCH  22  23
ENDBRANCH  21  22
ENDBRANCH  20  21
ENDBRANCH  19  20
ENDBRANCH  18  19
ENDBRANCH  17  18
ENDBRANCH  15  17
ENDBRANCH   1  14
BRANCH   5  25
ATOM     25  C   UNL     1       1.545   9.980  18.853  0.00  0.00    +0.000 C 
BRANCH  25  26
ATOM     26  C   UNL     1       0.137  10.472  18.626  0.00  0.00    +0.000 A 
ATOM     27  C   UNL     1      -0.292  11.689  19.182  0.00  0.00    +0.000 A 
ATOM     28  C   UNL     1      -1.561  12.194  18.891  0.00  0.00    +0.000 A 
ATOM     29  C   UNL     1      -2.418  11.496  18.045  0.00  0.00    +0.000 A 
ATOM     30  C   UNL     1      -2.016  10.276  17.506  0.00  0.00    +0.000 A 
ATOM     31  C   UNL     1      -0.751   9.763  17.799  0.00  0.00    +0.000 A 
ENDBRANCH  25  26
ENDBRANCH   5  25
TORSDOF 11
ENDMDL
MODEL 7
REMARK VINA RESULT:      -7.0      3.203      3.767
REMARK  Name = 
REMARK  11 active torsions:
REMARK  status: ('A' for Active; 'I' for Inactive)
REMARK    1  A    between atoms: C_2  and  C_11
REMARK    2  A    between atoms: N_3  and  C_4
REMARK    3  A    between atoms: C_4  and  C_5
REMARK    4  A    between atoms: C_5  and  C_6
REMARK    5  A    between atoms: C_6  and  C_7
REMARK    6  A    between atoms: C_7  and  C_8
REMARK    7  A    between atoms: C_8  and  C_9
REMARK    8  A    between atoms: C_9  and  S_10
REMARK    9  A    between atoms: C_13  and  C_14
REMARK   10  A    between atoms: N_22  and  C_23
REMARK   11  A    between atoms: C_23  and  C_24
REMARK                            x       y       z     vdW  Elec       q    Type
REMARK                         _______ _______ _______ _____ _____    ______ ____
ROOT
ATOM      1  C   UNL     1       2.804   6.694  19.244  0.00  0.00    +0.000 A 
ATOM      2  C   UNL     1       2.406   8.007  19.058  0.00  0.00    +0.000 A 
ATOM      3  C   UNL     1       1.404   8.276  20.017  0.00  0.00    +0.000 A 
ATOM      4  N   UNL     1       1.195   7.199  20.783  0.00  0.00    +0.000 NA
ATOM      5  N   UNL     1       2.072   6.265  20.332  0.00  0.00    +0.000 N 
ENDROOT
BRANCH   3   6
ATOM      6  C   UNL     1       0.650   9.519  20.183  0.00  0.00    +0.000 A 
ATOM      7  C   UNL     1       0.638  10.177  21.423  0.00  0.00    +0.000 A 
ATOM      8  C   UNL     1      -0.141  11.320  21.611  0.00  0.00    +0.000 A 
ATOM      9  C   UNL     1      -0.901  11.813  20.557  0.00  0.00    +0.000 A 
ATOM     10  F   UNL     1      -1.662  12.900  20.744  0.00  0.00    +0.000 F 
ATOM     11  C   UNL     1      -0.888  11.193  19.314  0.00  0.00    +0.000 A 
ATOM     12  C   UNL     1      -0.111  10.047  19.126  0.00  0.00    +0.000 A 
ENDBRANCH   3   6
BRANCH   1  14
ATOM     13  O   UNL     1       3.636   5.486  17.393  0.00  0.00    +0.000 OA
ATOM     14  C   UNL     1       3.804   5.943  18.516  0.00  0.00    +0.000 C 
ATOM     15  N   UNL     1       4.983   5.768  19.215  0.00  0.00    +0.000 N 
ATOM     16  H   UNL     1       5.134   6.313  20.051  0.00  0.00    +0.000 HD
BRANCH  15  17
ATOM     17  C   UNL     1       6.078   4.955  18.732  0.00  0.00    +0.000 C 
BRANCH  17  18
ATOM     18  C   UNL     1       7.232   5.799  18.203  0.00  0.00    +0.000 C 
BRANCH  18  19
ATOM     19  C   UNL     1       7.154   5.952  16.682  0.00  0.00    +0.000 C 
BRANCH  19  20
ATOM     20  C   UNL     1       6.905   4.606  15.997  0.00  0.00    +0.000 C 
BRANCH  20  21
ATOM     21  C   UNL     1       6.961   4.736  14.471  0.00  0.00    +0.000 C 
BRANCH  21  22
ATOM     22  C   UNL     1       5.848   3.925  13.814  0.00  0.00    +0.000 C 
BRANCH  22  23
ATOM     23  S   UNL     1       6.334   3.403  12.144  0.00  0.00    +0.000 S 
ATOM     24  H   UNL     1       7.296   4.322  11.967  0.00  0.00    +0.000 HD
ENDBRANCH  22  23
ENDBRANCH  21  22
ENDBRANCH  20  21
ENDBRANCH  19  20
ENDBRANCH  18  19
ENDBRANCH  17  18
ENDBRANCH  15  17
ENDBRANCH   1  14
BRANCH   5  25
ATOM     25  C   UNL     1       2.221   5.035  21.104  0.00  0.00    +0.000 C 
BRANCH  25  26
ATOM     26  C   UNL     1       2.094   3.777  20.281  0.00  0.00    +0.000 A 
ATOM     27  C   UNL     1       0.883   3.459  19.643  0.00  0.00    +0.000 A 
ATOM     28  C   UNL     1       0.794   2.349  18.801  0.00  0.00    +0.000 A 
ATOM     29  C   UNL     1       1.906   1.541  18.584  0.00  0.00    +0.000 A 
ATOM     30  C   UNL     1       3.108   1.829  19.229  0.00  0.00    +0.000 A 
ATOM     31  C   UNL     1       3.200   2.934  20.077  0.00  0.00    +0.000 A 
ENDBRANCH  25  26
ENDBRANCH   5  25
TORSDOF 11
ENDMDL
MODEL 8
REMARK VINA RESULT:      -6.9      0.955      1.482
REMARK  Name = 
REMARK  11 active torsions:
REMARK  status: ('A' for Active; 'I' for Inactive)
REMARK    1  A    between atoms: C_2  and  C_11
REMARK    2  A    between atoms: N_3  and  C_4
REMARK    3  A    between atoms: C_4  and  C_5
REMARK    4  A    between atoms: C_5  and  C_6
REMARK    5  A    between atoms: C_6  and  C_7
REMARK    6  A    between atoms: C_7  and  C_8
REMARK    7  A    between atoms: C_8  and  C_9
REMARK    8  A    between atoms: C_9  and  S_10
REMARK    9  A    between atoms: C_13  and  C_14
REMARK   10  A    between atoms: N_22  and  C_23
REMARK   11  A    between atoms: C_23  and  C_24
REMARK                            x       y       z     vdW  Elec       q    Type
REMARK                         _______ _______ _______ _____ _____    ______ ____
ROOT
ATOM      1  C   UNL     1       3.106   7.263  18.167  0.00  0.00    +0.000 A 
ATOM      2  C   UNL     1       2.561   8.478  17.787  0.00  0.00    +0.000 A 
ATOM      3  C   UNL     1       1.638   8.851  18.789  0.00  0.00    +0.000 A 
ATOM      4  N   UNL     1       1.615   7.932  19.762  0.00  0.00    +0.000 NA
ATOM      5  N   UNL     1       2.532   7.000  19.394  0.00  0.00    +0.000 N 
ENDROOT
BRANCH   3   6
ATOM      6  C   UNL     1       0.783  10.038  18.807  0.00  0.00    +0.000 A 
ATOM      7  C   UNL     1      -0.591   9.922  18.537  0.00  0.00    +0.000 A 
ATOM      8  C   UNL     1      -1.398  11.059  18.475  0.00  0.00    +0.000 A 
ATOM      9  C   UNL     1      -0.837  12.312  18.694  0.00  0.00    +0.000 A 
ATOM     10  F   UNL     1      -1.610  13.404  18.617  0.00  0.00    +0.000 F 
ATOM     11  C   UNL     1       0.514  12.449  18.986  0.00  0.00    +0.000 A 
ATOM     12  C   UNL     1       1.324  11.313  19.044  0.00  0.00    +0.000 A 
ENDBRANCH   3   6
BRANCH   1  14
ATOM     13  O   UNL     1       3.875   5.367  16.987  0.00  0.00    +0.000 OA
ATOM     14  C   UNL     1       4.098   6.465  17.480  0.00  0.00    +0.000 C 
ATOM     15  N   UNL     1       5.349   7.052  17.438  0.00  0.00    +0.000 N 
ATOM     16  H   UNL     1       5.435   8.024  17.695  0.00  0.00    +0.000 HD
BRANCH  15  17
ATOM     17  C   UNL     1       6.518   6.388  16.905  0.00  0.00    +0.000 C 
BRANCH  17  18
ATOM     18  C   UNL     1       7.812   6.950  17.483  0.00  0.00    +0.000 C 
BRANCH  18  19
ATOM     19  C   UNL     1       7.737   8.472  17.628  0.00  0.00    +0.000 C 
BRANCH  19  20
ATOM     20  C   UNL     1       8.746   8.986  18.658  0.00  0.00    +0.000 C 
BRANCH  20  21
ATOM     21  C   UNL     1       9.103  10.454  18.408  0.00  0.00    +0.000 C 
BRANCH  21  22
ATOM     22  C   UNL     1       9.432  11.167  19.717  0.00  0.00    +0.000 C 
BRANCH  22  23
ATOM     23  S   UNL     1      11.127  11.816  19.687  0.00  0.00    +0.000 S 
ATOM     24  H   UNL     1      11.748  10.628  19.611  0.00  0.00    +0.000 HD
ENDBRANCH  22  23
ENDBRANCH  21  22
ENDBRANCH  20  21
ENDBRANCH  19  20
ENDBRANCH  18  19
ENDBRANCH  17  18
ENDBRANCH  15  17
ENDBRANCH   1  14
BRANCH   5  25
ATOM     25  C   UNL     1       2.880   5.962  20.360  0.00  0.00    +0.000 C 
BRANCH  25  26
ATOM     26  C   UNL     1       2.479   4.571  19.933  0.00  0.00    +0.000 A 
ATOM     27  C   UNL     1       3.454   3.588  19.695  0.00  0.00    +0.000 A 
ATOM     28  C   UNL     1       3.082   2.275  19.398  0.00  0.00    +0.000 A 
ATOM     29  C   UNL     1       1.736   1.924  19.334  0.00  0.00    +0.000 A 
ATOM     30  C   UNL     1       0.757   2.894  19.544  0.00  0.00    +0.000 A 
ATOM     31  C   UNL     1       1.125   4.209  19.834  0.00  0.00    +0.000 A 
ENDBRANCH  25  26
ENDBRANCH   5  25
TORSDOF 11
ENDMDL
MODEL 9
REMARK VINA RESULT:      -6.9      0.811      1.205
REMARK  Name = 
REMARK  11 active torsions:
REMARK  status: ('A' for Active; 'I' for Inactive)
REMARK    1  A    between atoms: C_2  and  C_11
REMARK    2  A    between atoms: N_3  and  C_4
REMARK    3  A    between atoms: C_4  and  C_5
REMARK    4  A    between atoms: C_5  and  C_6
REMARK    5  A    between atoms: C_6  and  C_7
REMARK    6  A    between atoms: C_7  and  C_8
REMARK    7  A    between atoms: C_8  and  C_9
REMARK    8  A    between atoms: C_9  and  S_10
REMARK    9  A    between atoms: C_13  and  C_14
REMARK   10  A    between atoms: N_22  and  C_23
REMARK   11  A    between atoms: C_23  and  C_24
REMARK                            x       y       z     vdW  Elec       q    Type
REMARK                         _______ _______ _______ _____ _____    ______ ____
ROOT
ATOM      1  C   UNL     1       3.117   7.140  18.410  0.00  0.00    +0.000 A 
ATOM      2  C   UNL     1       2.530   8.372  18.177  0.00  0.00    +0.000 A 
ATOM      3  C   UNL     1       1.580   8.579  19.201  0.00  0.00    +0.000 A 
ATOM      4  N   UNL     1       1.580   7.543  20.049  0.00  0.00    +0.000 NA
ATOM      5  N   UNL     1       2.538   6.702  19.583  0.00  0.00    +0.000 N 
ENDROOT
BRANCH   3   6
ATOM      6  C   UNL     1       0.678   9.721  19.353  0.00  0.00    +0.000 A 
ATOM      7  C   UNL     1       0.544  10.353  20.601  0.00  0.00    +0.000 A 
ATOM      8  C   UNL     1      -0.371  11.393  20.773  0.00  0.00    +0.000 A 
ATOM      9  C   UNL     1      -1.146  11.811  19.697  0.00  0.00    +0.000 A 
ATOM     10  F   UNL     1      -2.036  12.797  19.869  0.00  0.00    +0.000 F 
ATOM     11  C   UNL     1      -1.014  11.217  18.448  0.00  0.00    +0.000 A 
ATOM     12  C   UNL     1      -0.101  10.174  18.275  0.00  0.00    +0.000 A 
ENDBRANCH   3   6
BRANCH   1  14
ATOM     13  O   UNL     1       3.950   5.514  16.913  0.00  0.00    +0.000 OA
ATOM     14  C   UNL     1       4.150   6.474  17.646  0.00  0.00    +0.000 C 
ATOM     15  N   UNL     1       5.409   7.014  17.827  0.00  0.00    +0.000 N 
ATOM     16  H   UNL     1       5.489   7.906  18.293  0.00  0.00    +0.000 HD
BRANCH  15  17
ATOM     17  C   UNL     1       6.607   6.440  17.255  0.00  0.00    +0.000 C 
BRANCH  17  18
ATOM     18  C   UNL     1       7.678   7.492  16.989  0.00  0.00    +0.000 C 
BRANCH  18  19
ATOM     19  C   UNL     1       8.219   8.073  18.298  0.00  0.00    +0.000 C 
BRANCH  19  20
ATOM     20  C   UNL     1       8.525   9.567  18.163  0.00  0.00    +0.000 C 
BRANCH  20  21
ATOM     21  C   UNL     1       9.231  10.109  19.410  0.00  0.00    +0.000 C 
BRANCH  21  22
ATOM     22  C   UNL     1       9.538  11.596  19.260  0.00  0.00    +0.000 C 
BRANCH  22  23
ATOM     23  S   UNL     1      11.153  11.995  19.987  0.00  0.00    +0.000 S 
ATOM     24  H   UNL     1      11.235  13.247  19.512  0.00  0.00    +0.000 HD
ENDBRANCH  22  23
ENDBRANCH  21  22
ENDBRANCH  20  21
ENDBRANCH  19  20
ENDBRANCH  18  19
ENDBRANCH  17  18
ENDBRANCH  15  17
ENDBRANCH   1  14
BRANCH   5  25
ATOM     25  C   UNL     1       2.914   5.563  20.415  0.00  0.00    +0.000 C 
BRANCH  25  26
ATOM     26  C   UNL     1       2.529   4.225  19.831  0.00  0.00    +0.000 A 
ATOM     27  C   UNL     1       3.511   3.266  19.535  0.00  0.00    +0.000 A 
ATOM     28  C   UNL     1       3.150   1.993  19.090  0.00  0.00    +0.000 A 
ATOM     29  C   UNL     1       1.807   1.659  18.933  0.00  0.00    +0.000 A 
ATOM     30  C   UNL     1       0.822   2.607  19.199  0.00  0.00    +0.000 A 
ATOM     31  C   UNL     1       1.179   3.884  19.638  0.00  0.00    +0.000 A 
ENDBRANCH  25  26
ENDBRANCH   5  25
TORSDOF 11
ENDMDL
