MODEL 1
REMARK VINA RESULT:      -9.8      0.000      0.000
REMARK  Name = 
REMARK  6 active torsions:
REMARK  status: ('A' for Active; 'I' for Inactive)
REMARK    1  A    between atoms: C_1  and  C_2
REMARK    2  A    between atoms: N_7  and  C_8
REMARK    3  A    between atoms: C_11  and  C_12
REMARK    4  A    between atoms: C_12  and  N_13
REMARK    5  A    between atoms: C_14  and  C_15
REMARK    6  A    between atoms: C_18  and  C_19
REMARK                            x       y       z     vdW  Elec       q    Type
REMARK                         _______ _______ _______ _____ _____    ______ ____
ROOT
ATOM      1  C   UNL     1       2.455   5.547  20.673  0.00  0.00    +0.000 C 
ENDROOT
BRANCH   1   2
ATOM      2  N   UNL     1       2.842   4.310  19.959  0.00  0.00    +0.000 NA
ATOM      3  C   UNL     1       1.897   3.256  19.539  0.00  0.00    +0.000 C 
ATOM      4  C   UNL     1       0.629   3.208  20.388  0.00  0.00    +0.000 C 
ATOM      5  C   UNL     1       1.606   3.337  18.027  0.00  0.00    +0.000 C 
ATOM      6  C   UNL     1       2.797   3.625  17.085  0.00  0.00    +0.000 C 
ATOM      7  C   UNL     1       3.826   4.653  17.586  0.00  0.00    +0.000 C 
ATOM      8  S   UNL     1       4.367   4.221  19.225  0.00  0.00    +0.000 S 
ATOM      9  O   UNL     1       5.219   5.256  19.775  0.00  0.00    +0.000 OA
ATOM     10  O   UNL     1       4.782   2.824  19.234  0.00  0.00    +0.000 OA
BRANCH   7  11
ATOM     11  C   UNL     1       5.028   4.843  16.680  0.00  0.00    +0.000 A 
ATOM     12  C   UNL     1       6.151   5.601  17.051  0.00  0.00    +0.000 A 
ATOM     13  C   UNL     1       7.253   5.706  16.197  0.00  0.00    +0.000 A 
ATOM     14  C   UNL     1       7.249   5.061  14.961  0.00  0.00    +0.000 A 
ATOM     15  C   UNL     1       6.132   4.328  14.573  0.00  0.00    +0.000 A 
ATOM     16 CL   UNL     1       6.115   3.531  13.048  0.00  0.00    +0.000 Cl
ATOM     17  C   UNL     1       5.028   4.222  15.418  0.00  0.00    +0.000 A 
ENDBRANCH   7  11
ENDBRANCH   1   2
BRANCH   1  21
ATOM     18  C   UNL     1       1.428   9.417  18.802  0.00  0.00    +0.000 A 
ATOM     19  C   UNL     1       2.095   8.425  18.065  0.00  0.00    +0.000 A 
ATOM     20  C   UNL     1       2.493   7.184  18.633  0.00  0.00    +0.000 A 
ATOM     21  C   UNL     1       2.259   6.884  19.976  0.00  0.00    +0.000 A 
ATOM     22  C   UNL     1       1.601   7.884  20.701  0.00  0.00    +0.000 A 
ATOM     23  F   UNL     1       1.278   7.667  21.982  0.00  0.00    +0.000 F 
ATOM     24  C   UNL     1       1.208   9.107  20.145  0.00  0.00    +0.000 A 
BRANCH  18  31
ATOM     25  C   UNL     1       1.572  15.595  18.753  0.00  0.00    +0.000 C 
ATOM     26  C   UNL     1       0.469  14.640  19.146  0.00  0.00    +0.000 C 
ATOM     27  O   UNL     1      -0.681  15.055  19.283  0.00  0.00    +0.000 OA
ATOM     28  N   UNL     1       0.806  13.309  19.312  0.00  0.00    +0.000 N 
ATOM     29  C   UNL     1      -0.240  12.312  19.589  0.00  0.00    +0.000 C 
ATOM     30  C   UNL     1      -0.287  11.210  18.498  0.00  0.00    +0.000 C 
ATOM     31  N   UNL     1       1.065  10.637  18.242  0.00  0.00    +0.000 N 
ATOM     32  C   UNL     1       2.084  11.678  17.966  0.00  0.00    +0.000 C 
ATOM     33  C   UNL     1       2.134  12.726  19.094  0.00  0.00    +0.000 C 
ENDBRANCH  18  31
ENDBRANCH   1  21
TORSDOF 4
ENDMDL
MODEL 2
REMARK VINA RESULT:      -9.1      1.920      2.453
REMARK  Name = 
REMARK  6 active torsions:
REMARK  status: ('A' for Active; 'I' for Inactive)
REMARK    1  A    between atoms: C_1  and  C_2
REMARK    2  A    between atoms: N_7  and  C_8
REMARK    3  A    between atoms: C_11  and  C_12
REMARK    4  A    between atoms: C_12  and  N_13
REMARK    5  A    between atoms: C_14  and  C_15
REMARK    6  A    between atoms: C_18  and  C_19
REMARK                            x       y       z     vdW  Elec       q    Type
REMARK                         _______ _______ _______ _____ _____    ______ ____
ROOT
ATOM      1  C   UNL     1       3.004   6.275  20.390  0.00  0.00    +0.000 C 
ENDROOT
BRANCH   1   2
ATOM      2  N   UNL     1       3.153   4.943  19.764  0.00  0.00    +0.000 NA
ATOM      3  C   UNL     1       2.038   4.012  19.502  0.00  0.00    +0.000 C 
ATOM      4  C   UNL     1       0.846   4.220  20.433  0.00  0.00    +0.000 C 
ATOM      5  C   UNL     1       1.645   4.017  18.011  0.00  0.00    +0.000 C 
ATOM      6  C   UNL     1       2.788   4.052  16.970  0.00  0.00    +0.000 C 
ATOM      7  C   UNL     1       3.988   4.951  17.310  0.00  0.00    +0.000 C 
ATOM      8  S   UNL     1       4.588   4.570  18.942  0.00  0.00    +0.000 S 
ATOM      9  O   UNL     1       5.620   5.506  19.341  0.00  0.00    +0.000 OA
ATOM     10  O   UNL     1       4.799   3.132  19.046  0.00  0.00    +0.000 OA
BRANCH   7  11
ATOM     11  C   UNL     1       5.132   4.888  16.314  0.00  0.00    +0.000 A 
ATOM     12  C   UNL     1       6.411   5.398  16.588  0.00  0.00    +0.000 A 
ATOM     13  C   UNL     1       7.442   5.274  15.653  0.00  0.00    +0.000 A 
ATOM     14  C   UNL     1       7.211   4.644  14.430  0.00  0.00    +0.000 A 
ATOM     15  C   UNL     1       5.942   4.156  14.139  0.00  0.00    +0.000 A 
ATOM     16 CL   UNL     1       5.645   3.380  12.633  0.00  0.00    +0.000 Cl
ATOM     17  C   UNL     1       4.907   4.281  15.065  0.00  0.00    +0.000 A 
ENDBRANCH   7  11
ENDBRANCH   1   2
BRANCH   1  21
ATOM     18  C   UNL     1       0.433   9.452  18.710  0.00  0.00    +0.000 A 
ATOM     19  C   UNL     1       1.280   8.706  17.875  0.00  0.00    +0.000 A 
ATOM     20  C   UNL     1       2.163   7.708  18.370  0.00  0.00    +0.000 A 
ATOM     21  C   UNL     1       2.255   7.424  19.734  0.00  0.00    +0.000 A 
ATOM     22  C   UNL     1       1.412   8.180  20.556  0.00  0.00    +0.000 A 
ATOM     23  F   UNL     1       1.384   7.940  21.873  0.00  0.00    +0.000 F 
ATOM     24  C   UNL     1       0.541   9.164  20.071  0.00  0.00    +0.000 A 
BRANCH  18  31
ATOM     25  C   UNL     1      -4.620  12.979  19.187  0.00  0.00    +0.000 C 
ATOM     26  C   UNL     1      -4.331  11.789  18.303  0.00  0.00    +0.000 C 
ATOM     27  O   UNL     1      -5.067  11.543  17.347  0.00  0.00    +0.000 OA
ATOM     28  N   UNL     1      -3.214  11.030  18.598  0.00  0.00    +0.000 N 
ATOM     29  C   UNL     1      -2.818   9.924  17.712  0.00  0.00    +0.000 C 
ATOM     30  C   UNL     1      -1.391  10.129  17.139  0.00  0.00    +0.000 C 
ATOM     31  N   UNL     1      -0.410  10.443  18.216  0.00  0.00    +0.000 N 
ATOM     32  C   UNL     1      -0.850  11.564  19.081  0.00  0.00    +0.000 C 
ATOM     33  C   UNL     1      -2.250  11.302  19.669  0.00  0.00    +0.000 C 
ENDBRANCH  18  31
ENDBRANCH   1  21
TORSDOF 4
ENDMDL
MODEL 3
REMARK VINA RESULT:      -9.0      1.066      1.341
REMARK  Name = 
REMARK  6 active torsions:
REMARK  status: ('A' for Active; 'I' for Inactive)
REMARK    1  A    between atoms: C_1  and  C_2
REMARK    2  A    between atoms: N_7  and  C_8
REMARK    3  A    between atoms: C_11  and  C_12
REMARK    4  A    between atoms: C_12  and  N_13
REMARK    5  A    between atoms: C_14  and  C_15
REMARK    6  A    between atoms: C_18  and  C_19
REMARK                            x       y       z     vdW  Elec       q    Type
REMARK                         _______ _______ _______ _____ _____    ______ ____
ROOT
ATOM      1  C   UNL     1       2.110   5.500  20.680  0.00  0.00    +0.000 C 
ENDROOT
BRANCH   1   2
ATOM      2  N   UNL     1       2.577   4.277  19.992  0.00  0.00    +0.000 NA
ATOM      3  C   UNL     1       1.690   3.206  19.495  0.00  0.00    +0.000 C 
ATOM      4  C   UNL     1       0.363   3.125  20.245  0.00  0.00    +0.000 C 
ATOM      5  C   UNL     1       1.513   3.290  17.966  0.00  0.00    +0.000 C 
ATOM      6  C   UNL     1       2.766   3.612  17.118  0.00  0.00    +0.000 C 
ATOM      7  C   UNL     1       3.730   4.658  17.701  0.00  0.00    +0.000 C 
ATOM      8  S   UNL     1       4.155   4.226  19.375  0.00  0.00    +0.000 S 
ATOM      9  O   UNL     1       4.940   5.276  19.993  0.00  0.00    +0.000 OA
ATOM     10  O   UNL     1       4.599   2.839  19.408  0.00  0.00    +0.000 OA
BRANCH   7  11
ATOM     11  C   UNL     1       4.994   4.880  16.891  0.00  0.00    +0.000 A 
ATOM     12  C   UNL     1       5.352   4.074  15.799  0.00  0.00    +0.000 A 
ATOM     13  C   UNL     1       6.504   4.349  15.057  0.00  0.00    +0.000 A 
ATOM     14  C   UNL     1       7.318   5.429  15.398  0.00  0.00    +0.000 A 
ATOM     15  C   UNL     1       6.986   6.220  16.493  0.00  0.00    +0.000 A 
ATOM     16 CL   UNL     1       7.985   7.553  16.923  0.00  0.00    +0.000 Cl
ATOM     17  C   UNL     1       5.841   5.948  17.239  0.00  0.00    +0.000 A 
ENDBRANCH   7  11
ENDBRANCH   1   2
BRANCH   1  21
ATOM     18  C   UNL     1       1.359   9.451  18.847  0.00  0.00    +0.000 A 
ATOM     19  C   UNL     1       1.950   8.420  18.099  0.00  0.00    +0.000 A 
ATOM     20  C   UNL     1       2.259   7.149  18.654  0.00  0.00    +0.000 A 
ATOM     21  C   UNL     1       2.009   6.855  19.996  0.00  0.00    +0.000 A 
ATOM     22  C   UNL     1       1.427   7.893  20.732  0.00  0.00    +0.000 A 
ATOM     23  F   UNL     1       1.094   7.689  22.013  0.00  0.00    +0.000 F 
ATOM     24  C   UNL     1       1.122   9.147  20.188  0.00  0.00    +0.000 A 
BRANCH  18  31
ATOM     25  C   UNL     1       1.689  15.620  19.024  0.00  0.00    +0.000 C 
ATOM     26  C   UNL     1       0.528  14.690  19.285  0.00  0.00    +0.000 C 
ATOM     27  O   UNL     1      -0.617  15.137  19.334  0.00  0.00    +0.000 OA
ATOM     28  N   UNL     1       0.809  13.344  19.434  0.00  0.00    +0.000 N 
ATOM     29  C   UNL     1      -0.286  12.373  19.583  0.00  0.00    +0.000 C 
ATOM     30  C   UNL     1      -0.268  11.308  18.455  0.00  0.00    +0.000 C 
ATOM     31  N   UNL     1       1.084  10.700  18.300  0.00  0.00    +0.000 N 
ATOM     32  C   UNL     1       2.154  11.715  18.150  0.00  0.00    +0.000 C 
ATOM     33  C   UNL     1       2.134  12.725  19.314  0.00  0.00    +0.000 C 
ENDBRANCH  18  31
ENDBRANCH   1  21
TORSDOF 4
ENDMDL
MODEL 4
REMARK VINA RESULT:      -9.0      1.479      2.013
REMARK  Name = 
REMARK  6 active torsions:
REMARK  status: ('A' for Active; 'I' for Inactive)
REMARK    1  A    between atoms: C_1  and  C_2
REMARK    2  A    between atoms: N_7  and  C_8
REMARK    3  A    between atoms: C_11  and  C_12
REMARK    4  A    between atoms: C_12  and  N_13
REMARK    5  A    between atoms: C_14  and  C_15
REMARK    6  A    between atoms: C_18  and  C_19
REMARK                            x       y       z     vdW  Elec       q    Type
REMARK                         _______ _______ _______ _____ _____    ______ ____
ROOT
ATOM      1  C   UNL     1       1.953   6.511  18.692  0.00  0.00    +0.000 C 
ENDROOT
BRANCH   1   2
ATOM      2  N   UNL     1       3.185   5.754  19.003  0.00  0.00    +0.000 NA
ATOM      3  C   UNL     1       3.241   4.572  19.886  0.00  0.00    +0.000 C 
ATOM      4  C   UNL     1       2.117   4.536  20.919  0.00  0.00    +0.000 C 
ATOM      5  C   UNL     1       3.349   3.269  19.069  0.00  0.00    +0.000 C 
ATOM      6  C   UNL     1       4.289   3.271  17.841  0.00  0.00    +0.000 C 
ATOM      7  C   UNL     1       4.292   4.551  16.990  0.00  0.00    +0.000 C 
ATOM      8  S   UNL     1       4.557   5.971  18.031  0.00  0.00    +0.000 S 
ATOM      9  O   UNL     1       4.412   7.197  17.273  0.00  0.00    +0.000 OA
ATOM     10  O   UNL     1       5.731   5.736  18.862  0.00  0.00    +0.000 OA
BRANCH   7  11
ATOM     11  C   UNL     1       5.293   4.555  15.850  0.00  0.00    +0.000 A 
ATOM     12  C   UNL     1       6.602   5.043  15.986  0.00  0.00    +0.000 A 
ATOM     13  C   UNL     1       7.500   4.981  14.916  0.00  0.00    +0.000 A 
ATOM     14  C   UNL     1       7.103   4.437  13.695  0.00  0.00    +0.000 A 
ATOM     15  C   UNL     1       5.800   3.974  13.542  0.00  0.00    +0.000 A 
ATOM     16 CL   UNL     1       5.299   3.304  12.038  0.00  0.00    +0.000 Cl
ATOM     17  C   UNL     1       4.899   4.036  14.603  0.00  0.00    +0.000 A 
ENDBRANCH   7  11
ENDBRANCH   1   2
BRANCH   1  21
ATOM     18  C   UNL     1       1.042  10.689  19.810  0.00  0.00    +0.000 A 
ATOM     19  C   UNL     1       1.427  10.371  18.498  0.00  0.00    +0.000 A 
ATOM     20  C   UNL     1       1.780   9.053  18.099  0.00  0.00    +0.000 A 
ATOM     21  C   UNL     1       1.783   7.990  19.003  0.00  0.00    +0.000 A 
ATOM     22  C   UNL     1       1.405   8.322  20.310  0.00  0.00    +0.000 A 
ATOM     23  F   UNL     1       1.319   7.360  21.237  0.00  0.00    +0.000 F 
ATOM     24  C   UNL     1       1.058   9.619  20.706  0.00  0.00    +0.000 A 
BRANCH  18  31
ATOM     25  C   UNL     1      -0.454  16.522  18.420  0.00  0.00    +0.000 C 
ATOM     26  C   UNL     1       0.842  15.933  18.925  0.00  0.00    +0.000 C 
ATOM     27  O   UNL     1       1.723  16.673  19.362  0.00  0.00    +0.000 OA
ATOM     28  N   UNL     1       0.972  14.556  18.895  0.00  0.00    +0.000 N 
ATOM     29  C   UNL     1       2.165  13.915  19.471  0.00  0.00    +0.000 C 
ATOM     30  C   UNL     1       1.795  12.933  20.614  0.00  0.00    +0.000 C 
ATOM     31  N   UNL     1       0.722  11.987  20.195  0.00  0.00    +0.000 N 
ATOM     32  C   UNL     1      -0.459  12.678  19.624  0.00  0.00    +0.000 C 
ATOM     33  C   UNL     1      -0.057  13.606  18.461  0.00  0.00    +0.000 C 
ENDBRANCH  18  31
ENDBRANCH   1  21
TORSDOF 4
ENDMDL
MODEL 5
REMARK VINA RESULT:      -8.7      1.222      1.483
REMARK  Name = 
REMARK  6 active torsions:
REMARK  status: ('A' for Active; 'I' for Inactive)
REMARK    1  A    between atoms: C_1  and  C_2
REMARK    2  A    between atoms: N_7  and  C_8
REMARK    3  A    between atoms: C_11  and  C_12
REMARK    4  A    between atoms: C_12  and  N_13
REMARK    5  A    between atoms: C_14  and  C_15
REMARK    6  A    between atoms: C_18  and  C_19
REMARK                            x       y       z     vdW  Elec       q    Type
REMARK                         _______ _______ _______ _____ _____    ______ ____
ROOT
ATOM      1  C   UNL     1       3.025   5.535  20.561  0.00  0.00    +0.000 C 
ENDROOT
BRANCH   1   2
ATOM      2  N   UNL     1       3.073   4.309  19.734  0.00  0.00    +0.000 NA
ATOM      3  C   UNL     1       1.888   3.532  19.319  0.00  0.00    +0.000 C 
ATOM      4  C   UNL     1       0.699   3.695  20.262  0.00  0.00    +0.000 C 
ATOM      5  C   UNL     1       1.529   3.806  17.844  0.00  0.00    +0.000 C 
ATOM      6  C   UNL     1       2.693   3.903  16.831  0.00  0.00    +0.000 C 
ATOM      7  C   UNL     1       3.958   4.629  17.318  0.00  0.00    +0.000 C 
ATOM      8  S   UNL     1       4.488   3.946  18.874  0.00  0.00    +0.000 S 
ATOM      9  O   UNL     1       5.587   4.714  19.424  0.00  0.00    +0.000 OA
ATOM     10  O   UNL     1       4.573   2.497  18.751  0.00  0.00    +0.000 OA
BRANCH   7  11
ATOM     11  C   UNL     1       5.113   4.623  16.334  0.00  0.00    +0.000 A 
ATOM     12  C   UNL     1       6.395   5.096  16.658  0.00  0.00    +0.000 A 
ATOM     13  C   UNL     1       7.436   5.026  15.729  0.00  0.00    +0.000 A 
ATOM     14  C   UNL     1       7.213   4.489  14.461  0.00  0.00    +0.000 A 
ATOM     15  C   UNL     1       5.941   4.040  14.121  0.00  0.00    +0.000 A 
ATOM     16 CL   UNL     1       5.654   3.378  12.559  0.00  0.00    +0.000 Cl
ATOM     17  C   UNL     1       4.897   4.111  15.041  0.00  0.00    +0.000 A 
ENDBRANCH   7  11
ENDBRANCH   1   2
BRANCH   1  21
ATOM     18  C   UNL     1       1.015   9.305  19.431  0.00  0.00    +0.000 A 
ATOM     19  C   UNL     1       0.641   8.621  20.599  0.00  0.00    +0.000 A 
ATOM     20  C   UNL     1       1.219   7.380  20.981  0.00  0.00    +0.000 A 
ATOM     21  C   UNL     1       2.189   6.752  20.198  0.00  0.00    +0.000 A 
ATOM     22  C   UNL     1       2.548   7.440  19.033  0.00  0.00    +0.000 A 
ATOM     23  F   UNL     1       3.513   6.949  18.245  0.00  0.00    +0.000 F 
ATOM     24  C   UNL     1       1.979   8.662  18.654  0.00  0.00    +0.000 A 
BRANCH  18  31
ATOM     25  C   UNL     1       0.057  15.352  20.277  0.00  0.00    +0.000 C 
ATOM     26  C   UNL     1      -0.846  14.168  20.531  0.00  0.00    +0.000 C 
ATOM     27  O   UNL     1      -2.047  14.346  20.730  0.00  0.00    +0.000 OA
ATOM     28  N   UNL     1      -0.274  12.909  20.501  0.00  0.00    +0.000 N 
ATOM     29  C   UNL     1      -1.117  11.711  20.634  0.00  0.00    +0.000 C 
ATOM     30  C   UNL     1      -0.999  10.785  19.395  0.00  0.00    +0.000 C 
ATOM     31  N   UNL     1       0.425  10.507  19.055  0.00  0.00    +0.000 N 
ATOM     32  C   UNL     1       1.234  11.743  18.929  0.00  0.00    +0.000 C 
ATOM     33  C   UNL     1       1.130  12.612  20.197  0.00  0.00    +0.000 C 
ENDBRANCH  18  31
ENDBRANCH   1  21
TORSDOF 4
ENDMDL
MODEL 6
REMARK VINA RESULT:      -8.7      2.000      2.640
REMARK  Name = 
REMARK  6 active torsions:
REMARK  status: ('A' for Active; 'I' for Inactive)
REMARK    1  A    between atoms: C_1  and  C_2
REMARK    2  A    between atoms: N_7  and  C_8
REMARK    3  A    between atoms: C_11  and  C_12
REMARK    4  A    between atoms: C_12  and  N_13
REMARK    5  A    between atoms: C_14  and  C_15
REMARK    6  A    between atoms: C_18  and  C_19
REMARK                            x       y       z     vdW  Elec       q    Type
REMARK                         _______ _______ _______ _____ _____    ______ ____
ROOT
ATOM      1  C   UNL     1       2.337   6.188  18.258  0.00  0.00    +0.000 C 
ENDROOT
BRANCH   1   2
ATOM      2  N   UNL     1       3.665   5.571  18.465  0.00  0.00    +0.000 NA
ATOM      3  C   UNL     1       3.932   4.450  19.389  0.00  0.00    +0.000 C 
ATOM      4  C   UNL     1       2.932   4.364  20.539  0.00  0.00    +0.000 C 
ATOM      5  C   UNL     1       4.086   3.120  18.624  0.00  0.00    +0.000 C 
ATOM      6  C   UNL     1       4.888   3.144  17.302  0.00  0.00    +0.000 C 
ATOM      7  C   UNL     1       4.672   4.370  16.400  0.00  0.00    +0.000 C 
ATOM      8  S   UNL     1       4.899   5.864  17.341  0.00  0.00    +0.000 S 
ATOM      9  O   UNL     1       4.553   7.027  16.549  0.00  0.00    +0.000 OA
ATOM     10  O   UNL     1       6.171   5.789  18.048  0.00  0.00    +0.000 OA
BRANCH   7  11
ATOM     11  C   UNL     1       5.543   4.407  15.158  0.00  0.00    +0.000 A 
ATOM     12  C   UNL     1       6.729   5.155  15.079  0.00  0.00    +0.000 A 
ATOM     13  C   UNL     1       7.520   5.118  13.927  0.00  0.00    +0.000 A 
ATOM     14  C   UNL     1       7.136   4.340  12.836  0.00  0.00    +0.000 A 
ATOM     15  C   UNL     1       5.951   3.615  12.893  0.00  0.00    +0.000 A 
ATOM     16 CL   UNL     1       5.466   2.654  11.551  0.00  0.00    +0.000 Cl
ATOM     17  C   UNL     1       5.155   3.650  14.037  0.00  0.00    +0.000 A 
ENDBRANCH   7  11
ENDBRANCH   1   2
BRANCH   1  21
ATOM     18  C   UNL     1       1.007  10.207  19.527  0.00  0.00    +0.000 A 
ATOM     19  C   UNL     1       1.461   9.988  18.216  0.00  0.00    +0.000 A 
ATOM     20  C   UNL     1       1.947   8.728  17.772  0.00  0.00    +0.000 A 
ATOM     21  C   UNL     1       2.021   7.628  18.628  0.00  0.00    +0.000 A 
ATOM     22  C   UNL     1       1.573   7.862  19.934  0.00  0.00    +0.000 A 
ATOM     23  F   UNL     1       1.548   6.853  20.814  0.00  0.00    +0.000 F 
ATOM     24  C   UNL     1       1.094   9.101  20.374  0.00  0.00    +0.000 A 
BRANCH  18  31
ATOM     25  C   UNL     1      -2.776  13.693  22.952  0.00  0.00    +0.000 C 
ATOM     26  C   UNL     1      -2.768  13.418  21.467  0.00  0.00    +0.000 C 
ATOM     27  O   UNL     1      -3.440  14.118  20.710  0.00  0.00    +0.000 OA
ATOM     28  N   UNL     1      -1.966  12.387  21.013  0.00  0.00    +0.000 N 
ATOM     29  C   UNL     1      -1.831  12.137  19.569  0.00  0.00    +0.000 C 
ATOM     30  C   UNL     1      -0.357  12.258  19.100  0.00  0.00    +0.000 C 
ATOM     31  N   UNL     1       0.556  11.450  19.957  0.00  0.00    +0.000 N 
ATOM     32  C   UNL     1       0.386  11.737  21.402  0.00  0.00    +0.000 C 
ATOM     33  C   UNL     1      -1.081  11.560  21.840  0.00  0.00    +0.000 C 
ENDBRANCH  18  31
ENDBRANCH   1  21
TORSDOF 4
ENDMDL
MODEL 7
REMARK VINA RESULT:      -8.4      1.780      2.109
REMARK  Name = 
REMARK  6 active torsions:
REMARK  status: ('A' for Active; 'I' for Inactive)
REMARK    1  A    between atoms: C_1  and  C_2
REMARK    2  A    between atoms: N_7  and  C_8
REMARK    3  A    between atoms: C_11  and  C_12
REMARK    4  A    between atoms: C_12  and  N_13
REMARK    5  A    between atoms: C_14  and  C_15
REMARK    6  A    between atoms: C_18  and  C_19
REMARK                            x       y       z     vdW  Elec       q    Type
REMARK                         _______ _______ _______ _____ _____    ______ ____
ROOT
ATOM      1  C   UNL     1       3.008   5.173  20.592  0.00  0.00    +0.000 C 
ENDROOT
BRANCH   1   2
ATOM      2  N   UNL     1       3.024   4.006  19.683  0.00  0.00    +0.000 NA
ATOM      3  C   UNL     1       1.820   3.284  19.227  0.00  0.00    +0.000 C 
ATOM      4  C   UNL     1       0.641   3.406  20.189  0.00  0.00    +0.000 C 
ATOM      5  C   UNL     1       1.456   3.665  17.778  0.00  0.00    +0.000 C 
ATOM      6  C   UNL     1       2.614   3.808  16.763  0.00  0.00    +0.000 C 
ATOM      7  C   UNL     1       3.897   4.472  17.287  0.00  0.00    +0.000 C 
ATOM      8  S   UNL     1       4.425   3.674  18.788  0.00  0.00    +0.000 S 
ATOM      9  O   UNL     1       5.544   4.380  19.379  0.00  0.00    +0.000 OA
ATOM     10  O   UNL     1       4.478   2.235  18.566  0.00  0.00    +0.000 OA
BRANCH   7  11
ATOM     11  C   UNL     1       5.044   4.511  16.294  0.00  0.00    +0.000 A 
ATOM     12  C   UNL     1       6.330   4.962  16.631  0.00  0.00    +0.000 A 
ATOM     13  C   UNL     1       7.364   4.934  15.690  0.00  0.00    +0.000 A 
ATOM     14  C   UNL     1       7.129   4.460  14.400  0.00  0.00    +0.000 A 
ATOM     15  C   UNL     1       5.853   4.033  14.049  0.00  0.00    +0.000 A 
ATOM     16 CL   UNL     1       5.550   3.449  12.459  0.00  0.00    +0.000 Cl
ATOM     17  C   UNL     1       4.816   4.062  14.980  0.00  0.00    +0.000 A 
ENDBRANCH   7  11
ENDBRANCH   1   2
BRANCH   1  21
ATOM     18  C   UNL     1       1.141   9.082  19.717  0.00  0.00    +0.000 A 
ATOM     19  C   UNL     1       0.714   8.319  20.815  0.00  0.00    +0.000 A 
ATOM     20  C   UNL     1       1.245   7.034  21.111  0.00  0.00    +0.000 A 
ATOM     21  C   UNL     1       2.219   6.441  20.306  0.00  0.00    +0.000 A 
ATOM     22  C   UNL     1       2.631   7.209  19.211  0.00  0.00    +0.000 A 
ATOM     23  F   UNL     1       3.604   6.752  18.413  0.00  0.00    +0.000 F 
ATOM     24  C   UNL     1       2.109   8.474  18.916  0.00  0.00    +0.000 A 
BRANCH  18  31
ATOM     25  C   UNL     1      -2.558  13.829  21.124  0.00  0.00    +0.000 C 
ATOM     26  C   UNL     1      -2.716  12.728  20.101  0.00  0.00    +0.000 C 
ATOM     27  O   UNL     1      -3.570  12.828  19.221  0.00  0.00    +0.000 OA
ATOM     28  N   UNL     1      -1.858  11.647  20.188  0.00  0.00    +0.000 N 
ATOM     29  C   UNL     1      -1.889  10.595  19.161  0.00  0.00    +0.000 C 
ATOM     30  C   UNL     1      -0.520  10.449  18.445  0.00  0.00    +0.000 C 
ATOM     31  N   UNL     1       0.597  10.328  19.423  0.00  0.00    +0.000 N 
ATOM     32  C   UNL     1       0.589  11.410  20.437  0.00  0.00    +0.000 C 
ATOM     33  C   UNL     1      -0.769  11.492  21.159  0.00  0.00    +0.000 C 
ENDBRANCH  18  31
ENDBRANCH   1  21
TORSDOF 4
ENDMDL
MODEL 8
REMARK VINA RESULT:      -8.4      4.674     10.838
REMARK  Name = 
REMARK  6 active torsions:
REMARK  status: ('A' for Active; 'I' for Inactive)
REMARK    1  A    between atoms: C_1  and  C_2
REMARK    2  A    between atoms: N_7  and  C_8
REMARK    3  A    between atoms: C_11  and  C_12
REMARK    4  A    between atoms: C_12  and  N_13
REMARK    5  A    between atoms: C_14  and  C_15
REMARK    6  A    between atoms: C_18  and  C_19
REMARK                            x       y       z     vdW  Elec       q    Type
REMARK                         _______ _______ _______ _____ _____    ______ ____
ROOT
ATOM      1  C   UNL     1       0.112  11.438  19.448  0.00  0.00    +0.000 C 
ENDROOT
BRANCH   1   2
ATOM      2  N   UNL     1       0.465  12.727  20.083  0.00  0.00    +0.000 NA
ATOM      3  C   UNL     1       1.087  13.865  19.376  0.00  0.00    +0.000 C 
ATOM      4  C   UNL     1       1.885  13.448  18.144  0.00  0.00    +0.000 C 
ATOM      5  C   UNL     1       0.052  14.969  19.078  0.00  0.00    +0.000 C 
ATOM      6  C   UNL     1      -0.973  15.307  20.185  0.00  0.00    +0.000 C 
ATOM      7  C   UNL     1      -1.533  14.114  20.979  0.00  0.00    +0.000 C 
ATOM      8  S   UNL     1      -0.196  13.114  21.595  0.00  0.00    +0.000 S 
ATOM      9  O   UNL     1      -0.702  11.905  22.214  0.00  0.00    +0.000 OA
ATOM     10  O   UNL     1       0.756  13.971  22.289  0.00  0.00    +0.000 OA
BRANCH   7  11
ATOM     11  C   UNL     1      -2.462  14.488  22.118  0.00  0.00    +0.000 A 
ATOM     12  C   UNL     1      -2.719  15.818  22.489  0.00  0.00    +0.000 A 
ATOM     13  C   UNL     1      -3.619  16.111  23.517  0.00  0.00    +0.000 A 
ATOM     14  C   UNL     1      -4.273  15.081  24.193  0.00  0.00    +0.000 A 
ATOM     15  C   UNL     1      -4.008  13.759  23.851  0.00  0.00    +0.000 A 
ATOM     16 CL   UNL     1      -4.806  12.481  24.681  0.00  0.00    +0.000 Cl
ATOM     17  C   UNL     1      -3.108  13.460  22.829  0.00  0.00    +0.000 A 
ENDBRANCH   7  11
ENDBRANCH   1   2
BRANCH   1  21
ATOM     18  C   UNL     1       2.038   7.485  19.884  0.00  0.00    +0.000 A 
ATOM     19  C   UNL     1       1.372   8.076  20.970  0.00  0.00    +0.000 A 
ATOM     20  C   UNL     1       0.779   9.366  20.898  0.00  0.00    +0.000 A 
ATOM     21  C   UNL     1       0.845  10.138  19.737  0.00  0.00    +0.000 A 
ATOM     22  C   UNL     1       1.519   9.541  18.665  0.00  0.00    +0.000 A 
ATOM     23  F   UNL     1       1.584  10.177  17.488  0.00  0.00    +0.000 F 
ATOM     24  C   UNL     1       2.104   8.271  18.733  0.00  0.00    +0.000 A 
BRANCH  18  31
ATOM     25  C   UNL     1       3.204   1.877  17.563  0.00  0.00    +0.000 C 
ATOM     26  C   UNL     1       2.286   2.306  18.683  0.00  0.00    +0.000 C 
ATOM     27  O   UNL     1       1.823   1.465  19.452  0.00  0.00    +0.000 OA
ATOM     28  N   UNL     1       2.023   3.658  18.811  0.00  0.00    +0.000 N 
ATOM     29  C   UNL     1       1.224   4.151  19.944  0.00  0.00    +0.000 C 
ATOM     30  C   UNL     1       2.019   5.163  20.810  0.00  0.00    +0.000 C 
ATOM     31  N   UNL     1       2.635   6.232  19.974  0.00  0.00    +0.000 N 
ATOM     32  C   UNL     1       3.431   5.688  18.848  0.00  0.00    +0.000 C 
ATOM     33  C   UNL     1       2.594   4.726  17.983  0.00  0.00    +0.000 C 
ENDBRANCH  18  31
ENDBRANCH   1  21
TORSDOF 4
ENDMDL
MODEL 9
REMARK VINA RESULT:      -8.4      4.980     10.976
REMARK  Name = 
REMARK  6 active torsions:
REMARK  status: ('A' for Active; 'I' for Inactive)
REMARK    1  A    between atoms: C_1  and  C_2
REMARK    2  A    between atoms: N_7  and  C_8
REMARK    3  A    between atoms: C_11  and  C_12
REMARK    4  A    between atoms: C_12  and  N_13
REMARK    5  A    between atoms: C_14  and  C_15
REMARK    6  A    between atoms: C_18  and  C_19
REMARK                            x       y       z     vdW  Elec       q    Type
REMARK                         _______ _______ _______ _____ _____    ______ ____
ROOT
ATOM      1  C   UNL     1       0.041  11.340  19.494  0.00  0.00    +0.000 C 
ENDROOT
BRANCH   1   2
ATOM      2  N   UNL     1       0.161  12.558  20.324  0.00  0.00    +0.000 NA
ATOM      3  C   UNL     1       0.819  13.806  19.889  0.00  0.00    +0.000 C 
ATOM      4  C   UNL     1       1.875  13.587  18.809  0.00  0.00    +0.000 C 
ATOM      5  C   UNL     1      -0.219  14.881  19.507  0.00  0.00    +0.000 C 
ATOM      6  C   UNL     1      -1.465  15.024  20.411  0.00  0.00    +0.000 C 
ATOM      7  C   UNL     1      -2.076  13.715  20.937  0.00  0.00    +0.000 C 
ATOM      8  S   UNL     1      -0.813  12.720  21.701  0.00  0.00    +0.000 S 
ATOM      9  O   UNL     1      -1.336  11.419  22.069  0.00  0.00    +0.000 OA
ATOM     10  O   UNL     1      -0.087  13.536  22.666  0.00  0.00    +0.000 OA
BRANCH   7  11
ATOM     11  C   UNL     1      -3.238  13.896  21.896  0.00  0.00    +0.000 A 
ATOM     12  C   UNL     1      -4.362  13.054  21.900  0.00  0.00    +0.000 A 
ATOM     13  C   UNL     1      -5.386  13.237  22.835  0.00  0.00    +0.000 A 
ATOM     14  C   UNL     1      -5.304  14.264  23.775  0.00  0.00    +0.000 A 
ATOM     15  C   UNL     1      -4.207  15.119  23.764  0.00  0.00    +0.000 A 
ATOM     16 CL   UNL     1      -4.099  16.391  24.917  0.00  0.00    +0.000 Cl
ATOM     17  C   UNL     1      -3.185  14.945  22.831  0.00  0.00    +0.000 A 
ENDBRANCH   7  11
ENDBRANCH   1   2
BRANCH   1  21
ATOM     18  C   UNL     1       2.004   7.408  19.969  0.00  0.00    +0.000 A 
ATOM     19  C   UNL     1       1.369   8.024  21.060  0.00  0.00    +0.000 A 
ATOM     20  C   UNL     1       0.768   9.309  20.974  0.00  0.00    +0.000 A 
ATOM     21  C   UNL     1       0.791  10.051  19.792  0.00  0.00    +0.000 A 
ATOM     22  C   UNL     1       1.433   9.430  18.714  0.00  0.00    +0.000 A 
ATOM     23  F   UNL     1       1.456  10.036  17.520  0.00  0.00    +0.000 F 
ATOM     24  C   UNL     1       2.027   8.165  18.796  0.00  0.00    +0.000 A 
BRANCH  18  31
ATOM     25  C   UNL     1       3.458   1.896  17.583  0.00  0.00    +0.000 C 
ATOM     26  C   UNL     1       2.439   2.276  18.630  0.00  0.00    +0.000 C 
ATOM     27  O   UNL     1       1.923   1.404  19.329  0.00  0.00    +0.000 OA
ATOM     28  N   UNL     1       2.144   3.619  18.777  0.00  0.00    +0.000 N 
ATOM     29  C   UNL     1       1.241   4.064  19.851  0.00  0.00    +0.000 C 
ATOM     30  C   UNL     1       1.940   5.057  20.815  0.00  0.00    +0.000 C 
ATOM     31  N   UNL     1       2.610   6.161  20.071  0.00  0.00    +0.000 N 
ATOM     32  C   UNL     1       3.511   5.665  19.003  0.00  0.00    +0.000 C 
ATOM     33  C   UNL     1       2.769   4.721  18.038  0.00  0.00    +0.000 C 
ENDBRANCH  18  31
ENDBRANCH   1  21
TORSDOF 4
ENDMDL
