MODEL 1
REMARK VINA RESULT:      -7.0      0.000      0.000
REMARK  Name = 
REMARK  8 active torsions:
REMARK  status: ('A' for Active; 'I' for Inactive)
REMARK    1  A    between atoms: C_1  and  C_2
REMARK    2  A    between atoms: C_2  and  C_3
REMARK    3  A    between atoms: C_3  and  C_5
REMARK    4  A    between atoms: C_6  and  C_7
REMARK    5  A    between atoms: C_11  and  N_12
REMARK    6  A    between atoms: C_17  and  C_19
REMARK    7  A    between atoms: C_19  and  C_20
REMARK    8  A    between atoms: C_25  and  C_26
REMARK                            x       y       z     vdW  Elec       q    Type
REMARK                         _______ _______ _______ _____ _____    ______ ____
ROOT
ATOM      1  C   UNL     1      -3.873  11.331  17.989  0.00  0.00    +0.000 C 
ATOM      2  C   UNL     1      -3.137  11.908  18.979  0.00  0.00    +0.000 C 
ATOM      3  N   UNL     1      -3.715  12.701  20.023  0.00  0.00    +0.000 N 
ATOM      4  C   UNL     1      -2.976  13.495  20.875  0.00  0.00    +0.000 C 
ATOM      5  O   UNL     1      -3.036  14.729  20.838  0.00  0.00    +0.000 OA
ATOM      6  N   UNL     1      -5.113  12.919  20.081  0.00  0.00    +0.000 N 
ATOM      7  C   UNL     1      -5.991  12.384  19.177  0.00  0.00    +0.000 A 
ATOM      8  N   UNL     1      -7.224  12.515  19.591  0.00  0.00    +0.000 NA
ATOM      9  N   UNL     1      -7.186  13.148  20.796  0.00  0.00    +0.000 NA
ATOM     10  C   UNL     1      -5.926  13.392  21.125  0.00  0.00    +0.000 A 
ATOM     11  S   UNL     1      -5.561  11.610  17.719  0.00  0.00    +0.000 S 
ENDROOT
BRANCH   2  12
ATOM     12  C   UNL     1      -1.635  11.712  18.993  0.00  0.00    +0.000 A 
ATOM     13  C   UNL     1      -1.062  10.588  19.623  0.00  0.00    +0.000 A 
ATOM     14  C   UNL     1       0.322  10.450  19.775  0.00  0.00    +0.000 A 
ATOM     15  C   UNL     1       1.171  11.475  19.373  0.00  0.00    +0.000 A 
ATOM     16  C   UNL     1       0.627  12.600  18.746  0.00  0.00    +0.000 A 
ATOM     17  C   UNL     1      -0.754  12.687  18.483  0.00  0.00    +0.000 A 
BRANCH  16  18
ATOM     18  N   UNL     1       1.491  13.768  18.503  0.00  0.00    +0.000 N 
ATOM     19  O   UNL     1       1.008  14.892  18.702  0.00  0.00    +0.000 OA
ATOM     20  O   UNL     1       2.626  13.559  18.059  0.00  0.00    +0.000 OA
ENDBRANCH  16  18
ENDBRANCH   2  12
BRANCH  10  21
ATOM     21  C   UNL     1      -5.563  14.075  22.426  0.00  0.00    +0.000 C 
ATOM     22  C   UNL     1      -6.460  15.289  22.731  0.00  0.00    +0.000 C 
ATOM     23  C   UNL     1      -7.862  14.941  23.233  0.00  0.00    +0.000 C 
ATOM     24  C   UNL     1      -7.884  13.906  24.354  0.00  0.00    +0.000 C 
ATOM     25  C   UNL     1      -6.959  12.716  24.125  0.00  0.00    +0.000 C 
ATOM     26  C   UNL     1      -5.570  13.110  23.625  0.00  0.00    +0.000 C 
ENDBRANCH  10  21
BRANCH   1  27
ATOM     27  C   UNL     1      -3.299  10.421  16.921  0.00  0.00    +0.000 C 
ATOM     28  O   UNL     1      -3.109   9.221  17.145  0.00  0.00    +0.000 OA
BRANCH  27  30
ATOM     29  C   UNL     1      -3.287  10.135  14.389  0.00  0.00    +0.000 C 
ATOM     30  C   UNL     1      -2.946  11.038  15.560  0.00  0.00    +0.000 C 
ENDBRANCH  27  30
ENDBRANCH   1  27
BRANCH   4  31
ATOM     31  C   UNL     1      -2.117  12.801  21.937  0.00  0.00    +0.000 C 
ATOM     32  C   UNL     1      -0.756  13.418  22.211  0.00  0.00    +0.000 C 
ENDBRANCH   4  31
TORSDOF 6
ENDMDL
MODEL 2
REMARK VINA RESULT:      -7.0      1.579      1.950
REMARK  Name = 
REMARK  8 active torsions:
REMARK  status: ('A' for Active; 'I' for Inactive)
REMARK    1  A    between atoms: C_1  and  C_2
REMARK    2  A    between atoms: C_2  and  C_3
REMARK    3  A    between atoms: C_3  and  C_5
REMARK    4  A    between atoms: C_6  and  C_7
REMARK    5  A    between atoms: C_11  and  N_12
REMARK    6  A    between atoms: C_17  and  C_19
REMARK    7  A    between atoms: C_19  and  C_20
REMARK    8  A    between atoms: C_25  and  C_26
REMARK                            x       y       z     vdW  Elec       q    Type
REMARK                         _______ _______ _______ _____ _____    ______ ____
ROOT
ATOM      1  C   UNL     1      -3.586  11.252  18.104  0.00  0.00    +0.000 C 
ATOM      2  C   UNL     1      -2.880  11.895  19.075  0.00  0.00    +0.000 C 
ATOM      3  N   UNL     1      -3.501  12.608  20.152  0.00  0.00    +0.000 N 
ATOM      4  C   UNL     1      -2.820  13.468  20.989  0.00  0.00    +0.000 C 
ATOM      5  O   UNL     1      -3.016  14.689  20.973  0.00  0.00    +0.000 OA
ATOM      6  N   UNL     1      -4.911  12.672  20.264  0.00  0.00    +0.000 N 
ATOM      7  C   UNL     1      -5.759  12.054  19.384  0.00  0.00    +0.000 A 
ATOM      8  N   UNL     1      -6.983  12.045  19.845  0.00  0.00    +0.000 NA
ATOM      9  N   UNL     1      -6.968  12.665  21.057  0.00  0.00    +0.000 NA
ATOM     10  C   UNL     1      -5.731  13.041  21.344  0.00  0.00    +0.000 A 
ATOM     11  S   UNL     1      -5.303  11.348  17.900  0.00  0.00    +0.000 S 
ENDROOT
BRANCH   2  12
ATOM     12  C   UNL     1      -1.366  11.863  19.032  0.00  0.00    +0.000 A 
ATOM     13  C   UNL     1      -0.637  12.948  18.506  0.00  0.00    +0.000 A 
ATOM     14  C   UNL     1       0.749  12.891  18.323  0.00  0.00    +0.000 A 
ATOM     15  C   UNL     1       1.436  11.713  18.589  0.00  0.00    +0.000 A 
ATOM     16  C   UNL     1       0.737  10.621  19.112  0.00  0.00    +0.000 A 
ATOM     17  C   UNL     1      -0.637  10.716  19.409  0.00  0.00    +0.000 A 
BRANCH  16  18
ATOM     18  N   UNL     1       1.414   9.317  19.204  0.00  0.00    +0.000 N 
ATOM     19  O   UNL     1       1.975   8.887  18.186  0.00  0.00    +0.000 OA
ATOM     20  O   UNL     1       1.333   8.703  20.275  0.00  0.00    +0.000 OA
ENDBRANCH  16  18
ENDBRANCH   2  12
BRANCH  10  21
ATOM     21  C   UNL     1      -5.395  13.745  22.642  0.00  0.00    +0.000 C 
ATOM     22  C   UNL     1      -6.054  15.132  22.753  0.00  0.00    +0.000 C 
ATOM     23  C   UNL     1      -7.547  15.110  23.079  0.00  0.00    +0.000 C 
ATOM     24  C   UNL     1      -7.917  14.195  24.244  0.00  0.00    +0.000 C 
ATOM     25  C   UNL     1      -7.236  12.832  24.210  0.00  0.00    +0.000 C 
ATOM     26  C   UNL     1      -5.746  12.902  23.881  0.00  0.00    +0.000 C 
ENDBRANCH  10  21
BRANCH   1  27
ATOM     27  C   UNL     1      -2.957  10.423  17.002  0.00  0.00    +0.000 C 
ATOM     28  O   UNL     1      -2.557   9.275  17.222  0.00  0.00    +0.000 OA
BRANCH  27  30
ATOM     29  C   UNL     1      -3.040  10.068  14.480  0.00  0.00    +0.000 C 
ATOM     30  C   UNL     1      -2.818  11.056  15.610  0.00  0.00    +0.000 C 
ENDBRANCH  27  30
ENDBRANCH   1  27
BRANCH   4  31
ATOM     31  C   UNL     1      -1.852  12.860  22.008  0.00  0.00    +0.000 C 
ATOM     32  C   UNL     1      -2.434  11.823  22.954  0.00  0.00    +0.000 C 
ENDBRANCH   4  31
TORSDOF 6
ENDMDL
MODEL 3
REMARK VINA RESULT:      -6.3      1.773      2.234
REMARK  Name = 
REMARK  8 active torsions:
REMARK  status: ('A' for Active; 'I' for Inactive)
REMARK    1  A    between atoms: C_1  and  C_2
REMARK    2  A    between atoms: C_2  and  C_3
REMARK    3  A    between atoms: C_3  and  C_5
REMARK    4  A    between atoms: C_6  and  C_7
REMARK    5  A    between atoms: C_11  and  N_12
REMARK    6  A    between atoms: C_17  and  C_19
REMARK    7  A    between atoms: C_19  and  C_20
REMARK    8  A    between atoms: C_25  and  C_26
REMARK                            x       y       z     vdW  Elec       q    Type
REMARK                         _______ _______ _______ _____ _____    ______ ____
ROOT
ATOM      1  C   UNL     1      -3.810  11.479  18.314  0.00  0.00    +0.000 C 
ATOM      2  C   UNL     1      -3.072  12.118  19.263  0.00  0.00    +0.000 C 
ATOM      3  N   UNL     1      -3.632  13.057  20.189  0.00  0.00    +0.000 N 
ATOM      4  C   UNL     1      -2.871  13.895  20.979  0.00  0.00    +0.000 C 
ATOM      5  O   UNL     1      -2.849  15.119  20.803  0.00  0.00    +0.000 OA
ATOM      6  N   UNL     1      -5.013  13.367  20.164  0.00  0.00    +0.000 N 
ATOM      7  C   UNL     1      -5.893  12.789  19.289  0.00  0.00    +0.000 A 
ATOM      8  N   UNL     1      -7.129  13.041  19.635  0.00  0.00    +0.000 NA
ATOM      9  N   UNL     1      -7.090  13.802  20.763  0.00  0.00    +0.000 NA
ATOM     10  C   UNL     1      -5.829  14.004  21.115  0.00  0.00    +0.000 A 
ATOM     11  S   UNL     1      -5.466  11.830  17.944  0.00  0.00    +0.000 S 
ENDROOT
BRANCH   2  12
ATOM     12  C   UNL     1      -1.587  11.831  19.362  0.00  0.00    +0.000 A 
ATOM     13  C   UNL     1      -0.656  12.604  18.640  0.00  0.00    +0.000 A 
ATOM     14  C   UNL     1       0.704  12.277  18.600  0.00  0.00    +0.000 A 
ATOM     15  C   UNL     1       1.158  11.117  19.217  0.00  0.00    +0.000 A 
ATOM     16  C   UNL     1       0.254  10.333  19.939  0.00  0.00    +0.000 A 
ATOM     17  C   UNL     1      -1.092  10.725  20.081  0.00  0.00    +0.000 A 
BRANCH  16  18
ATOM     18  N   UNL     1       0.682   9.009  20.420  0.00  0.00    +0.000 N 
ATOM     19  O   UNL     1       0.043   8.501  21.353  0.00  0.00    +0.000 OA
ATOM     20  O   UNL     1       1.689   8.509  19.904  0.00  0.00    +0.000 OA
ENDBRANCH  16  18
ENDBRANCH   2  12
BRANCH  10  21
ATOM     21  C   UNL     1      -5.466  14.805  22.347  0.00  0.00    +0.000 C 
ATOM     22  C   UNL     1      -5.680  16.318  22.157  0.00  0.00    +0.000 C 
ATOM     23  C   UNL     1      -7.139  16.773  22.214  0.00  0.00    +0.000 C 
ATOM     24  C   UNL     1      -7.917  16.221  23.405  0.00  0.00    +0.000 C 
ATOM     25  C   UNL     1      -7.684  14.739  23.672  0.00  0.00    +0.000 C 
ATOM     26  C   UNL     1      -6.214  14.330  23.606  0.00  0.00    +0.000 C 
ENDBRANCH  10  21
BRANCH   1  27
ATOM     27  C   UNL     1      -3.261  10.421  17.377  0.00  0.00    +0.000 C 
ATOM     28  O   UNL     1      -3.284   9.226  17.688  0.00  0.00    +0.000 OA
BRANCH  27  30
ATOM     29  C   UNL     1      -3.419  10.351  14.834  0.00  0.00    +0.000 C 
ATOM     30  C   UNL     1      -2.663  10.880  16.039  0.00  0.00    +0.000 C 
ENDBRANCH  27  30
ENDBRANCH   1  27
BRANCH   4  31
ATOM     31  C   UNL     1      -2.097  13.273  22.145  0.00  0.00    +0.000 C 
ATOM     32  C   UNL     1      -2.866  12.295  23.018  0.00  0.00    +0.000 C 
ENDBRANCH   4  31
TORSDOF 6
ENDMDL
MODEL 4
REMARK VINA RESULT:      -5.9      9.236     11.807
REMARK  Name = 
REMARK  8 active torsions:
REMARK  status: ('A' for Active; 'I' for Inactive)
REMARK    1  A    between atoms: C_1  and  C_2
REMARK    2  A    between atoms: C_2  and  C_3
REMARK    3  A    between atoms: C_3  and  C_5
REMARK    4  A    between atoms: C_6  and  C_7
REMARK    5  A    between atoms: C_11  and  N_12
REMARK    6  A    between atoms: C_17  and  C_19
REMARK    7  A    between atoms: C_19  and  C_20
REMARK    8  A    between atoms: C_25  and  C_26
REMARK                            x       y       z     vdW  Elec       q    Type
REMARK                         _______ _______ _______ _____ _____    ______ ____
ROOT
ATOM      1  C   UNL     1       6.025  15.639  20.264  0.00  0.00    +0.000 C 
ATOM      2  C   UNL     1       7.245  15.128  20.591  0.00  0.00    +0.000 C 
ATOM      3  N   UNL     1       7.538  14.565  21.875  0.00  0.00    +0.000 N 
ATOM      4  C   UNL     1       8.817  14.280  22.308  0.00  0.00    +0.000 C 
ATOM      5  O   UNL     1       9.355  14.915  23.222  0.00  0.00    +0.000 OA
ATOM      6  N   UNL     1       6.548  14.504  22.885  0.00  0.00    +0.000 N 
ATOM      7  C   UNL     1       5.266  14.949  22.704  0.00  0.00    +0.000 A 
ATOM      8  N   UNL     1       4.491  14.550  23.679  0.00  0.00    +0.000 NA
ATOM      9  N   UNL     1       5.257  13.821  24.537  0.00  0.00    +0.000 NA
ATOM     10  C   UNL     1       6.498  13.763  24.079  0.00  0.00    +0.000 A 
ATOM     11  S   UNL     1       4.716  15.868  21.376  0.00  0.00    +0.000 S 
ENDROOT
BRANCH   2  12
ATOM     12  C   UNL     1       8.354  15.146  19.559  0.00  0.00    +0.000 A 
ATOM     13  C   UNL     1       8.534  14.062  18.677  0.00  0.00    +0.000 A 
ATOM     14  C   UNL     1       9.630  13.986  17.811  0.00  0.00    +0.000 A 
ATOM     15  C   UNL     1      10.624  14.956  17.861  0.00  0.00    +0.000 A 
ATOM     16  C   UNL     1      10.469  16.042  18.729  0.00  0.00    +0.000 A 
ATOM     17  C   UNL     1       9.308  16.183  19.514  0.00  0.00    +0.000 A 
BRANCH  16  18
ATOM     18  N   UNL     1      11.603  16.959  18.933  0.00  0.00    +0.000 N 
ATOM     19  O   UNL     1      12.000  17.609  17.955  0.00  0.00    +0.000 OA
ATOM     20  O   UNL     1      12.127  16.984  20.052  0.00  0.00    +0.000 OA
ENDBRANCH  16  18
ENDBRANCH   2  12
BRANCH  10  21
ATOM     21  C   UNL     1       7.582  13.003  24.814  0.00  0.00    +0.000 C 
ATOM     22  C   UNL     1       7.887  13.596  26.201  0.00  0.00    +0.000 C 
ATOM     23  C   UNL     1       6.848  13.280  27.278  0.00  0.00    +0.000 C 
ATOM     24  C   UNL     1       6.453  11.808  27.349  0.00  0.00    +0.000 C 
ATOM     25  C   UNL     1       6.204  11.160  25.993  0.00  0.00    +0.000 C 
ATOM     26  C   UNL     1       7.266  11.502  24.949  0.00  0.00    +0.000 C 
ENDBRANCH  10  21
BRANCH   1  27
ATOM     27  C   UNL     1       5.663  16.165  18.889  0.00  0.00    +0.000 C 
ATOM     28  O   UNL     1       5.821  17.357  18.605  0.00  0.00    +0.000 OA
BRANCH  27  30
ATOM     29  C   UNL     1       3.589  15.353  17.651  0.00  0.00    +0.000 C 
ATOM     30  C   UNL     1       5.081  15.179  17.867  0.00  0.00    +0.000 C 
ENDBRANCH  27  30
ENDBRANCH   1  27
BRANCH   4  31
ATOM     31  C   UNL     1       9.541  13.091  21.669  0.00  0.00    +0.000 C 
ATOM     32  C   UNL     1       8.768  11.785  21.609  0.00  0.00    +0.000 C 
ENDBRANCH   4  31
TORSDOF 6
ENDMDL
MODEL 5
REMARK VINA RESULT:      -5.8      2.624      6.857
REMARK  Name = 
REMARK  8 active torsions:
REMARK  status: ('A' for Active; 'I' for Inactive)
REMARK    1  A    between atoms: C_1  and  C_2
REMARK    2  A    between atoms: C_2  and  C_3
REMARK    3  A    between atoms: C_3  and  C_5
REMARK    4  A    between atoms: C_6  and  C_7
REMARK    5  A    between atoms: C_11  and  N_12
REMARK    6  A    between atoms: C_17  and  C_19
REMARK    7  A    between atoms: C_19  and  C_20
REMARK    8  A    between atoms: C_25  and  C_26
REMARK                            x       y       z     vdW  Elec       q    Type
REMARK                         _______ _______ _______ _____ _____    ______ ____
ROOT
ATOM      1  C   UNL     1      -4.751  11.773  18.639  0.00  0.00    +0.000 C 
ATOM      2  C   UNL     1      -4.518  12.521  19.753  0.00  0.00    +0.000 C 
ATOM      3  N   UNL     1      -3.202  12.815  20.237  0.00  0.00    +0.000 N 
ATOM      4  C   UNL     1      -2.950  13.346  21.486  0.00  0.00    +0.000 C 
ATOM      5  O   UNL     1      -2.390  12.693  22.374  0.00  0.00    +0.000 OA
ATOM      6  N   UNL     1      -2.055  12.336  19.559  0.00  0.00    +0.000 N 
ATOM      7  C   UNL     1      -2.120  11.595  18.411  0.00  0.00    +0.000 A 
ATOM      8  N   UNL     1      -0.943  11.500  17.848  0.00  0.00    +0.000 NA
ATOM      9  N   UNL     1      -0.063  12.189  18.626  0.00  0.00    +0.000 NA
ATOM     10  C   UNL     1      -0.705  12.716  19.658  0.00  0.00    +0.000 A 
ATOM     11  S   UNL     1      -3.537  10.909  17.755  0.00  0.00    +0.000 S 
ENDROOT
BRANCH   2  12
ATOM     12  C   UNL     1      -5.694  13.079  20.528  0.00  0.00    +0.000 A 
ATOM     13  C   UNL     1      -6.212  14.355  20.229  0.00  0.00    +0.000 A 
ATOM     14  C   UNL     1      -7.203  14.956  21.015  0.00  0.00    +0.000 A 
ATOM     15  C   UNL     1      -7.646  14.327  22.173  0.00  0.00    +0.000 A 
ATOM     16  C   UNL     1      -7.148  13.060  22.491  0.00  0.00    +0.000 A 
ATOM     17  C   UNL     1      -6.240  12.402  21.637  0.00  0.00    +0.000 A 
BRANCH  16  18
ATOM     18  N   UNL     1      -7.458  12.482  23.809  0.00  0.00    +0.000 N 
ATOM     19  O   UNL     1      -7.299  11.261  23.954  0.00  0.00    +0.000 OA
ATOM     20  O   UNL     1      -7.915  13.238  24.675  0.00  0.00    +0.000 OA
ENDBRANCH  16  18
ENDBRANCH   2  12
BRANCH  10  21
ATOM     21  C   UNL     1       0.011  13.556  20.694  0.00  0.00    +0.000 C 
ATOM     22  C   UNL     1       1.373  12.966  21.100  0.00  0.00    +0.000 C 
ATOM     23  C   UNL     1       2.491  13.165  20.076  0.00  0.00    +0.000 C 
ATOM     24  C   UNL     1       2.609  14.594  19.554  0.00  0.00    +0.000 C 
ATOM     25  C   UNL     1       1.277  15.244  19.200  0.00  0.00    +0.000 C 
ATOM     26  C   UNL     1       0.190  15.019  20.250  0.00  0.00    +0.000 C 
ENDBRANCH  10  21
BRANCH   1  27
ATOM     27  C   UNL     1      -6.127  11.515  18.059  0.00  0.00    +0.000 C 
ATOM     28  O   UNL     1      -6.799  10.546  18.427  0.00  0.00    +0.000 OA
BRANCH  27  30
ATOM     29  C   UNL     1      -7.847  13.298  17.459  0.00  0.00    +0.000 C 
ATOM     30  C   UNL     1      -6.655  12.484  16.991  0.00  0.00    +0.000 C 
ENDBRANCH  27  30
ENDBRANCH   1  27
BRANCH   4  31
ATOM     31  C   UNL     1      -3.319  14.812  21.729  0.00  0.00    +0.000 C 
ATOM     32  C   UNL     1      -2.971  15.787  20.617  0.00  0.00    +0.000 C 
ENDBRANCH   4  31
TORSDOF 6
ENDMDL
MODEL 6
REMARK VINA RESULT:      -5.6     11.589     13.143
REMARK  Name = 
REMARK  8 active torsions:
REMARK  status: ('A' for Active; 'I' for Inactive)
REMARK    1  A    between atoms: C_1  and  C_2
REMARK    2  A    between atoms: C_2  and  C_3
REMARK    3  A    between atoms: C_3  and  C_5
REMARK    4  A    between atoms: C_6  and  C_7
REMARK    5  A    between atoms: C_11  and  N_12
REMARK    6  A    between atoms: C_17  and  C_19
REMARK    7  A    between atoms: C_19  and  C_20
REMARK    8  A    between atoms: C_25  and  C_26
REMARK                            x       y       z     vdW  Elec       q    Type
REMARK                         _______ _______ _______ _____ _____    ______ ____
ROOT
ATOM      1  C   UNL     1      10.041  12.546  20.490  0.00  0.00    +0.000 C 
ATOM      2  C   UNL     1       9.781  13.830  20.863  0.00  0.00    +0.000 C 
ATOM      3  N   UNL     1       8.904  14.167  21.946  0.00  0.00    +0.000 N 
ATOM      4  C   UNL     1       8.432  15.443  22.175  0.00  0.00    +0.000 C 
ATOM      5  O   UNL     1       7.242  15.739  22.020  0.00  0.00    +0.000 OA
ATOM      6  N   UNL     1       8.260  13.157  22.701  0.00  0.00    +0.000 N 
ATOM      7  C   UNL     1       8.440  11.821  22.468  0.00  0.00    +0.000 A 
ATOM      8  N   UNL     1       7.950  11.106  23.448  0.00  0.00    +0.000 NA
ATOM      9  N   UNL     1       7.428  11.971  24.362  0.00  0.00    +0.000 NA
ATOM     10  C   UNL     1       7.612  13.215  23.947  0.00  0.00    +0.000 A 
ATOM     11  S   UNL     1       9.229  11.149  21.113  0.00  0.00    +0.000 S 
ENDROOT
BRANCH   2  12
ATOM     12  C   UNL     1      10.442  14.967  20.112  0.00  0.00    +0.000 A 
ATOM     13  C   UNL     1      11.749  15.381  20.437  0.00  0.00    +0.000 A 
ATOM     14  C   UNL     1      12.333  16.514  19.860  0.00  0.00    +0.000 A 
ATOM     15  C   UNL     1      11.591  17.314  18.998  0.00  0.00    +0.000 A 
ATOM     16  C   UNL     1      10.291  16.926  18.660  0.00  0.00    +0.000 A 
ATOM     17  C   UNL     1       9.746  15.722  19.146  0.00  0.00    +0.000 A 
BRANCH  16  18
ATOM     18  N   UNL     1       9.437  17.866  17.915  0.00  0.00    +0.000 N 
ATOM     19  O   UNL     1       8.213  17.795  18.093  0.00  0.00    +0.000 OA
ATOM     20  O   UNL     1       9.988  18.631  17.114  0.00  0.00    +0.000 OA
ENDBRANCH  16  18
ENDBRANCH   2  12
BRANCH  10  21
ATOM     21  C   UNL     1       7.151  14.402  24.765  0.00  0.00    +0.000 C 
ATOM     22  C   UNL     1       5.732  14.218  25.333  0.00  0.00    +0.000 C 
ATOM     23  C   UNL     1       5.637  13.274  26.532  0.00  0.00    +0.000 C 
ATOM     24  C   UNL     1       6.668  13.549  27.623  0.00  0.00    +0.000 C 
ATOM     25  C   UNL     1       8.077  13.803  27.103  0.00  0.00    +0.000 C 
ATOM     26  C   UNL     1       8.125  14.751  25.905  0.00  0.00    +0.000 C 
ENDBRANCH  10  21
BRANCH   1  27
ATOM     27  C   UNL     1      11.025  12.159  19.404  0.00  0.00    +0.000 C 
ATOM     28  O   UNL     1      12.211  11.939  19.672  0.00  0.00    +0.000 OA
BRANCH  27  30
ATOM     29  C   UNL     1      11.229  12.998  17.007  0.00  0.00    +0.000 C 
ATOM     30  C   UNL     1      10.510  12.064  17.961  0.00  0.00    +0.000 C 
ENDBRANCH  27  30
ENDBRANCH   1  27
BRANCH   4  31
ATOM     31  C   UNL     1       9.418  16.488  22.705  0.00  0.00    +0.000 C 
ATOM     32  C   UNL     1       9.284  17.891  22.137  0.00  0.00    +0.000 C 
ENDBRANCH   4  31
TORSDOF 6
ENDMDL
MODEL 7
REMARK VINA RESULT:      -5.6      2.936      6.881
REMARK  Name = 
REMARK  8 active torsions:
REMARK  status: ('A' for Active; 'I' for Inactive)
REMARK    1  A    between atoms: C_1  and  C_2
REMARK    2  A    between atoms: C_2  and  C_3
REMARK    3  A    between atoms: C_3  and  C_5
REMARK    4  A    between atoms: C_6  and  C_7
REMARK    5  A    between atoms: C_11  and  N_12
REMARK    6  A    between atoms: C_17  and  C_19
REMARK    7  A    between atoms: C_19  and  C_20
REMARK    8  A    between atoms: C_25  and  C_26
REMARK                            x       y       z     vdW  Elec       q    Type
REMARK                         _______ _______ _______ _____ _____    ______ ____
ROOT
ATOM      1  C   UNL     1      -4.543  12.148  19.162  0.00  0.00    +0.000 C 
ATOM      2  C   UNL     1      -3.536  12.500  20.009  0.00  0.00    +0.000 C 
ATOM      3  N   UNL     1      -2.224  11.927  19.945  0.00  0.00    +0.000 N 
ATOM      4  C   UNL     1      -1.278  12.077  20.938  0.00  0.00    +0.000 C 
ATOM      5  O   UNL     1      -0.914  11.130  21.645  0.00  0.00    +0.000 OA
ATOM      6  N   UNL     1      -1.904  10.950  18.971  0.00  0.00    +0.000 N 
ATOM      7  C   UNL     1      -2.797  10.512  18.031  0.00  0.00    +0.000 A 
ATOM      8  N   UNL     1      -2.193   9.816  17.102  0.00  0.00    +0.000 NA
ATOM      9  N   UNL     1      -0.868   9.783  17.414  0.00  0.00    +0.000 NA
ATOM     10  C   UNL     1      -0.660  10.469  18.527  0.00  0.00    +0.000 A 
ATOM     11  S   UNL     1      -4.470  10.844  18.024  0.00  0.00    +0.000 S 
ENDROOT
BRANCH   2  12
ATOM     12  C   UNL     1      -3.796  13.547  21.072  0.00  0.00    +0.000 A 
ATOM     13  C   UNL     1      -3.783  14.919  20.750  0.00  0.00    +0.000 A 
ATOM     14  C   UNL     1      -3.880  15.912  21.731  0.00  0.00    +0.000 A 
ATOM     15  C   UNL     1      -3.911  15.558  23.075  0.00  0.00    +0.000 A 
ATOM     16  C   UNL     1      -3.924  14.204  23.422  0.00  0.00    +0.000 A 
ATOM     17  C   UNL     1      -3.949  13.203  22.430  0.00  0.00    +0.000 A 
BRANCH  16  18
ATOM     18  N   UNL     1      -3.754  13.827  24.835  0.00  0.00    +0.000 N 
ATOM     19  O   UNL     1      -3.137  14.612  25.569  0.00  0.00    +0.000 OA
ATOM     20  O   UNL     1      -4.187  12.724  25.191  0.00  0.00    +0.000 OA
ENDBRANCH  16  18
ENDBRANCH   2  12
BRANCH  10  21
ATOM     21  C   UNL     1       0.726  10.625  19.118  0.00  0.00    +0.000 C 
ATOM     22  C   UNL     1       0.972   9.685  20.312  0.00  0.00    +0.000 C 
ATOM     23  C   UNL     1       1.228   8.225  19.938  0.00  0.00    +0.000 C 
ATOM     24  C   UNL     1       2.258   8.037  18.828  0.00  0.00    +0.000 C 
ATOM     25  C   UNL     1       2.093   8.992  17.652  0.00  0.00    +0.000 C 
ATOM     26  C   UNL     1       1.840  10.439  18.072  0.00  0.00    +0.000 C 
ENDBRANCH  10  21
BRANCH   1  27
ATOM     27  C   UNL     1      -5.913  12.796  19.153  0.00  0.00    +0.000 C 
ATOM     28  O   UNL     1      -6.119  13.835  18.518  0.00  0.00    +0.000 OA
BRANCH  27  30
ATOM     29  C   UNL     1      -7.421  12.922  21.204  0.00  0.00    +0.000 C 
ATOM     30  C   UNL     1      -7.032  12.132  19.968  0.00  0.00    +0.000 C 
ENDBRANCH  27  30
ENDBRANCH   1  27
BRANCH   4  31
ATOM     31  C   UNL     1      -0.622  13.451  21.101  0.00  0.00    +0.000 C 
ATOM     32  C   UNL     1      -0.212  14.158  19.820  0.00  0.00    +0.000 C 
ENDBRANCH   4  31
TORSDOF 6
ENDMDL
MODEL 8
REMARK VINA RESULT:      -5.6      9.463     11.782
REMARK  Name = 
REMARK  8 active torsions:
REMARK  status: ('A' for Active; 'I' for Inactive)
REMARK    1  A    between atoms: C_1  and  C_2
REMARK    2  A    between atoms: C_2  and  C_3
REMARK    3  A    between atoms: C_3  and  C_5
REMARK    4  A    between atoms: C_6  and  C_7
REMARK    5  A    between atoms: C_11  and  N_12
REMARK    6  A    between atoms: C_17  and  C_19
REMARK    7  A    between atoms: C_19  and  C_20
REMARK    8  A    between atoms: C_25  and  C_26
REMARK                            x       y       z     vdW  Elec       q    Type
REMARK                         _______ _______ _______ _____ _____    ______ ____
ROOT
ATOM      1  C   UNL     1       6.252  15.749  20.334  0.00  0.00    +0.000 C 
ATOM      2  C   UNL     1       7.456  15.283  20.770  0.00  0.00    +0.000 C 
ATOM      3  N   UNL     1       7.647  14.704  22.067  0.00  0.00    +0.000 N 
ATOM      4  C   UNL     1       8.889  14.464  22.618  0.00  0.00    +0.000 C 
ATOM      5  O   UNL     1       9.307  15.101  23.592  0.00  0.00    +0.000 OA
ATOM      6  N   UNL     1       6.567  14.580  22.974  0.00  0.00    +0.000 N 
ATOM      7  C   UNL     1       5.291  14.975  22.675  0.00  0.00    +0.000 A 
ATOM      8  N   UNL     1       4.443  14.523  23.562  0.00  0.00    +0.000 NA
ATOM      9  N   UNL     1       5.152  13.808  24.478  0.00  0.00    +0.000 NA
ATOM     10  C   UNL     1       6.434  13.812  24.144  0.00  0.00    +0.000 A 
ATOM     11  S   UNL     1       4.833  15.898  21.316  0.00  0.00    +0.000 S 
ENDROOT
BRANCH   2  12
ATOM     12  C   UNL     1       8.658  15.370  19.853  0.00  0.00    +0.000 A 
ATOM     13  C   UNL     1       9.251  16.614  19.559  0.00  0.00    +0.000 A 
ATOM     14  C   UNL     1      10.271  16.743  18.609  0.00  0.00    +0.000 A 
ATOM     15  C   UNL     1      10.671  15.639  17.866  0.00  0.00    +0.000 A 
ATOM     16  C   UNL     1      10.098  14.393  18.138  0.00  0.00    +0.000 A 
ATOM     17  C   UNL     1       9.158  14.239  19.177  0.00  0.00    +0.000 A 
BRANCH  16  18
ATOM     18  N   UNL     1      10.368  13.269  17.226  0.00  0.00    +0.000 N 
ATOM     19  O   UNL     1       9.777  12.200  17.440  0.00  0.00    +0.000 OA
ATOM     20  O   UNL     1      11.210  13.440  16.337  0.00  0.00    +0.000 OA
ENDBRANCH  16  18
ENDBRANCH   2  12
BRANCH  10  21
ATOM     21  C   UNL     1       7.473  13.082  24.968  0.00  0.00    +0.000 C 
ATOM     22  C   UNL     1       7.631  13.670  26.382  0.00  0.00    +0.000 C 
ATOM     23  C   UNL     1       6.511  13.307  27.358  0.00  0.00    +0.000 C 
ATOM     24  C   UNL     1       6.163  11.821  27.381  0.00  0.00    +0.000 C 
ATOM     25  C   UNL     1       6.061  11.180  26.003  0.00  0.00    +0.000 C 
ATOM     26  C   UNL     1       7.200  11.570  25.062  0.00  0.00    +0.000 C 
ENDBRANCH  10  21
BRANCH   1  27
ATOM     27  C   UNL     1       6.003  16.290  18.940  0.00  0.00    +0.000 C 
ATOM     28  O   UNL     1       6.081  17.501  18.707  0.00  0.00    +0.000 OA
BRANCH  27  30
ATOM     29  C   UNL     1       4.145  15.226  17.558  0.00  0.00    +0.000 C 
ATOM     30  C   UNL     1       5.636  15.293  17.832  0.00  0.00    +0.000 C 
ENDBRANCH  27  30
ENDBRANCH   1  27
BRANCH   4  31
ATOM     31  C   UNL     1       9.724  13.321  22.033  0.00  0.00    +0.000 C 
ATOM     32  C   UNL     1       9.014  11.989  21.859  0.00  0.00    +0.000 C 
ENDBRANCH   4  31
TORSDOF 6
ENDMDL
MODEL 9
REMARK VINA RESULT:      -5.5      2.837      6.774
REMARK  Name = 
REMARK  8 active torsions:
REMARK  status: ('A' for Active; 'I' for Inactive)
REMARK    1  A    between atoms: C_1  and  C_2
REMARK    2  A    between atoms: C_2  and  C_3
REMARK    3  A    between atoms: C_3  and  C_5
REMARK    4  A    between atoms: C_6  and  C_7
REMARK    5  A    between atoms: C_11  and  N_12
REMARK    6  A    between atoms: C_17  and  C_19
REMARK    7  A    between atoms: C_19  and  C_20
REMARK    8  A    between atoms: C_25  and  C_26
REMARK                            x       y       z     vdW  Elec       q    Type
REMARK                         _______ _______ _______ _____ _____    ______ ____
ROOT
ATOM      1  C   UNL     1      -3.996  11.996  18.819  0.00  0.00    +0.000 C 
ATOM      2  C   UNL     1      -4.117  12.815  19.900  0.00  0.00    +0.000 C 
ATOM      3  N   UNL     1      -2.997  13.445  20.535  0.00  0.00    +0.000 N 
ATOM      4  C   UNL     1      -3.068  14.063  21.767  0.00  0.00    +0.000 C 
ATOM      5  O   UNL     1      -2.504  13.601  22.765  0.00  0.00    +0.000 OA
ATOM      6  N   UNL     1      -1.682  13.246  20.051  0.00  0.00    +0.000 N 
ATOM      7  C   UNL     1      -1.396  12.474  18.958  0.00  0.00    +0.000 A 
ATOM      8  N   UNL     1      -0.162  12.657  18.567  0.00  0.00    +0.000 NA
ATOM      9  N   UNL     1       0.401  13.570  19.406  0.00  0.00    +0.000 NA
ATOM     10  C   UNL     1      -0.494  13.954  20.304  0.00  0.00    +0.000 A 
ATOM     11  S   UNL     1      -2.492  11.434  18.167  0.00  0.00    +0.000 S 
ENDROOT
BRANCH   2  12
ATOM     12  C   UNL     1      -5.495  13.088  20.470  0.00  0.00    +0.000 A 
ATOM     13  C   UNL     1      -6.300  14.119  19.945  0.00  0.00    +0.000 A 
ATOM     14  C   UNL     1      -7.513  14.486  20.538  0.00  0.00    +0.000 A 
ATOM     15  C   UNL     1      -7.916  13.883  21.724  0.00  0.00    +0.000 A 
ATOM     16  C   UNL     1      -7.135  12.858  22.265  0.00  0.00    +0.000 A 
ATOM     17  C   UNL     1      -5.976  12.404  21.605  0.00  0.00    +0.000 A 
BRANCH  16  18
ATOM     18  N   UNL     1      -7.448  12.359  23.615  0.00  0.00    +0.000 N 
ATOM     19  O   UNL     1      -7.673  11.147  23.742  0.00  0.00    +0.000 OA
ATOM     20  O   UNL     1      -7.524  13.187  24.529  0.00  0.00    +0.000 OA
ENDBRANCH  16  18
ENDBRANCH   2  12
BRANCH  10  21
ATOM     21  C   UNL     1      -0.164  14.980  21.367  0.00  0.00    +0.000 C 
ATOM     22  C   UNL     1       1.264  14.825  21.920  0.00  0.00    +0.000 C 
ATOM     23  C   UNL     1       2.371  15.334  20.996  0.00  0.00    +0.000 C 
ATOM     24  C   UNL     1       2.115  16.728  20.429  0.00  0.00    +0.000 C 
ATOM     25  C   UNL     1       0.693  16.949  19.928  0.00  0.00    +0.000 C 
ATOM     26  C   UNL     1      -0.378  16.426  20.882  0.00  0.00    +0.000 C 
ENDBRANCH  10  21
BRANCH   1  27
ATOM     27  C   UNL     1      -5.168  11.383  18.079  0.00  0.00    +0.000 C 
ATOM     28  O   UNL     1      -5.718  11.988  17.152  0.00  0.00    +0.000 OA
BRANCH  27  30
ATOM     29  C   UNL     1      -7.070  10.018  19.084  0.00  0.00    +0.000 C 
ATOM     30  C   UNL     1      -5.660   9.999  18.523  0.00  0.00    +0.000 C 
ENDBRANCH  27  30
ENDBRANCH   1  27
BRANCH   4  31
ATOM     31  C   UNL     1      -3.814  15.398  21.857  0.00  0.00    +0.000 C 
ATOM     32  C   UNL     1      -3.566  16.224  23.108  0.00  0.00    +0.000 C 
ENDBRANCH   4  31
TORSDOF 6
ENDMDL
