MODEL 1
REMARK VINA RESULT:      -7.1      0.000      0.000
REMARK  Name = 
REMARK  6 active torsions:
REMARK  status: ('A' for Active; 'I' for Inactive)
REMARK    1  A    between atoms: C_1  and  C_2
REMARK    2  A    between atoms: C_2  and  C_3
REMARK    3  A    between atoms: C_3  and  N_4
REMARK    4  A    between atoms: C_8  and  C_9
REMARK    5  A    between atoms: C_12  and  C_13
REMARK    6  A    between atoms: C_14  and  C_15
REMARK                            x       y       z     vdW  Elec       q    Type
REMARK                         _______ _______ _______ _____ _____    ______ ____
ROOT
ATOM      1  N   UNL     1       6.783   6.667  16.784  0.00  0.00    +0.000 NA
ATOM      2  C   UNL     1       7.424   5.600  16.001  0.00  0.00    +0.000 C 
ATOM      3  C   UNL     1       6.439   4.973  15.017  0.00  0.00    +0.000 C 
ATOM      4  C   UNL     1       5.235   4.383  15.737  0.00  0.00    +0.000 C 
ATOM      5  C   UNL     1       4.587   5.421  16.666  0.00  0.00    +0.000 C 
ATOM      6  C   UNL     1       5.640   6.129  17.549  0.00  0.00    +0.000 C 
ENDROOT
BRANCH   5   7
ATOM      7  C   UNL     1       3.509   4.790  17.535  0.00  0.00    +0.000 A 
ATOM      8  C   UNL     1       2.974   3.535  17.221  0.00  0.00    +0.000 A 
ATOM      9  C   UNL     1       2.010   2.945  18.037  0.00  0.00    +0.000 A 
ATOM     10  C   UNL     1       1.555   3.592  19.192  0.00  0.00    +0.000 A 
ATOM     11  C   UNL     1       0.517   2.903  20.037  0.00  0.00    +0.000 C 
ATOM     12  C   UNL     1       2.082   4.854  19.527  0.00  0.00    +0.000 A 
ATOM     13  C   UNL     1       1.663   5.618  20.753  0.00  0.00    +0.000 C 
ATOM     14  C   UNL     1       3.054   5.438  18.690  0.00  0.00    +0.000 A 
ENDBRANCH   5   7
BRANCH   1  15
ATOM     15  C   UNL     1       7.724   7.315  17.719  0.00  0.00    +0.000 C 
BRANCH  15  17
ATOM     16  C   UNL     1       8.746   9.466  18.629  0.00  0.00    +0.000 C 
ATOM     17  C   UNL     1       7.859   8.836  17.567  0.00  0.00    +0.000 C 
ENDBRANCH  15  17
ENDBRANCH   1  15
TORSDOF 3
ENDMDL
MODEL 2
REMARK VINA RESULT:      -7.1      1.746      3.367
REMARK  Name = 
REMARK  6 active torsions:
REMARK  status: ('A' for Active; 'I' for Inactive)
REMARK    1  A    between atoms: C_1  and  C_2
REMARK    2  A    between atoms: C_2  and  C_3
REMARK    3  A    between atoms: C_3  and  N_4
REMARK    4  A    between atoms: C_8  and  C_9
REMARK    5  A    between atoms: C_12  and  C_13
REMARK    6  A    between atoms: C_14  and  C_15
REMARK                            x       y       z     vdW  Elec       q    Type
REMARK                         _______ _______ _______ _____ _____    ______ ____
ROOT
ATOM      1  N   UNL     1       7.137   4.873  15.995  0.00  0.00    +0.000 NA
ATOM      2  C   UNL     1       7.358   6.211  16.563  0.00  0.00    +0.000 C 
ATOM      3  C   UNL     1       7.360   6.167  18.090  0.00  0.00    +0.000 C 
ATOM      4  C   UNL     1       6.042   5.629  18.630  0.00  0.00    +0.000 C 
ATOM      5  C   UNL     1       5.694   4.280  17.984  0.00  0.00    +0.000 C 
ATOM      6  C   UNL     1       5.838   4.331  16.446  0.00  0.00    +0.000 C 
ENDROOT
BRANCH   5   7
ATOM      7  C   UNL     1       4.291   3.829  18.366  0.00  0.00    +0.000 A 
ATOM      8  C   UNL     1       3.298   3.668  17.394  0.00  0.00    +0.000 A 
ATOM      9  C   UNL     1       2.023   3.223  17.742  0.00  0.00    +0.000 A 
ATOM     10  C   UNL     1       1.705   2.925  19.072  0.00  0.00    +0.000 A 
ATOM     11  C   UNL     1       0.315   2.444  19.387  0.00  0.00    +0.000 C 
ATOM     12  C   UNL     1       2.692   3.078  20.066  0.00  0.00    +0.000 A 
ATOM     13  C   UNL     1       2.447   2.771  21.518  0.00  0.00    +0.000 C 
ATOM     14  C   UNL     1       3.975   3.531  19.698  0.00  0.00    +0.000 A 
ENDBRANCH   5   7
BRANCH   1  15
ATOM     15  C   UNL     1       7.166   4.881  14.519  0.00  0.00    +0.000 C 
BRANCH  15  17
ATOM     16  C   UNL     1       6.473   3.637  12.404  0.00  0.00    +0.000 C 
ATOM     17  C   UNL     1       6.112   4.000  13.836  0.00  0.00    +0.000 C 
ENDBRANCH  15  17
ENDBRANCH   1  15
TORSDOF 3
ENDMDL
MODEL 3
REMARK VINA RESULT:      -6.9      1.838      3.438
REMARK  Name = 
REMARK  6 active torsions:
REMARK  status: ('A' for Active; 'I' for Inactive)
REMARK    1  A    between atoms: C_1  and  C_2
REMARK    2  A    between atoms: C_2  and  C_3
REMARK    3  A    between atoms: C_3  and  N_4
REMARK    4  A    between atoms: C_8  and  C_9
REMARK    5  A    between atoms: C_12  and  C_13
REMARK    6  A    between atoms: C_14  and  C_15
REMARK                            x       y       z     vdW  Elec       q    Type
REMARK                         _______ _______ _______ _____ _____    ______ ____
ROOT
ATOM      1  N   UNL     1       6.859   5.058  16.216  0.00  0.00    +0.000 NA
ATOM      2  C   UNL     1       7.278   6.372  16.725  0.00  0.00    +0.000 C 
ATOM      3  C   UNL     1       7.688   6.287  18.194  0.00  0.00    +0.000 C 
ATOM      4  C   UNL     1       6.544   5.779  19.060  0.00  0.00    +0.000 C 
ATOM      5  C   UNL     1       5.981   4.461  18.510  0.00  0.00    +0.000 C 
ATOM      6  C   UNL     1       5.709   4.549  16.991  0.00  0.00    +0.000 C 
ENDROOT
BRANCH   5   7
ATOM      7  C   UNL     1       4.716   4.047  19.248  0.00  0.00    +0.000 A 
ATOM      8  C   UNL     1       4.502   2.715  19.619  0.00  0.00    +0.000 A 
ATOM      9  C   UNL     1       3.357   2.344  20.323  0.00  0.00    +0.000 A 
ATOM     10  C   UNL     1       2.394   3.296  20.680  0.00  0.00    +0.000 A 
ATOM     11  C   UNL     1       1.182   2.837  21.444  0.00  0.00    +0.000 C 
ATOM     12  C   UNL     1       2.592   4.642  20.318  0.00  0.00    +0.000 A 
ATOM     13  C   UNL     1       1.620   5.735  20.667  0.00  0.00    +0.000 C 
ATOM     14  C   UNL     1       3.753   5.000  19.604  0.00  0.00    +0.000 A 
ENDBRANCH   5   7
BRANCH   1  15
ATOM     15  C   UNL     1       6.491   5.104  14.787  0.00  0.00    +0.000 C 
BRANCH  15  17
ATOM     16  C   UNL     1       6.208   3.629  12.728  0.00  0.00    +0.000 C 
ATOM     17  C   UNL     1       5.925   3.799  14.212  0.00  0.00    +0.000 C 
ENDBRANCH  15  17
ENDBRANCH   1  15
TORSDOF 3
ENDMDL
MODEL 4
REMARK VINA RESULT:      -6.8      2.840      5.275
REMARK  Name = 
REMARK  6 active torsions:
REMARK  status: ('A' for Active; 'I' for Inactive)
REMARK    1  A    between atoms: C_1  and  C_2
REMARK    2  A    between atoms: C_2  and  C_3
REMARK    3  A    between atoms: C_3  and  N_4
REMARK    4  A    between atoms: C_8  and  C_9
REMARK    5  A    between atoms: C_12  and  C_13
REMARK    6  A    between atoms: C_14  and  C_15
REMARK                            x       y       z     vdW  Elec       q    Type
REMARK                         _______ _______ _______ _____ _____    ______ ____
ROOT
ATOM      1  N   UNL     1       6.184   3.296  12.487  0.00  0.00    +0.000 NA
ATOM      2  C   UNL     1       7.013   4.396  11.971  0.00  0.00    +0.000 C 
ATOM      3  C   UNL     1       7.959   4.923  13.048  0.00  0.00    +0.000 C 
ATOM      4  C   UNL     1       7.191   5.428  14.262  0.00  0.00    +0.000 C 
ATOM      5  C   UNL     1       6.217   4.360  14.780  0.00  0.00    +0.000 C 
ATOM      6  C   UNL     1       5.374   3.755  13.633  0.00  0.00    +0.000 C 
ENDROOT
BRANCH   5   7
ATOM      7  C   UNL     1       5.307   4.919  15.864  0.00  0.00    +0.000 A 
ATOM      8  C   UNL     1       5.326   6.281  16.188  0.00  0.00    +0.000 A 
ATOM      9  C   UNL     1       4.469   6.796  17.158  0.00  0.00    +0.000 A 
ATOM     10  C   UNL     1       3.565   5.966  17.832  0.00  0.00    +0.000 A 
ATOM     11  C   UNL     1       2.661   6.580  18.866  0.00  0.00    +0.000 C 
ATOM     12  C   UNL     1       3.528   4.593  17.519  0.00  0.00    +0.000 A 
ATOM     13  C   UNL     1       2.585   3.627  18.181  0.00  0.00    +0.000 C 
ATOM     14  C   UNL     1       4.404   4.087  16.537  0.00  0.00    +0.000 A 
ENDBRANCH   5   7
BRANCH   1  15
ATOM     15  C   UNL     1       5.285   2.743  11.455  0.00  0.00    +0.000 C 
BRANCH  15  17
ATOM     16  C   UNL     1       3.397   3.748  10.067  0.00  0.00    +0.000 C 
ATOM     17  C   UNL     1       3.861   3.316  11.449  0.00  0.00    +0.000 C 
ENDBRANCH  15  17
ENDBRANCH   1  15
TORSDOF 3
ENDMDL
MODEL 5
REMARK VINA RESULT:      -6.7      2.844      4.283
REMARK  Name = 
REMARK  6 active torsions:
REMARK  status: ('A' for Active; 'I' for Inactive)
REMARK    1  A    between atoms: C_1  and  C_2
REMARK    2  A    between atoms: C_2  and  C_3
REMARK    3  A    between atoms: C_3  and  N_4
REMARK    4  A    between atoms: C_8  and  C_9
REMARK    5  A    between atoms: C_12  and  C_13
REMARK    6  A    between atoms: C_14  and  C_15
REMARK                            x       y       z     vdW  Elec       q    Type
REMARK                         _______ _______ _______ _____ _____    ______ ____
ROOT
ATOM      1  N   UNL     1       5.241   5.435  17.386  0.00  0.00    +0.000 NA
ATOM      2  C   UNL     1       5.500   4.662  18.609  0.00  0.00    +0.000 C 
ATOM      3  C   UNL     1       4.197   4.183  19.244  0.00  0.00    +0.000 C 
ATOM      4  C   UNL     1       3.290   5.353  19.598  0.00  0.00    +0.000 C 
ATOM      5  C   UNL     1       3.073   6.268  18.385  0.00  0.00    +0.000 C 
ATOM      6  C   UNL     1       4.410   6.618  17.691  0.00  0.00    +0.000 C 
ENDROOT
BRANCH   5   7
ATOM      7  C   UNL     1       2.335   7.541  18.775  0.00  0.00    +0.000 A 
ATOM      8  C   UNL     1       2.097   8.551  17.837  0.00  0.00    +0.000 A 
ATOM      9  C   UNL     1       1.392   9.701  18.188  0.00  0.00    +0.000 A 
ATOM     10  C   UNL     1       0.903   9.873  19.489  0.00  0.00    +0.000 A 
ATOM     11  C   UNL     1       0.145  11.133  19.808  0.00  0.00    +0.000 C 
ATOM     12  C   UNL     1       1.130   8.867  20.448  0.00  0.00    +0.000 A 
ATOM     13  C   UNL     1       0.632   8.958  21.864  0.00  0.00    +0.000 C 
ATOM     14  C   UNL     1       1.846   7.712  20.077  0.00  0.00    +0.000 A 
ENDBRANCH   5   7
BRANCH   1  15
ATOM     15  C   UNL     1       6.487   5.881  16.732  0.00  0.00    +0.000 C 
BRANCH  15  17
ATOM     16  C   UNL     1       7.679   7.991  17.523  0.00  0.00    +0.000 C 
ATOM     17  C   UNL     1       7.542   6.484  17.669  0.00  0.00    +0.000 C 
ENDBRANCH  15  17
ENDBRANCH   1  15
TORSDOF 3
ENDMDL
MODEL 6
REMARK VINA RESULT:      -6.7      2.833      4.527
REMARK  Name = 
REMARK  6 active torsions:
REMARK  status: ('A' for Active; 'I' for Inactive)
REMARK    1  A    between atoms: C_1  and  C_2
REMARK    2  A    between atoms: C_2  and  C_3
REMARK    3  A    between atoms: C_3  and  N_4
REMARK    4  A    between atoms: C_8  and  C_9
REMARK    5  A    between atoms: C_12  and  C_13
REMARK    6  A    between atoms: C_14  and  C_15
REMARK                            x       y       z     vdW  Elec       q    Type
REMARK                         _______ _______ _______ _____ _____    ______ ____
ROOT
ATOM      1  N   UNL     1       4.998   4.731  18.027  0.00  0.00    +0.000 NA
ATOM      2  C   UNL     1       4.137   3.578  18.332  0.00  0.00    +0.000 C 
ATOM      3  C   UNL     1       2.787   3.700  17.629  0.00  0.00    +0.000 C 
ATOM      4  C   UNL     1       2.056   4.968  18.046  0.00  0.00    +0.000 C 
ATOM      5  C   UNL     1       2.950   6.203  17.861  0.00  0.00    +0.000 C 
ATOM      6  C   UNL     1       4.354   5.985  18.469  0.00  0.00    +0.000 C 
ENDROOT
BRANCH   5   7
ATOM      7  C   UNL     1       2.306   7.447  18.456  0.00  0.00    +0.000 A 
ATOM      8  C   UNL     1       1.949   8.531  17.645  0.00  0.00    +0.000 A 
ATOM      9  C   UNL     1       1.330   9.656  18.188  0.00  0.00    +0.000 A 
ATOM     10  C   UNL     1       1.048   9.729  19.557  0.00  0.00    +0.000 A 
ATOM     11  C   UNL     1       0.374  10.966  20.085  0.00  0.00    +0.000 C 
ATOM     12  C   UNL     1       1.398   8.649  20.390  0.00  0.00    +0.000 A 
ATOM     13  C   UNL     1       1.125   8.632  21.869  0.00  0.00    +0.000 C 
ATOM     14  C   UNL     1       2.026   7.520  19.826  0.00  0.00    +0.000 A 
ENDBRANCH   5   7
BRANCH   1  15
ATOM     15  C   UNL     1       6.324   4.622  18.666  0.00  0.00    +0.000 C 
BRANCH  15  17
ATOM     16  C   UNL     1       7.185   4.622  16.266  0.00  0.00    +0.000 C 
ATOM     17  C   UNL     1       7.523   4.837  17.733  0.00  0.00    +0.000 C 
ENDBRANCH  15  17
ENDBRANCH   1  15
TORSDOF 3
ENDMDL
MODEL 7
REMARK VINA RESULT:      -6.7      2.803      4.694
REMARK  Name = 
REMARK  6 active torsions:
REMARK  status: ('A' for Active; 'I' for Inactive)
REMARK    1  A    between atoms: C_1  and  C_2
REMARK    2  A    between atoms: C_2  and  C_3
REMARK    3  A    between atoms: C_3  and  N_4
REMARK    4  A    between atoms: C_8  and  C_9
REMARK    5  A    between atoms: C_12  and  C_13
REMARK    6  A    between atoms: C_14  and  C_15
REMARK                            x       y       z     vdW  Elec       q    Type
REMARK                         _______ _______ _______ _____ _____    ______ ____
ROOT
ATOM      1  N   UNL     1       4.908   5.026  16.807  0.00  0.00    +0.000 NA
ATOM      2  C   UNL     1       5.662   4.549  17.976  0.00  0.00    +0.000 C 
ATOM      3  C   UNL     1       4.723   4.170  19.119  0.00  0.00    +0.000 C 
ATOM      4  C   UNL     1       3.868   5.353  19.550  0.00  0.00    +0.000 C 
ATOM      5  C   UNL     1       3.141   5.973  18.348  0.00  0.00    +0.000 C 
ATOM      6  C   UNL     1       4.105   6.214  17.163  0.00  0.00    +0.000 C 
ENDROOT
BRANCH   5   7
ATOM      7  C   UNL     1       2.444   7.271  18.731  0.00  0.00    +0.000 A 
ATOM      8  C   UNL     1       2.198   8.264  17.776  0.00  0.00    +0.000 A 
ATOM      9  C   UNL     1       1.530   9.438  18.122  0.00  0.00    +0.000 A 
ATOM     10  C   UNL     1       1.086   9.651  19.433  0.00  0.00    +0.000 A 
ATOM     11  C   UNL     1       0.366  10.934  19.746  0.00  0.00    +0.000 C 
ATOM     12  C   UNL     1       1.322   8.662  20.408  0.00  0.00    +0.000 A 
ATOM     13  C   UNL     1       0.872   8.797  21.837  0.00  0.00    +0.000 C 
ATOM     14  C   UNL     1       2.001   7.483  20.042  0.00  0.00    +0.000 A 
ENDBRANCH   5   7
BRANCH   1  15
ATOM     15  C   UNL     1       5.791   5.367  15.674  0.00  0.00    +0.000 C 
BRANCH  15  17
ATOM     16  C   UNL     1       6.174   3.879  13.639  0.00  0.00    +0.000 C 
ATOM     17  C   UNL     1       6.572   4.191  15.073  0.00  0.00    +0.000 C 
ENDBRANCH  15  17
ENDBRANCH   1  15
TORSDOF 3
ENDMDL
MODEL 8
REMARK VINA RESULT:      -6.6      2.817      5.452
REMARK  Name = 
REMARK  6 active torsions:
REMARK  status: ('A' for Active; 'I' for Inactive)
REMARK    1  A    between atoms: C_1  and  C_2
REMARK    2  A    between atoms: C_2  and  C_3
REMARK    3  A    between atoms: C_3  and  N_4
REMARK    4  A    between atoms: C_8  and  C_9
REMARK    5  A    between atoms: C_12  and  C_13
REMARK    6  A    between atoms: C_14  and  C_15
REMARK                            x       y       z     vdW  Elec       q    Type
REMARK                         _______ _______ _______ _____ _____    ______ ____
ROOT
ATOM      1  N   UNL     1       3.917   3.670  18.717  0.00  0.00    +0.000 NA
ATOM      2  C   UNL     1       4.204   3.578  17.278  0.00  0.00    +0.000 C 
ATOM      3  C   UNL     1       4.977   4.802  16.792  0.00  0.00    +0.000 C 
ATOM      4  C   UNL     1       4.198   6.085  17.044  0.00  0.00    +0.000 C 
ATOM      5  C   UNL     1       3.765   6.185  18.514  0.00  0.00    +0.000 C 
ATOM      6  C   UNL     1       3.109   4.874  19.004  0.00  0.00    +0.000 C 
ENDROOT
BRANCH   5   7
ATOM      7  C   UNL     1       2.822   7.359  18.735  0.00  0.00    +0.000 A 
ATOM      8  C   UNL     1       2.588   8.295  17.721  0.00  0.00    +0.000 A 
ATOM      9  C   UNL     1       1.699   9.351  17.914  0.00  0.00    +0.000 A 
ATOM     10  C   UNL     1       1.016   9.501  19.128  0.00  0.00    +0.000 A 
ATOM     11  C   UNL     1       0.066  10.658  19.276  0.00  0.00    +0.000 C 
ATOM     12  C   UNL     1       1.236   8.570  20.160  0.00  0.00    +0.000 A 
ATOM     13  C   UNL     1       0.541   8.642  21.492  0.00  0.00    +0.000 C 
ATOM     14  C   UNL     1       2.140   7.509  19.949  0.00  0.00    +0.000 A 
ENDBRANCH   5   7
BRANCH   1  15
ATOM     15  C   UNL     1       3.200   2.482  19.220  0.00  0.00    +0.000 C 
BRANCH  15  17
ATOM     16  C   UNL     1       0.680   2.309  18.880  0.00  0.00    +0.000 C 
ATOM     17  C   UNL     1       1.806   2.752  19.801  0.00  0.00    +0.000 C 
ENDBRANCH  15  17
ENDBRANCH   1  15
TORSDOF 3
ENDMDL
MODEL 9
REMARK VINA RESULT:      -6.6      2.986      5.231
REMARK  Name = 
REMARK  6 active torsions:
REMARK  status: ('A' for Active; 'I' for Inactive)
REMARK    1  A    between atoms: C_1  and  C_2
REMARK    2  A    between atoms: C_2  and  C_3
REMARK    3  A    between atoms: C_3  and  N_4
REMARK    4  A    between atoms: C_8  and  C_9
REMARK    5  A    between atoms: C_12  and  C_13
REMARK    6  A    between atoms: C_14  and  C_15
REMARK                            x       y       z     vdW  Elec       q    Type
REMARK                         _______ _______ _______ _____ _____    ______ ____
ROOT
ATOM      1  N   UNL     1       3.708   4.065  17.813  0.00  0.00    +0.000 NA
ATOM      2  C   UNL     1       4.399   4.410  16.562  0.00  0.00    +0.000 C 
ATOM      3  C   UNL     1       5.249   5.668  16.732  0.00  0.00    +0.000 C 
ATOM      4  C   UNL     1       4.400   6.858  17.156  0.00  0.00    +0.000 C 
ATOM      5  C   UNL     1       3.560   6.520  18.397  0.00  0.00    +0.000 C 
ATOM      6  C   UNL     1       2.824   5.170  18.235  0.00  0.00    +0.000 C 
ENDROOT
BRANCH   5   7
ATOM      7  C   UNL     1       2.566   7.628  18.711  0.00  0.00    +0.000 A 
ATOM      8  C   UNL     1       2.169   8.540  17.726  0.00  0.00    +0.000 A 
ATOM      9  C   UNL     1       1.233   9.534  18.008  0.00  0.00    +0.000 A 
ATOM     10  C   UNL     1       0.665   9.644  19.283  0.00  0.00    +0.000 A 
ATOM     11  C   UNL     1      -0.343  10.734  19.526  0.00  0.00    +0.000 C 
ATOM     12  C   UNL     1       1.049   8.735  20.288  0.00  0.00    +0.000 A 
ATOM     13  C   UNL     1       0.485   8.768  21.681  0.00  0.00    +0.000 C 
ATOM     14  C   UNL     1       1.999   7.738  19.987  0.00  0.00    +0.000 A 
ENDBRANCH   5   7
BRANCH   1  15
ATOM     15  C   UNL     1       2.907   2.832  17.686  0.00  0.00    +0.000 C 
BRANCH  15  17
ATOM     16  C   UNL     1       4.238   2.115  19.739  0.00  0.00    +0.000 C 
ATOM     17  C   UNL     1       3.331   1.675  18.601  0.00  0.00    +0.000 C 
ENDBRANCH  15  17
ENDBRANCH   1  15
TORSDOF 3
ENDMDL
