MODEL 1
REMARK VINA RESULT:      -9.3      0.000      0.000
REMARK  Name = 
REMARK  6 active torsions:
REMARK  status: ('A' for Active; 'I' for Inactive)
REMARK    1  A    between atoms: N_1  and  C_2
REMARK    2  A    between atoms: C_5  and  C_6
REMARK    3  A    between atoms: C_11  and  O_12
REMARK    4  A    between atoms: O_12  and  C_13
REMARK    5  A    between atoms: C_20  and  C_21
REMARK    6  A    between atoms: C_24  and  O_25
REMARK                            x       y       z     vdW  Elec       q    Type
REMARK                         _______ _______ _______ _____ _____    ______ ____
ROOT
ATOM      1  C   UNL     1       1.554   9.313  18.693  0.00  0.00    +0.000 A 
ATOM      2  N   UNL     1       2.219   8.483  17.866  0.00  0.00    +0.000 NA
ATOM      3  C   UNL     1       2.516   7.240  18.316  0.00  0.00    +0.000 A 
ATOM      4  C   UNL     1       2.165   6.745  19.563  0.00  0.00    +0.000 A 
ATOM      5  C   UNL     1       1.553   7.673  20.425  0.00  0.00    +0.000 A 
ATOM      6  C   UNL     1       1.225   8.987  20.022  0.00  0.00    +0.000 A 
ENDROOT
BRANCH   4   7
ATOM      7  C   UNL     1       2.340   5.325  19.954  0.00  0.00    +0.000 A 
ATOM      8  C   UNL     1       1.233   4.638  20.511  0.00  0.00    +0.000 A 
ATOM      9  C   UNL     1       1.303   3.297  20.906  0.00  0.00    +0.000 A 
ATOM     10  C   UNL     1       2.492   2.601  20.771  0.00  0.00    +0.000 A 
ATOM     11  C   UNL     1       3.601   3.242  20.226  0.00  0.00    +0.000 A 
ATOM     12  C   UNL     1       3.533   4.580  19.796  0.00  0.00    +0.000 A 
BRANCH  12  13
ATOM     13  O   UNL     1       4.761   5.042  19.366  0.00  0.00    +0.000 OA
BRANCH  13  14
ATOM     14  C   UNL     1       5.286   4.722  18.139  0.00  0.00    +0.000 A 
ATOM     15  C   UNL     1       6.687   4.759  18.093  0.00  0.00    +0.000 A 
ATOM     16  C   UNL     1       7.359   4.588  16.884  0.00  0.00    +0.000 A 
ATOM     17  C   UNL     1       6.632   4.373  15.718  0.00  0.00    +0.000 A 
ATOM     18  C   UNL     1       5.242   4.274  15.769  0.00  0.00    +0.000 A 
ATOM     19  C   UNL     1       4.568   4.415  16.988  0.00  0.00    +0.000 A 
ENDBRANCH  13  14
ENDBRANCH  12  13
ENDBRANCH   4   7
BRANCH   6  20
ATOM     20  C   UNL     1       0.518   9.886  20.978  0.00  0.00    +0.000 A 
ATOM     21  C   UNL     1      -0.016   9.390  22.187  0.00  0.00    +0.000 A 
ATOM     22  C   UNL     1      -0.767  10.202  23.052  0.00  0.00    +0.000 A 
ATOM     23  C   UNL     1      -0.972  11.536  22.729  0.00  0.00    +0.000 A 
ATOM     24  C   UNL     1      -0.433  12.066  21.566  0.00  0.00    +0.000 A 
ATOM     25  C   UNL     1       0.294  11.246  20.697  0.00  0.00    +0.000 A 
BRANCH  23  26
ATOM     26  O   UNL     1      -1.709  12.360  23.524  0.00  0.00    +0.000 OA
ATOM     27  H   UNL     1      -1.376  12.295  24.435  0.00  0.00    +0.000 HD
ENDBRANCH  23  26
ENDBRANCH   6  20
BRANCH   1  28
ATOM     28  N   UNL     1       1.188  10.512  18.088  0.00  0.00    +0.000 N 
ATOM     29  H   UNL     1       2.030  11.082  18.054  0.00  0.00    +0.000 HD
ATOM     30  H   UNL     1       0.431  10.962  18.585  0.00  0.00    +0.000 HD
ENDBRANCH   1  28
TORSDOF 6
ENDMDL
MODEL 2
REMARK VINA RESULT:      -9.1      3.070      8.212
REMARK  Name = 
REMARK  6 active torsions:
REMARK  status: ('A' for Active; 'I' for Inactive)
REMARK    1  A    between atoms: N_1  and  C_2
REMARK    2  A    between atoms: C_5  and  C_6
REMARK    3  A    between atoms: C_11  and  O_12
REMARK    4  A    between atoms: O_12  and  C_13
REMARK    5  A    between atoms: C_20  and  C_21
REMARK    6  A    between atoms: C_24  and  O_25
REMARK                            x       y       z     vdW  Elec       q    Type
REMARK                         _______ _______ _______ _____ _____    ______ ____
ROOT
ATOM      1  C   UNL     1       6.944   4.492  17.638  0.00  0.00    +0.000 A 
ATOM      2  N   UNL     1       6.651   4.522  18.952  0.00  0.00    +0.000 NA
ATOM      3  C   UNL     1       5.354   4.384  19.317  0.00  0.00    +0.000 A 
ATOM      4  C   UNL     1       4.300   4.191  18.437  0.00  0.00    +0.000 A 
ATOM      5  C   UNL     1       4.639   4.256  17.073  0.00  0.00    +0.000 A 
ATOM      6  C   UNL     1       5.971   4.409  16.625  0.00  0.00    +0.000 A 
ENDROOT
BRANCH   4   7
ATOM      7  C   UNL     1       2.923   3.858  18.875  0.00  0.00    +0.000 A 
ATOM      8  C   UNL     1       2.319   2.680  18.369  0.00  0.00    +0.000 A 
ATOM      9  C   UNL     1       1.026   2.284  18.729  0.00  0.00    +0.000 A 
ATOM     10  C   UNL     1       0.284   3.065  19.598  0.00  0.00    +0.000 A 
ATOM     11  C   UNL     1       0.844   4.229  20.118  0.00  0.00    +0.000 A 
ATOM     12  C   UNL     1       2.155   4.620  19.788  0.00  0.00    +0.000 A 
BRANCH  12  13
ATOM     13  O   UNL     1       2.480   5.841  20.346  0.00  0.00    +0.000 OA
BRANCH  13  14
ATOM     14  C   UNL     1       2.217   7.035  19.724  0.00  0.00    +0.000 A 
ATOM     15  C   UNL     1       1.544   7.962  20.533  0.00  0.00    +0.000 A 
ATOM     16  C   UNL     1       1.092   9.167  20.001  0.00  0.00    +0.000 A 
ATOM     17  C   UNL     1       1.317   9.454  18.658  0.00  0.00    +0.000 A 
ATOM     18  C   UNL     1       2.039   8.563  17.865  0.00  0.00    +0.000 A 
ATOM     19  C   UNL     1       2.520   7.365  18.407  0.00  0.00    +0.000 A 
ENDBRANCH  13  14
ENDBRANCH  12  13
ENDBRANCH   4   7
BRANCH   6  20
ATOM     20  C   UNL     1       6.251   4.404  15.162  0.00  0.00    +0.000 A 
ATOM     21  C   UNL     1       5.507   3.590  14.279  0.00  0.00    +0.000 A 
ATOM     22  C   UNL     1       5.820   3.502  12.913  0.00  0.00    +0.000 A 
ATOM     23  C   UNL     1       6.872   4.251  12.405  0.00  0.00    +0.000 A 
ATOM     24  C   UNL     1       7.603   5.086  13.235  0.00  0.00    +0.000 A 
ATOM     25  C   UNL     1       7.301   5.152  14.600  0.00  0.00    +0.000 A 
BRANCH  23  26
ATOM     26  O   UNL     1       7.228   4.185  11.092  0.00  0.00    +0.000 OA
ATOM     27  H   UNL     1       7.025   3.296  10.757  0.00  0.00    +0.000 HD
ENDBRANCH  23  26
ENDBRANCH   6  20
BRANCH   1  28
ATOM     28  N   UNL     1       8.313   4.512  17.381  0.00  0.00    +0.000 N 
ATOM     29  H   UNL     1       8.557   5.485  17.212  0.00  0.00    +0.000 HD
ATOM     30  H   UNL     1       8.553   3.908  16.607  0.00  0.00    +0.000 HD
ENDBRANCH   1  28
TORSDOF 6
ENDMDL
MODEL 3
REMARK VINA RESULT:      -9.1      1.127      1.540
REMARK  Name = 
REMARK  6 active torsions:
REMARK  status: ('A' for Active; 'I' for Inactive)
REMARK    1  A    between atoms: N_1  and  C_2
REMARK    2  A    between atoms: C_5  and  C_6
REMARK    3  A    between atoms: C_11  and  O_12
REMARK    4  A    between atoms: O_12  and  C_13
REMARK    5  A    between atoms: C_20  and  C_21
REMARK    6  A    between atoms: C_24  and  O_25
REMARK                            x       y       z     vdW  Elec       q    Type
REMARK                         _______ _______ _______ _____ _____    ______ ____
ROOT
ATOM      1  C   UNL     1       1.433   9.283  18.575  0.00  0.00    +0.000 A 
ATOM      2  N   UNL     1       2.064   8.476  17.701  0.00  0.00    +0.000 NA
ATOM      3  C   UNL     1       2.489   7.268  18.143  0.00  0.00    +0.000 A 
ATOM      4  C   UNL     1       2.304   6.786  19.431  0.00  0.00    +0.000 A 
ATOM      5  C   UNL     1       1.721   7.695  20.332  0.00  0.00    +0.000 A 
ATOM      6  C   UNL     1       1.265   8.974  19.939  0.00  0.00    +0.000 A 
ENDROOT
BRANCH   4   7
ATOM      7  C   UNL     1       2.614   5.393  19.831  0.00  0.00    +0.000 A 
ATOM      8  C   UNL     1       1.929   4.840  20.941  0.00  0.00    +0.000 A 
ATOM      9  C   UNL     1       2.153   3.534  21.389  0.00  0.00    +0.000 A 
ATOM     10  C   UNL     1       3.087   2.737  20.748  0.00  0.00    +0.000 A 
ATOM     11  C   UNL     1       3.779   3.244  19.652  0.00  0.00    +0.000 A 
ATOM     12  C   UNL     1       3.538   4.546  19.174  0.00  0.00    +0.000 A 
BRANCH  12  13
ATOM     13  O   UNL     1       4.387   4.873  18.135  0.00  0.00    +0.000 OA
BRANCH  13  14
ATOM     14  C   UNL     1       5.570   5.542  18.325  0.00  0.00    +0.000 A 
ATOM     15  C   UNL     1       5.813   6.548  17.378  0.00  0.00    +0.000 A 
ATOM     16  C   UNL     1       7.031   7.223  17.362  0.00  0.00    +0.000 A 
ATOM     17  C   UNL     1       8.009   6.901  18.297  0.00  0.00    +0.000 A 
ATOM     18  C   UNL     1       7.749   5.945  19.279  0.00  0.00    +0.000 A 
ATOM     19  C   UNL     1       6.514   5.288  19.315  0.00  0.00    +0.000 A 
ENDBRANCH  13  14
ENDBRANCH  12  13
ENDBRANCH   4   7
BRANCH   6  20
ATOM     20  C   UNL     1       0.601   9.851  20.944  0.00  0.00    +0.000 A 
ATOM     21  C   UNL     1      -0.048   9.304  22.073  0.00  0.00    +0.000 A 
ATOM     22  C   UNL     1      -0.760  10.109  22.978  0.00  0.00    +0.000 A 
ATOM     23  C   UNL     1      -0.809  11.481  22.777  0.00  0.00    +0.000 A 
ATOM     24  C   UNL     1      -0.155  12.056  21.698  0.00  0.00    +0.000 A 
ATOM     25  C   UNL     1       0.532  11.247  20.788  0.00  0.00    +0.000 A 
BRANCH  23  26
ATOM     26  O   UNL     1      -1.503  12.302  23.615  0.00  0.00    +0.000 OA
ATOM     27  H   UNL     1      -1.128  12.225  24.508  0.00  0.00    +0.000 HD
ENDBRANCH  23  26
ENDBRANCH   6  20
BRANCH   1  28
ATOM     28  N   UNL     1       0.925  10.438  17.987  0.00  0.00    +0.000 N 
ATOM     29  H   UNL     1       0.517  10.986  18.742  0.00  0.00    +0.000 HD
ATOM     30  H   UNL     1       0.260  10.222  17.258  0.00  0.00    +0.000 HD
ENDBRANCH   1  28
TORSDOF 6
ENDMDL
MODEL 4
REMARK VINA RESULT:      -9.0      3.156      6.765
REMARK  Name = 
REMARK  6 active torsions:
REMARK  status: ('A' for Active; 'I' for Inactive)
REMARK    1  A    between atoms: N_1  and  C_2
REMARK    2  A    between atoms: C_5  and  C_6
REMARK    3  A    between atoms: C_11  and  O_12
REMARK    4  A    between atoms: O_12  and  C_13
REMARK    5  A    between atoms: C_20  and  C_21
REMARK    6  A    between atoms: C_24  and  O_25
REMARK                            x       y       z     vdW  Elec       q    Type
REMARK                         _______ _______ _______ _____ _____    ______ ____
ROOT
ATOM      1  C   UNL     1       6.490   4.873  16.032  0.00  0.00    +0.000 A 
ATOM      2  N   UNL     1       5.741   3.812  15.677  0.00  0.00    +0.000 NA
ATOM      3  C   UNL     1       4.711   3.462  16.484  0.00  0.00    +0.000 A 
ATOM      4  C   UNL     1       4.352   4.132  17.645  0.00  0.00    +0.000 A 
ATOM      5  C   UNL     1       5.214   5.177  18.024  0.00  0.00    +0.000 A 
ATOM      6  C   UNL     1       6.312   5.585  17.233  0.00  0.00    +0.000 A 
ENDROOT
BRANCH   4   7
ATOM      7  C   UNL     1       3.112   3.840  18.403  0.00  0.00    +0.000 A 
ATOM      8  C   UNL     1       2.405   2.647  18.108  0.00  0.00    +0.000 A 
ATOM      9  C   UNL     1       1.229   2.287  18.773  0.00  0.00    +0.000 A 
ATOM     10  C   UNL     1       0.708   3.118  19.750  0.00  0.00    +0.000 A 
ATOM     11  C   UNL     1       1.374   4.298  20.069  0.00  0.00    +0.000 A 
ATOM     12  C   UNL     1       2.576   4.654  19.429  0.00  0.00    +0.000 A 
BRANCH  12  13
ATOM     13  O   UNL     1       3.023   5.896  19.836  0.00  0.00    +0.000 OA
BRANCH  13  14
ATOM     14  C   UNL     1       2.348   7.057  19.557  0.00  0.00    +0.000 A 
ATOM     15  C   UNL     1       2.466   7.477  18.225  0.00  0.00    +0.000 A 
ATOM     16  C   UNL     1       1.947   8.706  17.823  0.00  0.00    +0.000 A 
ATOM     17  C   UNL     1       1.300   9.516  18.751  0.00  0.00    +0.000 A 
ATOM     18  C   UNL     1       1.126   9.075  20.062  0.00  0.00    +0.000 A 
ATOM     19  C   UNL     1       1.621   7.828  20.459  0.00  0.00    +0.000 A 
ENDBRANCH  13  14
ENDBRANCH  12  13
ENDBRANCH   4   7
BRANCH   6  20
ATOM     20  C   UNL     1       7.138   6.743  17.677  0.00  0.00    +0.000 A 
ATOM     21  C   UNL     1       8.045   6.624  18.753  0.00  0.00    +0.000 A 
ATOM     22  C   UNL     1       8.759   7.729  19.244  0.00  0.00    +0.000 A 
ATOM     23  C   UNL     1       8.593   8.969  18.645  0.00  0.00    +0.000 A 
ATOM     24  C   UNL     1       7.737   9.117  17.564  0.00  0.00    +0.000 A 
ATOM     25  C   UNL     1       7.010   8.018  17.095  0.00  0.00    +0.000 A 
BRANCH  23  26
ATOM     26  O   UNL     1       9.248  10.075  19.096  0.00  0.00    +0.000 OA
ATOM     27  H   UNL     1       9.743   9.839  19.897  0.00  0.00    +0.000 HD
ENDBRANCH  23  26
ENDBRANCH   6  20
BRANCH   1  28
ATOM     28  N   UNL     1       7.436   5.223  15.071  0.00  0.00    +0.000 N 
ATOM     29  H   UNL     1       6.978   5.887  14.450  0.00  0.00    +0.000 HD
ATOM     30  H   UNL     1       7.787   4.410  14.584  0.00  0.00    +0.000 HD
ENDBRANCH   1  28
TORSDOF 6
ENDMDL
MODEL 5
REMARK VINA RESULT:      -8.9      2.379      4.423
REMARK  Name = 
REMARK  6 active torsions:
REMARK  status: ('A' for Active; 'I' for Inactive)
REMARK    1  A    between atoms: N_1  and  C_2
REMARK    2  A    between atoms: C_5  and  C_6
REMARK    3  A    between atoms: C_11  and  O_12
REMARK    4  A    between atoms: O_12  and  C_13
REMARK    5  A    between atoms: C_20  and  C_21
REMARK    6  A    between atoms: C_24  and  O_25
REMARK                            x       y       z     vdW  Elec       q    Type
REMARK                         _______ _______ _______ _____ _____    ______ ____
ROOT
ATOM      1  C   UNL     1       1.256   8.381  20.628  0.00  0.00    +0.000 A 
ATOM      2  N   UNL     1       1.757   7.173  20.952  0.00  0.00    +0.000 NA
ATOM      3  C   UNL     1       2.441   6.493  20.000  0.00  0.00    +0.000 A 
ATOM      4  C   UNL     1       2.685   6.958  18.716  0.00  0.00    +0.000 A 
ATOM      5  C   UNL     1       2.068   8.180  18.395  0.00  0.00    +0.000 A 
ATOM      6  C   UNL     1       1.332   8.935  19.336  0.00  0.00    +0.000 A 
ENDROOT
BRANCH   4   7
ATOM      7  C   UNL     1       3.592   6.275  17.763  0.00  0.00    +0.000 A 
ATOM      8  C   UNL     1       4.657   7.017  17.195  0.00  0.00    +0.000 A 
ATOM      9  C   UNL     1       5.564   6.456  16.289  0.00  0.00    +0.000 A 
ATOM     10  C   UNL     1       5.426   5.133  15.906  0.00  0.00    +0.000 A 
ATOM     11  C   UNL     1       4.392   4.371  16.443  0.00  0.00    +0.000 A 
ATOM     12  C   UNL     1       3.493   4.916  17.379  0.00  0.00    +0.000 A 
BRANCH  12  13
ATOM     13  O   UNL     1       2.502   4.016  17.719  0.00  0.00    +0.000 OA
BRANCH  13  14
ATOM     14  C   UNL     1       2.417   3.440  18.961  0.00  0.00    +0.000 A 
ATOM     15  C   UNL     1       1.121   3.431  19.496  0.00  0.00    +0.000 A 
ATOM     16  C   UNL     1       0.898   3.000  20.802  0.00  0.00    +0.000 A 
ATOM     17  C   UNL     1       1.971   2.569  21.577  0.00  0.00    +0.000 A 
ATOM     18  C   UNL     1       3.252   2.518  21.028  0.00  0.00    +0.000 A 
ATOM     19  C   UNL     1       3.472   2.923  19.707  0.00  0.00    +0.000 A 
ENDBRANCH  13  14
ENDBRANCH  12  13
ENDBRANCH   4   7
BRANCH   6  20
ATOM     20  C   UNL     1       0.765  10.252  18.931  0.00  0.00    +0.000 A 
ATOM     21  C   UNL     1       1.564  11.417  18.917  0.00  0.00    +0.000 A 
ATOM     22  C   UNL     1       1.023  12.680  18.629  0.00  0.00    +0.000 A 
ATOM     23  C   UNL     1      -0.327  12.791  18.325  0.00  0.00    +0.000 A 
ATOM     24  C   UNL     1      -1.134  11.664  18.296  0.00  0.00    +0.000 A 
ATOM     25  C   UNL     1      -0.594  10.412  18.606  0.00  0.00    +0.000 A 
BRANCH  23  26
ATOM     26  O   UNL     1      -0.904  13.996  18.059  0.00  0.00    +0.000 OA
ATOM     27  H   UNL     1      -0.879  14.539  18.864  0.00  0.00    +0.000 HD
ENDBRANCH  23  26
ENDBRANCH   6  20
BRANCH   1  28
ATOM     28  N   UNL     1       0.687   9.046  21.711  0.00  0.00    +0.000 N 
ATOM     29  H   UNL     1       1.299   9.834  21.914  0.00  0.00    +0.000 HD
ATOM     30  H   UNL     1       0.566   8.431  22.503  0.00  0.00    +0.000 HD
ENDBRANCH   1  28
TORSDOF 6
ENDMDL
MODEL 6
REMARK VINA RESULT:      -8.9      1.088      1.726
REMARK  Name = 
REMARK  6 active torsions:
REMARK  status: ('A' for Active; 'I' for Inactive)
REMARK    1  A    between atoms: N_1  and  C_2
REMARK    2  A    between atoms: C_5  and  C_6
REMARK    3  A    between atoms: C_11  and  O_12
REMARK    4  A    between atoms: O_12  and  C_13
REMARK    5  A    between atoms: C_20  and  C_21
REMARK    6  A    between atoms: C_24  and  O_25
REMARK                            x       y       z     vdW  Elec       q    Type
REMARK                         _______ _______ _______ _____ _____    ______ ____
ROOT
ATOM      1  C   UNL     1       1.609   9.339  18.406  0.00  0.00    +0.000 A 
ATOM      2  N   UNL     1       2.331   8.580  17.559  0.00  0.00    +0.000 NA
ATOM      3  C   UNL     1       2.748   7.366  17.992  0.00  0.00    +0.000 A 
ATOM      4  C   UNL     1       2.469   6.832  19.241  0.00  0.00    +0.000 A 
ATOM      5  C   UNL     1       1.790   7.693  20.122  0.00  0.00    +0.000 A 
ATOM      6  C   UNL     1       1.337   8.975  19.738  0.00  0.00    +0.000 A 
ENDROOT
BRANCH   4   7
ATOM      7  C   UNL     1       2.780   5.431  19.615  0.00  0.00    +0.000 A 
ATOM      8  C   UNL     1       2.154   4.884  20.764  0.00  0.00    +0.000 A 
ATOM      9  C   UNL     1       2.385   3.572  21.191  0.00  0.00    +0.000 A 
ATOM     10  C   UNL     1       3.263   2.764  20.491  0.00  0.00    +0.000 A 
ATOM     11  C   UNL     1       3.895   3.265  19.356  0.00  0.00    +0.000 A 
ATOM     12  C   UNL     1       3.647   4.572  18.899  0.00  0.00    +0.000 A 
BRANCH  12  13
ATOM     13  O   UNL     1       4.436   4.891  17.811  0.00  0.00    +0.000 OA
BRANCH  13  14
ATOM     14  C   UNL     1       5.646   5.526  17.932  0.00  0.00    +0.000 A 
ATOM     15  C   UNL     1       6.388   5.127  19.053  0.00  0.00    +0.000 A 
ATOM     16  C   UNL     1       7.576   5.777  19.382  0.00  0.00    +0.000 A 
ATOM     17  C   UNL     1       8.031   6.824  18.587  0.00  0.00    +0.000 A 
ATOM     18  C   UNL     1       7.328   7.183  17.437  0.00  0.00    +0.000 A 
ATOM     19  C   UNL     1       6.151   6.511  17.089  0.00  0.00    +0.000 A 
ENDBRANCH  13  14
ENDBRANCH  12  13
ENDBRANCH   4   7
BRANCH   6  20
ATOM     20  C   UNL     1       0.569   9.798  20.714  0.00  0.00    +0.000 A 
ATOM     21  C   UNL     1       0.473  11.200  20.570  0.00  0.00    +0.000 A 
ATOM     22  C   UNL     1      -0.165  12.001  21.532  0.00  0.00    +0.000 A 
ATOM     23  C   UNL     1      -0.741  11.402  22.644  0.00  0.00    +0.000 A 
ATOM     24  C   UNL     1      -0.696  10.025  22.801  0.00  0.00    +0.000 A 
ATOM     25  C   UNL     1      -0.038   9.236  21.852  0.00  0.00    +0.000 A 
BRANCH  23  26
ATOM     26  O   UNL     1      -1.353  12.135  23.614  0.00  0.00    +0.000 OA
ATOM     27  H   UNL     1      -2.201  12.462  23.270  0.00  0.00    +0.000 HD
ENDBRANCH  23  26
ENDBRANCH   6  20
BRANCH   1  28
ATOM     28  N   UNL     1       1.123  10.504  17.819  0.00  0.00    +0.000 N 
ATOM     29  H   UNL     1       1.938  11.063  17.577  0.00  0.00    +0.000 HD
ATOM     30  H   UNL     1       0.484  10.991  18.433  0.00  0.00    +0.000 HD
ENDBRANCH   1  28
TORSDOF 6
ENDMDL
MODEL 7
REMARK VINA RESULT:      -8.8      0.999      1.344
REMARK  Name = 
REMARK  6 active torsions:
REMARK  status: ('A' for Active; 'I' for Inactive)
REMARK    1  A    between atoms: N_1  and  C_2
REMARK    2  A    between atoms: C_5  and  C_6
REMARK    3  A    between atoms: C_11  and  O_12
REMARK    4  A    between atoms: O_12  and  C_13
REMARK    5  A    between atoms: C_20  and  C_21
REMARK    6  A    between atoms: C_24  and  O_25
REMARK                            x       y       z     vdW  Elec       q    Type
REMARK                         _______ _______ _______ _____ _____    ______ ____
ROOT
ATOM      1  C   UNL     1       2.143   8.862  18.389  0.00  0.00    +0.000 A 
ATOM      2  N   UNL     1       2.870   8.126  17.526  0.00  0.00    +0.000 NA
ATOM      3  C   UNL     1       3.032   6.808  17.794  0.00  0.00    +0.000 A 
ATOM      4  C   UNL     1       2.485   6.149  18.884  0.00  0.00    +0.000 A 
ATOM      5  C   UNL     1       1.810   6.971  19.804  0.00  0.00    +0.000 A 
ATOM      6  C   UNL     1       1.614   8.355  19.591  0.00  0.00    +0.000 A 
ENDROOT
BRANCH   4   7
ATOM      7  C   UNL     1       2.525   4.676  19.049  0.00  0.00    +0.000 A 
ATOM      8  C   UNL     1       1.325   4.001  19.388  0.00  0.00    +0.000 A 
ATOM      9  C   UNL     1       1.267   2.614  19.561  0.00  0.00    +0.000 A 
ATOM     10  C   UNL     1       2.414   1.853  19.415  0.00  0.00    +0.000 A 
ATOM     11  C   UNL     1       3.611   2.479  19.081  0.00  0.00    +0.000 A 
ATOM     12  C   UNL     1       3.675   3.870  18.874  0.00  0.00    +0.000 A 
BRANCH  12  13
ATOM     13  O   UNL     1       4.968   4.291  18.632  0.00  0.00    +0.000 OA
BRANCH  13  14
ATOM     14  C   UNL     1       5.515   4.327  17.375  0.00  0.00    +0.000 A 
ATOM     15  C   UNL     1       6.877   4.659  17.356  0.00  0.00    +0.000 A 
ATOM     16  C   UNL     1       7.537   4.864  16.147  0.00  0.00    +0.000 A 
ATOM     17  C   UNL     1       6.840   4.730  14.950  0.00  0.00    +0.000 A 
ATOM     18  C   UNL     1       5.502   4.339  14.962  0.00  0.00    +0.000 A 
ATOM     19  C   UNL     1       4.845   4.104  16.175  0.00  0.00    +0.000 A 
ENDBRANCH  13  14
ENDBRANCH  12  13
ENDBRANCH   4   7
BRANCH   6  20
ATOM     20  C   UNL     1       0.832   9.141  20.585  0.00  0.00    +0.000 A 
ATOM     21  C   UNL     1      -0.021  10.191  20.177  0.00  0.00    +0.000 A 
ATOM     22  C   UNL     1      -0.691  11.003  21.107  0.00  0.00    +0.000 A 
ATOM     23  C   UNL     1      -0.536  10.757  22.464  0.00  0.00    +0.000 A 
ATOM     24  C   UNL     1       0.266   9.713  22.900  0.00  0.00    +0.000 A 
ATOM     25  C   UNL     1       0.950   8.923  21.970  0.00  0.00    +0.000 A 
BRANCH  23  26
ATOM     26  O   UNL     1      -1.149  11.528  23.405  0.00  0.00    +0.000 OA
ATOM     27  H   UNL     1      -2.088  11.616  23.173  0.00  0.00    +0.000 HD
ENDBRANCH  23  26
ENDBRANCH   6  20
BRANCH   1  28
ATOM     28  N   UNL     1       1.931  10.167  17.953  0.00  0.00    +0.000 N 
ATOM     29  H   UNL     1       2.851  10.560  17.771  0.00  0.00    +0.000 HD
ATOM     30  H   UNL     1       1.405  10.703  18.630  0.00  0.00    +0.000 HD
ENDBRANCH   1  28
TORSDOF 6
ENDMDL
MODEL 8
REMARK VINA RESULT:      -8.8      0.651      1.121
REMARK  Name = 
REMARK  6 active torsions:
REMARK  status: ('A' for Active; 'I' for Inactive)
REMARK    1  A    between atoms: N_1  and  C_2
REMARK    2  A    between atoms: C_5  and  C_6
REMARK    3  A    between atoms: C_11  and  O_12
REMARK    4  A    between atoms: O_12  and  C_13
REMARK    5  A    between atoms: C_20  and  C_21
REMARK    6  A    between atoms: C_24  and  O_25
REMARK                            x       y       z     vdW  Elec       q    Type
REMARK                         _______ _______ _______ _____ _____    ______ ____
ROOT
ATOM      1  C   UNL     1       1.640   9.176  18.605  0.00  0.00    +0.000 A 
ATOM      2  N   UNL     1       2.274   8.342  17.759  0.00  0.00    +0.000 NA
ATOM      3  C   UNL     1       2.567   7.094  18.198  0.00  0.00    +0.000 A 
ATOM      4  C   UNL     1       2.242   6.599  19.452  0.00  0.00    +0.000 A 
ATOM      5  C   UNL     1       1.663   7.531  20.332  0.00  0.00    +0.000 A 
ATOM      6  C   UNL     1       1.341   8.851  19.942  0.00  0.00    +0.000 A 
ENDROOT
BRANCH   4   7
ATOM      7  C   UNL     1       2.410   5.176  19.834  0.00  0.00    +0.000 A 
ATOM      8  C   UNL     1       2.038   4.780  21.143  0.00  0.00    +0.000 A 
ATOM      9  C   UNL     1       2.158   3.460  21.591  0.00  0.00    +0.000 A 
ATOM     10  C   UNL     1       2.669   2.490  20.747  0.00  0.00    +0.000 A 
ATOM     11  C   UNL     1       3.044   2.840  19.452  0.00  0.00    +0.000 A 
ATOM     12  C   UNL     1       2.899   4.158  18.981  0.00  0.00    +0.000 A 
BRANCH  12  13
ATOM     13  O   UNL     1       3.404   4.303  17.704  0.00  0.00    +0.000 OA
BRANCH  13  14
ATOM     14  C   UNL     1       4.739   4.493  17.451  0.00  0.00    +0.000 A 
ATOM     15  C   UNL     1       5.104   4.261  16.117  0.00  0.00    +0.000 A 
ATOM     16  C   UNL     1       6.444   4.285  15.737  0.00  0.00    +0.000 A 
ATOM     17  C   UNL     1       7.425   4.548  16.688  0.00  0.00    +0.000 A 
ATOM     18  C   UNL     1       7.062   4.841  18.003  0.00  0.00    +0.000 A 
ATOM     19  C   UNL     1       5.714   4.846  18.379  0.00  0.00    +0.000 A 
ENDBRANCH  13  14
ENDBRANCH  12  13
ENDBRANCH   4   7
BRANCH   6  20
ATOM     20  C   UNL     1       0.669   9.755  20.917  0.00  0.00    +0.000 A 
ATOM     21  C   UNL     1       0.044   9.242  22.076  0.00  0.00    +0.000 A 
ATOM     22  C   UNL     1      -0.674  10.069  22.955  0.00  0.00    +0.000 A 
ATOM     23  C   UNL     1      -0.755  11.430  22.698  0.00  0.00    +0.000 A 
ATOM     24  C   UNL     1      -0.125  11.973  21.589  0.00  0.00    +0.000 A 
ATOM     25  C   UNL     1       0.569  11.141  20.704  0.00  0.00    +0.000 A 
BRANCH  23  26
ATOM     26  O   UNL     1      -1.456  12.271  23.509  0.00  0.00    +0.000 OA
ATOM     27  H   UNL     1      -1.920  12.922  22.957  0.00  0.00    +0.000 HD
ENDBRANCH  23  26
ENDBRANCH   6  20
BRANCH   1  28
ATOM     28  N   UNL     1       1.273  10.382  18.014  0.00  0.00    +0.000 N 
ATOM     29  H   UNL     1       1.245  10.210  17.011  0.00  0.00    +0.000 HD
ATOM     30  H   UNL     1       1.908  11.127  18.265  0.00  0.00    +0.000 HD
ENDBRANCH   1  28
TORSDOF 6
ENDMDL
MODEL 9
REMARK VINA RESULT:      -8.8      3.065      8.252
REMARK  Name = 
REMARK  6 active torsions:
REMARK  status: ('A' for Active; 'I' for Inactive)
REMARK    1  A    between atoms: N_1  and  C_2
REMARK    2  A    between atoms: C_5  and  C_6
REMARK    3  A    between atoms: C_11  and  O_12
REMARK    4  A    between atoms: O_12  and  C_13
REMARK    5  A    between atoms: C_20  and  C_21
REMARK    6  A    between atoms: C_24  and  O_25
REMARK                            x       y       z     vdW  Elec       q    Type
REMARK                         _______ _______ _______ _____ _____    ______ ____
ROOT
ATOM      1  C   UNL     1       7.021   4.508  17.697  0.00  0.00    +0.000 A 
ATOM      2  N   UNL     1       6.702   4.595  19.003  0.00  0.00    +0.000 NA
ATOM      3  C   UNL     1       5.399   4.464  19.349  0.00  0.00    +0.000 A 
ATOM      4  C   UNL     1       4.364   4.224  18.457  0.00  0.00    +0.000 A 
ATOM      5  C   UNL     1       4.729   4.230  17.099  0.00  0.00    +0.000 A 
ATOM      6  C   UNL     1       6.068   4.372  16.670  0.00  0.00    +0.000 A 
ENDROOT
BRANCH   4   7
ATOM      7  C   UNL     1       2.981   3.901  18.884  0.00  0.00    +0.000 A 
ATOM      8  C   UNL     1       2.376   2.723  18.381  0.00  0.00    +0.000 A 
ATOM      9  C   UNL     1       1.078   2.336  18.729  0.00  0.00    +0.000 A 
ATOM     10  C   UNL     1       0.330   3.127  19.585  0.00  0.00    +0.000 A 
ATOM     11  C   UNL     1       0.890   4.292  20.102  0.00  0.00    +0.000 A 
ATOM     12  C   UNL     1       2.207   4.674  19.782  0.00  0.00    +0.000 A 
BRANCH  12  13
ATOM     13  O   UNL     1       2.532   5.897  20.335  0.00  0.00    +0.000 OA
BRANCH  13  14
ATOM     14  C   UNL     1       2.068   7.086  19.832  0.00  0.00    +0.000 A 
ATOM     15  C   UNL     1       2.415   7.311  18.492  0.00  0.00    +0.000 A 
ATOM     16  C   UNL     1       2.129   8.531  17.883  0.00  0.00    +0.000 A 
ATOM     17  C   UNL     1       1.487   9.529  18.610  0.00  0.00    +0.000 A 
ATOM     18  C   UNL     1       1.085   9.287  19.923  0.00  0.00    +0.000 A 
ATOM     19  C   UNL     1       1.345   8.052  20.526  0.00  0.00    +0.000 A 
ENDBRANCH  13  14
ENDBRANCH  12  13
ENDBRANCH   4   7
BRANCH   6  20
ATOM     20  C   UNL     1       6.377   4.302  15.214  0.00  0.00    +0.000 A 
ATOM     21  C   UNL     1       7.392   5.103  14.645  0.00  0.00    +0.000 A 
ATOM     22  C   UNL     1       7.632   5.120  13.261  0.00  0.00    +0.000 A 
ATOM     23  C   UNL     1       6.871   4.312  12.428  0.00  0.00    +0.000 A 
ATOM     24  C   UNL     1       5.890   3.488  12.955  0.00  0.00    +0.000 A 
ATOM     25  C   UNL     1       5.640   3.493  14.331  0.00  0.00    +0.000 A 
BRANCH  23  26
ATOM     26  O   UNL     1       7.051   4.307  11.077  0.00  0.00    +0.000 OA
ATOM     27  H   UNL     1       7.971   4.062  10.886  0.00  0.00    +0.000 HD
ENDBRANCH  23  26
ENDBRANCH   6  20
BRANCH   1  28
ATOM     28  N   UNL     1       8.394   4.525  17.466  0.00  0.00    +0.000 N 
ATOM     29  H   UNL     1       8.722   5.440  17.767  0.00  0.00    +0.000 HD
ATOM     30  H   UNL     1       8.610   4.333  16.498  0.00  0.00    +0.000 HD
ENDBRANCH   1  28
TORSDOF 6
ENDMDL
