MODEL 1
REMARK VINA RESULT:      -8.8      0.000      0.000
REMARK  Name = 
REMARK  6 active torsions:
REMARK  status: ('A' for Active; 'I' for Inactive)
REMARK    1  A    between atoms: C_1  and  C_2
REMARK    2  A    between atoms: C_5  and  C_6
REMARK    3  A    between atoms: C_9  and  C_10
REMARK    4  A    between atoms: C_10  and  C_11
REMARK    5  A    between atoms: C_11  and  N_12
REMARK    6  A    between atoms: C_13  and  C_15
REMARK                            x       y       z     vdW  Elec       q    Type
REMARK                         _______ _______ _______ _____ _____    ______ ____
ROOT
ATOM      1  C   UNL     1       6.183   5.717  17.723  0.00  0.00    +0.000 C 
ENDROOT
BRANCH   1   2
ATOM      2  N   UNL     1       5.454   4.569  18.253  0.00  0.00    +0.000 N 
ATOM      3  C   UNL     1       4.678   3.825  17.399  0.00  0.00    +0.000 C 
ATOM      4  O   UNL     1       4.700   4.065  16.191  0.00  0.00    +0.000 OA
ATOM      5  H   UNL     1       5.347   4.469  19.259  0.00  0.00    +0.000 HD
BRANCH   3   6
ATOM      6  C   UNL     1       3.889   2.642  17.959  0.00  0.00    +0.000 C 
ATOM      7  C   UNL     1       2.438   2.620  17.443  0.00  0.00    +0.000 C 
ATOM      8  C   UNL     1       1.622   3.913  17.627  0.00  0.00    +0.000 C 
ATOM      9  C   UNL     1       1.897   4.718  18.896  0.00  0.00    +0.000 C 
ATOM     10  C   UNL     1       1.870   3.861  20.151  0.00  0.00    +0.000 C 
ATOM     11  N   UNL     1       3.037   3.033  20.341  0.00  0.00    +0.000 N 
ATOM     12  N   UNL     1       3.303   2.559  21.569  0.00  0.00    +0.000 NA
ATOM     13  N   UNL     1       4.378   1.802  21.430  0.00  0.00    +0.000 NA
ATOM     14  N   UNL     1       4.797   1.781  20.125  0.00  0.00    +0.000 NA
ATOM     15  C   UNL     1       3.949   2.533  19.447  0.00  0.00    +0.000 A 
ENDBRANCH   3   6
ENDBRANCH   1   2
BRANCH   1  16
ATOM     16  C   UNL     1       7.505   6.010  18.442  0.00  0.00    +0.000 C 
BRANCH  16  20
ATOM     17  C   UNL     1       8.577   9.412  18.282  0.00  0.00    +0.000 A 
ATOM     18  N   UNL     1       7.813   9.375  17.183  0.00  0.00    +0.000 NA
ATOM     19  O   UNL     1       7.362   8.058  17.131  0.00  0.00    +0.000 OA
ATOM     20  C   UNL     1       7.901   7.422  18.209  0.00  0.00    +0.000 A 
ATOM     21  N   UNL     1       8.678   8.196  18.931  0.00  0.00    +0.000 NA
BRANCH  17  26
ATOM     22  C   UNL     1      11.063  14.182  20.407  0.00  0.00    +0.000 C 
ATOM     23  C   UNL     1      10.429  12.944  19.841  0.00  0.00    +0.000 A 
ATOM     24  C   UNL     1       9.940  12.922  18.531  0.00  0.00    +0.000 A 
ATOM     25  C   UNL     1       9.349  11.764  18.014  0.00  0.00    +0.000 A 
ATOM     26  C   UNL     1       9.226  10.612  18.805  0.00  0.00    +0.000 A 
ATOM     27  C   UNL     1       9.710  10.643  20.120  0.00  0.00    +0.000 A 
ATOM     28  C   UNL     1      10.308  11.799  20.634  0.00  0.00    +0.000 A 
ENDBRANCH  17  26
ENDBRANCH  16  20
ENDBRANCH   1  16
TORSDOF 5
ENDMDL
MODEL 2
REMARK VINA RESULT:      -8.8      1.735      2.269
REMARK  Name = 
REMARK  6 active torsions:
REMARK  status: ('A' for Active; 'I' for Inactive)
REMARK    1  A    between atoms: C_1  and  C_2
REMARK    2  A    between atoms: C_5  and  C_6
REMARK    3  A    between atoms: C_9  and  C_10
REMARK    4  A    between atoms: C_10  and  C_11
REMARK    5  A    between atoms: C_11  and  N_12
REMARK    6  A    between atoms: C_13  and  C_15
REMARK                            x       y       z     vdW  Elec       q    Type
REMARK                         _______ _______ _______ _____ _____    ______ ____
ROOT
ATOM      1  C   UNL     1       6.573   5.436  19.335  0.00  0.00    +0.000 C 
ENDROOT
BRANCH   1   2
ATOM      2  N   UNL     1       5.257   5.585  18.721  0.00  0.00    +0.000 N 
ATOM      3  C   UNL     1       4.403   4.511  18.718  0.00  0.00    +0.000 C 
ATOM      4  O   UNL     1       4.710   3.486  19.329  0.00  0.00    +0.000 OA
ATOM      5  H   UNL     1       5.077   6.383  18.117  0.00  0.00    +0.000 HD
BRANCH   3   6
ATOM      6  C   UNL     1       3.037   4.654  18.048  0.00  0.00    +0.000 C 
ATOM      7  C   UNL     1       2.414   6.040  18.299  0.00  0.00    +0.000 C 
ATOM      8  C   UNL     1       2.315   6.495  19.766  0.00  0.00    +0.000 C 
ATOM      9  C   UNL     1       2.030   5.407  20.799  0.00  0.00    +0.000 C 
ATOM     10  C   UNL     1       0.855   4.523  20.412  0.00  0.00    +0.000 C 
ATOM     11  N   UNL     1       1.142   3.561  19.376  0.00  0.00    +0.000 N 
ATOM     12  N   UNL     1       0.335   2.495  19.240  0.00  0.00    +0.000 NA
ATOM     13  N   UNL     1       0.800   1.831  18.195  0.00  0.00    +0.000 NA
ATOM     14  N   UNL     1       1.890   2.466  17.657  0.00  0.00    +0.000 NA
ATOM     15  C   UNL     1       2.087   3.552  18.382  0.00  0.00    +0.000 A 
ENDBRANCH   3   6
ENDBRANCH   1   2
BRANCH   1  16
ATOM     16  C   UNL     1       7.746   5.667  18.374  0.00  0.00    +0.000 C 
BRANCH  16  20
ATOM     17  C   UNL     1       8.396   9.175  18.249  0.00  0.00    +0.000 A 
ATOM     18  N   UNL     1       7.492   9.089  17.264  0.00  0.00    +0.000 NA
ATOM     19  O   UNL     1       7.189   7.730  17.204  0.00  0.00    +0.000 OA
ATOM     20  C   UNL     1       7.944   7.124  18.164  0.00  0.00    +0.000 A 
ATOM     21  N   UNL     1       8.722   7.957  18.814  0.00  0.00    +0.000 NA
BRANCH  17  26
ATOM     22  C   UNL     1      10.757  14.106  20.134  0.00  0.00    +0.000 C 
ATOM     23  C   UNL     1      10.134  12.825  19.661  0.00  0.00    +0.000 A 
ATOM     24  C   UNL     1      10.141  11.681  20.466  0.00  0.00    +0.000 A 
ATOM     25  C   UNL     1       9.560  10.492  20.013  0.00  0.00    +0.000 A 
ATOM     26  C   UNL     1       8.972  10.424  18.741  0.00  0.00    +0.000 A 
ATOM     27  C   UNL     1       8.975  11.571  17.936  0.00  0.00    +0.000 A 
ATOM     28  C   UNL     1       9.550  12.762  18.392  0.00  0.00    +0.000 A 
ENDBRANCH  17  26
ENDBRANCH  16  20
ENDBRANCH   1  16
TORSDOF 5
ENDMDL
MODEL 3
REMARK VINA RESULT:      -8.8      1.182      1.748
REMARK  Name = 
REMARK  6 active torsions:
REMARK  status: ('A' for Active; 'I' for Inactive)
REMARK    1  A    between atoms: C_1  and  C_2
REMARK    2  A    between atoms: C_5  and  C_6
REMARK    3  A    between atoms: C_9  and  C_10
REMARK    4  A    between atoms: C_10  and  C_11
REMARK    5  A    between atoms: C_11  and  N_12
REMARK    6  A    between atoms: C_13  and  C_15
REMARK                            x       y       z     vdW  Elec       q    Type
REMARK                         _______ _______ _______ _____ _____    ______ ____
ROOT
ATOM      1  C   UNL     1       6.114   5.899  18.433  0.00  0.00    +0.000 C 
ENDROOT
BRANCH   1   2
ATOM      2  N   UNL     1       5.631   4.537  18.642  0.00  0.00    +0.000 N 
ATOM      3  C   UNL     1       4.461   4.348  19.336  0.00  0.00    +0.000 C 
ATOM      4  O   UNL     1       3.785   5.324  19.667  0.00  0.00    +0.000 OA
ATOM      5  H   UNL     1       6.259   3.755  18.478  0.00  0.00    +0.000 HD
BRANCH   3   6
ATOM      6  C   UNL     1       3.970   2.923  19.582  0.00  0.00    +0.000 C 
ATOM      7  C   UNL     1       3.664   2.182  18.267  0.00  0.00    +0.000 C 
ATOM      8  C   UNL     1       2.713   2.889  17.284  0.00  0.00    +0.000 C 
ATOM      9  C   UNL     1       1.581   3.708  17.901  0.00  0.00    +0.000 C 
ATOM     10  C   UNL     1       0.811   2.938  18.962  0.00  0.00    +0.000 C 
ATOM     11  N   UNL     1       1.495   2.806  20.225  0.00  0.00    +0.000 N 
ATOM     12  N   UNL     1       0.778   2.514  21.323  0.00  0.00    +0.000 NA
ATOM     13  N   UNL     1       1.661   2.399  22.301  0.00  0.00    +0.000 NA
ATOM     14  N   UNL     1       2.934   2.607  21.838  0.00  0.00    +0.000 NA
ATOM     15  C   UNL     1       2.829   2.841  20.542  0.00  0.00    +0.000 A 
ENDBRANCH   3   6
ENDBRANCH   1   2
BRANCH   1  16
ATOM     16  C   UNL     1       7.642   6.027  18.409  0.00  0.00    +0.000 C 
BRANCH  16  20
ATOM     17  C   UNL     1       8.659   9.448  18.308  0.00  0.00    +0.000 A 
ATOM     18  N   UNL     1       7.943   9.404  17.177  0.00  0.00    +0.000 NA
ATOM     19  O   UNL     1       7.518   8.079  17.100  0.00  0.00    +0.000 OA
ATOM     20  C   UNL     1       8.023   7.448  18.198  0.00  0.00    +0.000 A 
ATOM     21  N   UNL     1       8.753   8.232  18.956  0.00  0.00    +0.000 NA
BRANCH  17  26
ATOM     22  C   UNL     1      11.139  14.209  20.461  0.00  0.00    +0.000 C 
ATOM     23  C   UNL     1      10.482  12.974  19.916  0.00  0.00    +0.000 A 
ATOM     24  C   UNL     1      10.165  11.899  20.752  0.00  0.00    +0.000 A 
ATOM     25  C   UNL     1       9.555  10.752  20.231  0.00  0.00    +0.000 A 
ATOM     26  C   UNL     1       9.263  10.657  18.863  0.00  0.00    +0.000 A 
ATOM     27  C   UNL     1       9.591  11.735  18.028  0.00  0.00    +0.000 A 
ATOM     28  C   UNL     1      10.194  12.885  18.550  0.00  0.00    +0.000 A 
ENDBRANCH  17  26
ENDBRANCH  16  20
ENDBRANCH   1  16
TORSDOF 5
ENDMDL
MODEL 4
REMARK VINA RESULT:      -8.8      1.266      1.790
REMARK  Name = 
REMARK  6 active torsions:
REMARK  status: ('A' for Active; 'I' for Inactive)
REMARK    1  A    between atoms: C_1  and  C_2
REMARK    2  A    between atoms: C_5  and  C_6
REMARK    3  A    between atoms: C_9  and  C_10
REMARK    4  A    between atoms: C_10  and  C_11
REMARK    5  A    between atoms: C_11  and  N_12
REMARK    6  A    between atoms: C_13  and  C_15
REMARK                            x       y       z     vdW  Elec       q    Type
REMARK                         _______ _______ _______ _____ _____    ______ ____
ROOT
ATOM      1  C   UNL     1       6.312   5.349  16.624  0.00  0.00    +0.000 C 
ENDROOT
BRANCH   1   2
ATOM      2  N   UNL     1       5.003   4.776  16.925  0.00  0.00    +0.000 N 
ATOM      3  C   UNL     1       4.801   4.196  18.153  0.00  0.00    +0.000 C 
ATOM      4  O   UNL     1       5.679   4.271  19.014  0.00  0.00    +0.000 OA
ATOM      5  H   UNL     1       4.346   4.611  16.168  0.00  0.00    +0.000 HD
BRANCH   3   6
ATOM      6  C   UNL     1       3.442   3.569  18.459  0.00  0.00    +0.000 C 
ATOM      7  C   UNL     1       2.291   4.313  17.757  0.00  0.00    +0.000 C 
ATOM      8  C   UNL     1       2.215   5.834  17.982  0.00  0.00    +0.000 C 
ATOM      9  C   UNL     1       2.631   6.340  19.362  0.00  0.00    +0.000 C 
ATOM     10  C   UNL     1       1.960   5.577  20.493  0.00  0.00    +0.000 C 
ATOM     11  N   UNL     1       2.501   4.262  20.736  0.00  0.00    +0.000 N 
ATOM     12  N   UNL     1       2.274   3.677  21.925  0.00  0.00    +0.000 NA
ATOM     13  N   UNL     1       2.830   2.480  21.841  0.00  0.00    +0.000 NA
ATOM     14  N   UNL     1       3.402   2.291  20.610  0.00  0.00    +0.000 NA
ATOM     15  C   UNL     1       3.179   3.394  19.919  0.00  0.00    +0.000 A 
ENDBRANCH   3   6
ENDBRANCH   1   2
BRANCH   1  16
ATOM     16  C   UNL     1       6.293   6.861  16.368  0.00  0.00    +0.000 C 
BRANCH  16  20
ATOM     17  C   UNL     1       8.427   8.828  18.448  0.00  0.00    +0.000 A 
ATOM     18  N   UNL     1       8.641   7.625  18.997  0.00  0.00    +0.000 NA
ATOM     19  O   UNL     1       7.816   6.771  18.268  0.00  0.00    +0.000 OA
ATOM     20  C   UNL     1       7.178   7.545  17.345  0.00  0.00    +0.000 A 
ATOM     21  N   UNL     1       7.493   8.817  17.429  0.00  0.00    +0.000 NA
BRANCH  17  26
ATOM     22  C   UNL     1      11.281  13.632  19.940  0.00  0.00    +0.000 C 
ATOM     23  C   UNL     1      10.526  12.390  19.562  0.00  0.00    +0.000 A 
ATOM     24  C   UNL     1       9.937  11.582  20.540  0.00  0.00    +0.000 A 
ATOM     25  C   UNL     1       9.238  10.426  20.177  0.00  0.00    +0.000 A 
ATOM     26  C   UNL     1       9.125  10.053  18.830  0.00  0.00    +0.000 A 
ATOM     27  C   UNL     1       9.725  10.863  17.855  0.00  0.00    +0.000 A 
ATOM     28  C   UNL     1      10.418  12.023  18.217  0.00  0.00    +0.000 A 
ENDBRANCH  17  26
ENDBRANCH  16  20
ENDBRANCH   1  16
TORSDOF 5
ENDMDL
MODEL 5
REMARK VINA RESULT:      -8.8      1.196      1.598
REMARK  Name = 
REMARK  6 active torsions:
REMARK  status: ('A' for Active; 'I' for Inactive)
REMARK    1  A    between atoms: C_1  and  C_2
REMARK    2  A    between atoms: C_5  and  C_6
REMARK    3  A    between atoms: C_9  and  C_10
REMARK    4  A    between atoms: C_10  and  C_11
REMARK    5  A    between atoms: C_11  and  N_12
REMARK    6  A    between atoms: C_13  and  C_15
REMARK                            x       y       z     vdW  Elec       q    Type
REMARK                         _______ _______ _______ _____ _____    ______ ____
ROOT
ATOM      1  C   UNL     1       5.331   5.403  15.990  0.00  0.00    +0.000 C 
ENDROOT
BRANCH   1   2
ATOM      2  N   UNL     1       4.692   4.165  16.424  0.00  0.00    +0.000 N 
ATOM      3  C   UNL     1       4.397   4.002  17.755  0.00  0.00    +0.000 C 
ATOM      4  O   UNL     1       4.569   4.940  18.535  0.00  0.00    +0.000 OA
ATOM      5  H   UNL     1       4.678   3.365  15.796  0.00  0.00    +0.000 HD
BRANCH   3   6
ATOM      6  C   UNL     1       3.756   2.694  18.216  0.00  0.00    +0.000 C 
ATOM      7  C   UNL     1       2.337   2.515  17.646  0.00  0.00    +0.000 C 
ATOM      8  C   UNL     1       1.352   3.676  17.874  0.00  0.00    +0.000 C 
ATOM      9  C   UNL     1       1.481   4.430  19.196  0.00  0.00    +0.000 C 
ATOM     10  C   UNL     1       1.531   3.501  20.398  0.00  0.00    +0.000 C 
ATOM     11  N   UNL     1       2.792   2.823  20.583  0.00  0.00    +0.000 N 
ATOM     12  N   UNL     1       3.082   2.313  21.791  0.00  0.00    +0.000 NA
ATOM     13  N   UNL     1       4.251   1.712  21.649  0.00  0.00    +0.000 NA
ATOM     14  N   UNL     1       4.707   1.827  20.361  0.00  0.00    +0.000 NA
ATOM     15  C   UNL     1       3.787   2.502  19.696  0.00  0.00    +0.000 A 
ENDBRANCH   3   6
ENDBRANCH   1   2
BRANCH   1  16
ATOM     16  C   UNL     1       6.864   5.369  16.033  0.00  0.00    +0.000 C 
BRANCH  16  20
ATOM     17  C   UNL     1       8.093   8.050  18.044  0.00  0.00    +0.000 A 
ATOM     18  N   UNL     1       8.311   7.032  18.887  0.00  0.00    +0.000 NA
ATOM     19  O   UNL     1       7.828   5.919  18.202  0.00  0.00    +0.000 OA
ATOM     20  C   UNL     1       7.361   6.376  17.005  0.00  0.00    +0.000 A 
ATOM     21  N   UNL     1       7.472   7.676  16.868  0.00  0.00    +0.000 NA
BRANCH  17  26
ATOM     22  C   UNL     1       9.630  13.527  19.086  0.00  0.00    +0.000 C 
ATOM     23  C   UNL     1       9.238  12.107  18.798  0.00  0.00    +0.000 A 
ATOM     24  C   UNL     1       8.456  11.789  17.683  0.00  0.00    +0.000 A 
ATOM     25  C   UNL     1       8.093  10.462  17.427  0.00  0.00    +0.000 A 
ATOM     26  C   UNL     1       8.498   9.432  18.288  0.00  0.00    +0.000 A 
ATOM     27  C   UNL     1       9.275   9.758  19.409  0.00  0.00    +0.000 A 
ATOM     28  C   UNL     1       9.643  11.084  19.661  0.00  0.00    +0.000 A 
ENDBRANCH  17  26
ENDBRANCH  16  20
ENDBRANCH   1  16
TORSDOF 5
ENDMDL
MODEL 6
REMARK VINA RESULT:      -8.7      3.638      6.632
REMARK  Name = 
REMARK  6 active torsions:
REMARK  status: ('A' for Active; 'I' for Inactive)
REMARK    1  A    between atoms: C_1  and  C_2
REMARK    2  A    between atoms: C_5  and  C_6
REMARK    3  A    between atoms: C_9  and  C_10
REMARK    4  A    between atoms: C_10  and  C_11
REMARK    5  A    between atoms: C_11  and  N_12
REMARK    6  A    between atoms: C_13  and  C_15
REMARK                            x       y       z     vdW  Elec       q    Type
REMARK                         _______ _______ _______ _____ _____    ______ ____
ROOT
ATOM      1  C   UNL     1       7.197   6.007  19.324  0.00  0.00    +0.000 C 
ENDROOT
BRANCH   1   2
ATOM      2  N   UNL     1       6.512   4.737  19.105  0.00  0.00    +0.000 N 
ATOM      3  C   UNL     1       5.196   4.622  19.478  0.00  0.00    +0.000 C 
ATOM      4  O   UNL     1       4.587   5.614  19.880  0.00  0.00    +0.000 OA
ATOM      5  H   UNL     1       7.059   3.906  18.897  0.00  0.00    +0.000 HD
BRANCH   3   6
ATOM      6  C   UNL     1       4.486   3.283  19.278  0.00  0.00    +0.000 C 
ATOM      7  C   UNL     1       4.125   3.036  17.802  0.00  0.00    +0.000 C 
ATOM      8  C   UNL     1       3.332   4.148  17.091  0.00  0.00    +0.000 C 
ATOM      9  C   UNL     1       2.312   4.906  17.939  0.00  0.00    +0.000 C 
ATOM     10  C   UNL     1       1.393   3.980  18.717  0.00  0.00    +0.000 C 
ATOM     11  N   UNL     1       1.998   3.363  19.873  0.00  0.00    +0.000 N 
ATOM     12  N   UNL     1       1.201   2.866  20.834  0.00  0.00    +0.000 NA
ATOM     13  N   UNL     1       2.016   2.323  21.723  0.00  0.00    +0.000 NA
ATOM     14  N   UNL     1       3.324   2.461  21.336  0.00  0.00    +0.000 NA
ATOM     15  C   UNL     1       3.308   3.092  20.175  0.00  0.00    +0.000 A 
ENDBRANCH   3   6
ENDBRANCH   1   2
BRANCH   1  16
ATOM     16  C   UNL     1       7.791   6.629  18.054  0.00  0.00    +0.000 C 
BRANCH  16  20
ATOM     17  C   UNL     1       6.298   5.287  15.102  0.00  0.00    +0.000 A 
ATOM     18  N   UNL     1       5.486   6.334  15.296  0.00  0.00    +0.000 NA
ATOM     19  O   UNL     1       5.968   6.922  16.464  0.00  0.00    +0.000 OA
ATOM     20  C   UNL     1       7.030   6.167  16.866  0.00  0.00    +0.000 A 
ATOM     21  N   UNL     1       7.257   5.137  16.084  0.00  0.00    +0.000 NA
BRANCH  17  26
ATOM     22  C   UNL     1       6.053   1.816  10.483  0.00  0.00    +0.000 C 
ATOM     23  C   UNL     1       6.110   2.703  11.692  0.00  0.00    +0.000 A 
ATOM     24  C   UNL     1       4.991   2.870  12.515  0.00  0.00    +0.000 A 
ATOM     25  C   UNL     1       5.055   3.702  13.638  0.00  0.00    +0.000 A 
ATOM     26  C   UNL     1       6.236   4.390  13.951  0.00  0.00    +0.000 A 
ATOM     27  C   UNL     1       7.352   4.224  13.118  0.00  0.00    +0.000 A 
ATOM     28  C   UNL     1       7.290   3.387  12.000  0.00  0.00    +0.000 A 
ENDBRANCH  17  26
ENDBRANCH  16  20
ENDBRANCH   1  16
TORSDOF 5
ENDMDL
MODEL 7
REMARK VINA RESULT:      -8.7      4.969      6.975
REMARK  Name = 
REMARK  6 active torsions:
REMARK  status: ('A' for Active; 'I' for Inactive)
REMARK    1  A    between atoms: C_1  and  C_2
REMARK    2  A    between atoms: C_5  and  C_6
REMARK    3  A    between atoms: C_9  and  C_10
REMARK    4  A    between atoms: C_10  and  C_11
REMARK    5  A    between atoms: C_11  and  N_12
REMARK    6  A    between atoms: C_13  and  C_15
REMARK                            x       y       z     vdW  Elec       q    Type
REMARK                         _______ _______ _______ _____ _____    ______ ____
ROOT
ATOM      1  C   UNL     1       3.705   7.316  17.748  0.00  0.00    +0.000 C 
ENDROOT
BRANCH   1   2
ATOM      2  N   UNL     1       3.342   5.902  17.739  0.00  0.00    +0.000 N 
ATOM      3  C   UNL     1       3.884   5.073  18.690  0.00  0.00    +0.000 C 
ATOM      4  O   UNL     1       4.568   5.551  19.596  0.00  0.00    +0.000 OA
ATOM      5  H   UNL     1       2.888   5.509  16.918  0.00  0.00    +0.000 HD
BRANCH   3   6
ATOM      6  C   UNL     1       3.530   3.587  18.663  0.00  0.00    +0.000 C 
ATOM      7  C   UNL     1       2.030   3.355  18.402  0.00  0.00    +0.000 C 
ATOM      8  C   UNL     1       1.047   4.099  19.325  0.00  0.00    +0.000 C 
ATOM      9  C   UNL     1       1.482   4.279  20.779  0.00  0.00    +0.000 C 
ATOM     10  C   UNL     1       1.965   2.984  21.411  0.00  0.00    +0.000 C 
ATOM     11  N   UNL     1       3.283   2.567  20.997  0.00  0.00    +0.000 N 
ATOM     12  N   UNL     1       3.957   1.693  21.765  0.00  0.00    +0.000 NA
ATOM     13  N   UNL     1       5.086   1.456  21.119  0.00  0.00    +0.000 NA
ATOM     14  N   UNL     1       5.138   2.162  19.945  0.00  0.00    +0.000 NA
ATOM     15  C   UNL     1       4.005   2.837  19.864  0.00  0.00    +0.000 A 
ENDBRANCH   3   6
ENDBRANCH   1   2
BRANCH   1  16
ATOM     16  C   UNL     1       2.531   8.268  17.490  0.00  0.00    +0.000 C 
BRANCH  16  20
ATOM     17  C   UNL     1       0.693   9.261  20.385  0.00  0.00    +0.000 A 
ATOM     18  N   UNL     1       1.369   8.228  20.904  0.00  0.00    +0.000 NA
ATOM     19  O   UNL     1       2.108   7.737  19.830  0.00  0.00    +0.000 OA
ATOM     20  C   UNL     1       1.804   8.524  18.760  0.00  0.00    +0.000 A 
ATOM     21  N   UNL     1       0.920   9.455  19.036  0.00  0.00    +0.000 NA
BRANCH  17  26
ATOM     22  C   UNL     1      -2.685  12.857  23.404  0.00  0.00    +0.000 C 
ATOM     23  C   UNL     1      -1.818  11.909  22.626  0.00  0.00    +0.000 A 
ATOM     24  C   UNL     1      -1.227  10.802  23.245  0.00  0.00    +0.000 A 
ATOM     25  C   UNL     1      -0.419   9.928  22.511  0.00  0.00    +0.000 A 
ATOM     26  C   UNL     1      -0.179  10.152  21.148  0.00  0.00    +0.000 A 
ATOM     27  C   UNL     1      -0.767  11.267  20.535  0.00  0.00    +0.000 A 
ATOM     28  C   UNL     1      -1.581  12.137  21.267  0.00  0.00    +0.000 A 
ENDBRANCH  17  26
ENDBRANCH  16  20
ENDBRANCH   1  16
TORSDOF 5
ENDMDL
MODEL 8
REMARK VINA RESULT:      -8.7      4.865      7.033
REMARK  Name = 
REMARK  6 active torsions:
REMARK  status: ('A' for Active; 'I' for Inactive)
REMARK    1  A    between atoms: C_1  and  C_2
REMARK    2  A    between atoms: C_5  and  C_6
REMARK    3  A    between atoms: C_9  and  C_10
REMARK    4  A    between atoms: C_10  and  C_11
REMARK    5  A    between atoms: C_11  and  N_12
REMARK    6  A    between atoms: C_13  and  C_15
REMARK                            x       y       z     vdW  Elec       q    Type
REMARK                         _______ _______ _______ _____ _____    ______ ____
ROOT
ATOM      1  C   UNL     1       3.153   1.924  18.311  0.00  0.00    +0.000 C 
ENDROOT
BRANCH   1   2
ATOM      2  N   UNL     1       4.000   3.109  18.410  0.00  0.00    +0.000 N 
ATOM      3  C   UNL     1       3.830   4.122  17.499  0.00  0.00    +0.000 C 
ATOM      4  O   UNL     1       2.900   4.068  16.694  0.00  0.00    +0.000 OA
ATOM      5  H   UNL     1       4.835   3.078  18.990  0.00  0.00    +0.000 HD
BRANCH   3   6
ATOM      6  C   UNL     1       4.737   5.350  17.581  0.00  0.00    +0.000 C 
ATOM      7  C   UNL     1       5.008   5.961  16.194  0.00  0.00    +0.000 C 
ATOM      8  C   UNL     1       5.539   5.003  15.111  0.00  0.00    +0.000 C 
ATOM      9  C   UNL     1       6.485   3.900  15.582  0.00  0.00    +0.000 C 
ATOM     10  C   UNL     1       7.609   4.426  16.459  0.00  0.00    +0.000 C 
ATOM     11  N   UNL     1       7.217   4.759  17.807  0.00  0.00    +0.000 N 
ATOM     12  N   UNL     1       8.164   4.842  18.756  0.00  0.00    +0.000 NA
ATOM     13  N   UNL     1       7.530   5.213  19.856  0.00  0.00    +0.000 NA
ATOM     14  N   UNL     1       6.189   5.374  19.617  0.00  0.00    +0.000 NA
ATOM     15  C   UNL     1       6.002   5.110  18.337  0.00  0.00    +0.000 A 
ENDBRANCH   3   6
ENDBRANCH   1   2
BRANCH   1  16
ATOM     16  C   UNL     1       1.937   1.941  19.245  0.00  0.00    +0.000 C 
BRANCH  16  20
ATOM     17  C   UNL     1       1.700   5.245  20.576  0.00  0.00    +0.000 A 
ATOM     18  N   UNL     1       2.300   4.640  21.609  0.00  0.00    +0.000 NA
ATOM     19  O   UNL     1       2.414   3.313  21.201  0.00  0.00    +0.000 OA
ATOM     20  C   UNL     1       1.866   3.243  19.955  0.00  0.00    +0.000 A 
ATOM     21  N   UNL     1       1.387   4.391  19.535  0.00  0.00    +0.000 NA
BRANCH  17  26
ATOM     22  C   UNL     1       0.699  10.934  20.297  0.00  0.00    +0.000 C 
ATOM     23  C   UNL     1       0.941   9.454  20.371  0.00  0.00    +0.000 A 
ATOM     24  C   UNL     1       0.392   8.687  21.403  0.00  0.00    +0.000 A 
ATOM     25  C   UNL     1       0.626   7.309  21.463  0.00  0.00    +0.000 A 
ATOM     26  C   UNL     1       1.423   6.677  20.497  0.00  0.00    +0.000 A 
ATOM     27  C   UNL     1       1.978   7.453  19.470  0.00  0.00    +0.000 A 
ATOM     28  C   UNL     1       1.737   8.830  19.406  0.00  0.00    +0.000 A 
ENDBRANCH  17  26
ENDBRANCH  16  20
ENDBRANCH   1  16
TORSDOF 5
ENDMDL
MODEL 9
REMARK VINA RESULT:      -8.6      2.786     10.477
REMARK  Name = 
REMARK  6 active torsions:
REMARK  status: ('A' for Active; 'I' for Inactive)
REMARK    1  A    between atoms: C_1  and  C_2
REMARK    2  A    between atoms: C_5  and  C_6
REMARK    3  A    between atoms: C_9  and  C_10
REMARK    4  A    between atoms: C_10  and  C_11
REMARK    5  A    between atoms: C_11  and  N_12
REMARK    6  A    between atoms: C_13  and  C_15
REMARK                            x       y       z     vdW  Elec       q    Type
REMARK                         _______ _______ _______ _____ _____    ______ ____
ROOT
ATOM      1  C   UNL     1       7.965   9.104  17.983  0.00  0.00    +0.000 C 
ENDROOT
BRANCH   1   2
ATOM      2  N   UNL     1       9.209   9.783  18.333  0.00  0.00    +0.000 N 
ATOM      3  C   UNL     1       9.337  11.120  18.047  0.00  0.00    +0.000 C 
ATOM      4  O   UNL     1       8.369  11.745  17.611  0.00  0.00    +0.000 OA
ATOM      5  H   UNL     1      10.029   9.230  18.569  0.00  0.00    +0.000 HD
BRANCH   3   6
ATOM      6  C   UNL     1      10.649  11.826  18.385  0.00  0.00    +0.000 C 
ATOM      7  C   UNL     1      11.041  11.639  19.862  0.00  0.00    +0.000 C 
ATOM      8  C   UNL     1       9.976  12.009  20.910  0.00  0.00    +0.000 C 
ATOM      9  C   UNL     1       9.074  13.196  20.575  0.00  0.00    +0.000 C 
ATOM     10  C   UNL     1       9.857  14.418  20.123  0.00  0.00    +0.000 C 
ATOM     11  N   UNL     1      10.370  14.340  18.776  0.00  0.00    +0.000 N 
ATOM     12  N   UNL     1      10.713  15.476  18.147  0.00  0.00    +0.000 NA
ATOM     13  N   UNL     1      11.195  15.098  16.975  0.00  0.00    +0.000 NA
ATOM     14  N   UNL     1      11.171  13.733  16.852  0.00  0.00    +0.000 NA
ATOM     15  C   UNL     1      10.676  13.264  17.983  0.00  0.00    +0.000 A 
ENDBRANCH   3   6
ENDBRANCH   1   2
BRANCH   1  16
ATOM     16  C   UNL     1       8.045   7.574  18.046  0.00  0.00    +0.000 C 
BRANCH  16  20
ATOM     17  C   UNL     1       4.954   5.915  17.380  0.00  0.00    +0.000 A 
ATOM     18  N   UNL     1       5.173   6.455  16.173  0.00  0.00    +0.000 NA
ATOM     19  O   UNL     1       6.360   7.165  16.333  0.00  0.00    +0.000 OA
ATOM     20  C   UNL     1       6.746   6.986  17.628  0.00  0.00    +0.000 A 
ATOM     21  N   UNL     1       5.906   6.254  18.322  0.00  0.00    +0.000 NA
BRANCH  17  26
ATOM     22  C   UNL     1       0.626   2.328  18.737  0.00  0.00    +0.000 C 
ATOM     23  C   UNL     1       1.745   3.257  18.367  0.00  0.00    +0.000 A 
ATOM     24  C   UNL     1       2.712   2.880  17.430  0.00  0.00    +0.000 A 
ATOM     25  C   UNL     1       3.753   3.753  17.095  0.00  0.00    +0.000 A 
ATOM     26  C   UNL     1       3.850   5.014  17.700  0.00  0.00    +0.000 A 
ATOM     27  C   UNL     1       2.882   5.383  18.645  0.00  0.00    +0.000 A 
ATOM     28  C   UNL     1       1.838   4.513  18.975  0.00  0.00    +0.000 A 
ENDBRANCH  17  26
ENDBRANCH  16  20
ENDBRANCH   1  16
TORSDOF 5
ENDMDL
