MODEL 1
REMARK VINA RESULT:      -5.5      0.000      0.000
REMARK  Name = 
REMARK  8 active torsions:
REMARK  status: ('A' for Active; 'I' for Inactive)
REMARK    1  A    between atoms: C_1  and  C_2
REMARK    2  A    between atoms: C_2  and  N_3
REMARK    3  A    between atoms: N_3  and  C_4
REMARK    4  A    between atoms: N_3  and  C_11
REMARK    5  A    between atoms: C_4  and  C_5
REMARK    6  A    between atoms: C_5  and  C_6
REMARK    7  A    between atoms: C_11  and  C_12
REMARK    8  A    between atoms: N_16  and  C_17
REMARK                            x       y       z     vdW  Elec       q    Type
REMARK                         _______ _______ _______ _____ _____    ______ ____
ROOT
ATOM      1  N   UNL     1       4.481   5.738  18.091  0.00  0.00    +0.000 NA
ENDROOT
BRANCH   1   3
ATOM      2  C   UNL     1       2.762   7.628  18.170  0.00  0.00    +0.000 C 
ATOM      3  C   UNL     1       3.966   6.990  17.494  0.00  0.00    +0.000 C 
ENDBRANCH   1   3
BRANCH   1   4
ATOM      4  C   UNL     1       5.931   5.809  18.403  0.00  0.00    +0.000 C 
BRANCH   4   5
ATOM      5  C   UNL     1       6.783   4.648  17.848  0.00  0.00    +0.000 C 
BRANCH   5   6
ATOM      6  C   UNL     1       6.721   4.619  16.351  0.00  0.00    +0.000 A 
ATOM      7  N   UNL     1       7.449   5.384  15.565  0.00  0.00    +0.000 NA
ATOM      8  C   UNL     1       7.155   5.105  14.248  0.00  0.00    +0.000 A 
ATOM      9  C   UNL     1       6.201   4.137  14.038  0.00  0.00    +0.000 A 
ATOM     10  S   UNL     1       5.645   3.541  15.544  0.00  0.00    +0.000 S 
ENDBRANCH   5   6
ENDBRANCH   4   5
ENDBRANCH   1   4
BRANCH   1  11
ATOM     11  C   UNL     1       3.673   5.396  19.294  0.00  0.00    +0.000 C 
BRANCH  11  12
ATOM     12  C   UNL     1       2.786   4.186  19.130  0.00  0.00    +0.000 A 
ATOM     13  N   UNL     1       1.542   4.194  18.681  0.00  0.00    +0.000 NA
ATOM     14  C   UNL     1       1.171   2.885  18.553  0.00  0.00    +0.000 A 
ATOM     15  C   UNL     1       2.173   2.059  18.990  0.00  0.00    +0.000 A 
ATOM     16  N   UNL     1       3.190   2.891  19.368  0.00  0.00    +0.000 N 
ATOM     17  C   UNL     1       4.458   2.464  19.900  0.00  0.00    +0.000 C 
ENDBRANCH  11  12
ENDBRANCH   1  11
TORSDOF 6
ENDMDL
MODEL 2
REMARK VINA RESULT:      -5.4      1.751      2.455
REMARK  Name = 
REMARK  8 active torsions:
REMARK  status: ('A' for Active; 'I' for Inactive)
REMARK    1  A    between atoms: C_1  and  C_2
REMARK    2  A    between atoms: C_2  and  N_3
REMARK    3  A    between atoms: N_3  and  C_4
REMARK    4  A    between atoms: N_3  and  C_11
REMARK    5  A    between atoms: C_4  and  C_5
REMARK    6  A    between atoms: C_5  and  C_6
REMARK    7  A    between atoms: C_11  and  C_12
REMARK    8  A    between atoms: N_16  and  C_17
REMARK                            x       y       z     vdW  Elec       q    Type
REMARK                         _______ _______ _______ _____ _____    ______ ____
ROOT
ATOM      1  N   UNL     1       5.536   6.085  17.534  0.00  0.00    +0.000 NA
ENDROOT
BRANCH   1   3
ATOM      2  C   UNL     1       7.721   6.023  18.860  0.00  0.00    +0.000 C 
ATOM      3  C   UNL     1       6.877   6.665  17.768  0.00  0.00    +0.000 C 
ENDBRANCH   1   3
BRANCH   1   4
ATOM      4  C   UNL     1       5.278   5.806  16.099  0.00  0.00    +0.000 C 
BRANCH   4   5
ATOM      5  C   UNL     1       5.746   4.422  15.602  0.00  0.00    +0.000 C 
BRANCH   5   6
ATOM      6  C   UNL     1       6.488   4.551  14.307  0.00  0.00    +0.000 A 
ATOM      7  N   UNL     1       7.493   5.378  14.108  0.00  0.00    +0.000 NA
ATOM      8  C   UNL     1       7.952   5.244  12.817  0.00  0.00    +0.000 A 
ATOM      9  C   UNL     1       7.292   4.323  12.037  0.00  0.00    +0.000 A 
ATOM     10  S   UNL     1       6.045   3.585  12.950  0.00  0.00    +0.000 S 
ENDBRANCH   5   6
ENDBRANCH   4   5
ENDBRANCH   1   4
BRANCH   1  11
ATOM     11  C   UNL     1       5.373   4.865  18.371  0.00  0.00    +0.000 C 
BRANCH  11  12
ATOM     12  C   UNL     1       4.145   4.868  19.250  0.00  0.00    +0.000 A 
ATOM     13  N   UNL     1       3.377   5.914  19.503  0.00  0.00    +0.000 NA
ATOM     14  C   UNL     1       2.308   5.443  20.212  0.00  0.00    +0.000 A 
ATOM     15  C   UNL     1       2.448   4.103  20.455  0.00  0.00    +0.000 A 
ATOM     16  N   UNL     1       3.623   3.746  19.855  0.00  0.00    +0.000 N 
ATOM     17  C   UNL     1       4.185   2.419  19.852  0.00  0.00    +0.000 C 
ENDBRANCH  11  12
ENDBRANCH   1  11
TORSDOF 6
ENDMDL
MODEL 3
REMARK VINA RESULT:      -5.4      1.956      5.540
REMARK  Name = 
REMARK  8 active torsions:
REMARK  status: ('A' for Active; 'I' for Inactive)
REMARK    1  A    between atoms: C_1  and  C_2
REMARK    2  A    between atoms: C_2  and  N_3
REMARK    3  A    between atoms: N_3  and  C_4
REMARK    4  A    between atoms: N_3  and  C_11
REMARK    5  A    between atoms: C_4  and  C_5
REMARK    6  A    between atoms: C_5  and  C_6
REMARK    7  A    between atoms: C_11  and  C_12
REMARK    8  A    between atoms: N_16  and  C_17
REMARK                            x       y       z     vdW  Elec       q    Type
REMARK                         _______ _______ _______ _____ _____    ______ ____
ROOT
ATOM      1  N   UNL     1       3.426   6.059  18.245  0.00  0.00    +0.000 NA
ENDROOT
BRANCH   1   3
ATOM      2  C   UNL     1       2.101   7.504  19.886  0.00  0.00    +0.000 C 
ATOM      3  C   UNL     1       2.334   7.035  18.458  0.00  0.00    +0.000 C 
ENDBRANCH   1   3
BRANCH   1   4
ATOM      4  C   UNL     1       2.962   4.820  17.574  0.00  0.00    +0.000 C 
BRANCH   4   5
ATOM      5  C   UNL     1       1.646   4.227  18.121  0.00  0.00    +0.000 C 
BRANCH   5   6
ATOM      6  C   UNL     1       1.860   3.638  19.481  0.00  0.00    +0.000 A 
ATOM      7  N   UNL     1       0.995   3.723  20.471  0.00  0.00    +0.000 NA
ATOM      8  C   UNL     1       1.495   3.073  21.578  0.00  0.00    +0.000 A 
ATOM      9  C   UNL     1       2.738   2.504  21.430  0.00  0.00    +0.000 A 
ATOM     10  S   UNL     1       3.314   2.783  19.841  0.00  0.00    +0.000 S 
ENDBRANCH   5   6
ENDBRANCH   4   5
ENDBRANCH   1   4
BRANCH   1  11
ATOM     11  C   UNL     1       4.532   6.714  17.493  0.00  0.00    +0.000 C 
BRANCH  11  12
ATOM     12  C   UNL     1       5.807   5.908  17.424  0.00  0.00    +0.000 A 
ATOM     13  N   UNL     1       6.628   5.673  18.433  0.00  0.00    +0.000 NA
ATOM     14  C   UNL     1       7.561   4.789  17.970  0.00  0.00    +0.000 A 
ATOM     15  C   UNL     1       7.353   4.524  16.643  0.00  0.00    +0.000 A 
ATOM     16  N   UNL     1       6.246   5.248  16.298  0.00  0.00    +0.000 N 
ATOM     17  C   UNL     1       5.652   5.284  14.986  0.00  0.00    +0.000 C 
ENDBRANCH  11  12
ENDBRANCH   1  11
TORSDOF 6
ENDMDL
MODEL 4
REMARK VINA RESULT:      -5.4      2.356      5.775
REMARK  Name = 
REMARK  8 active torsions:
REMARK  status: ('A' for Active; 'I' for Inactive)
REMARK    1  A    between atoms: C_1  and  C_2
REMARK    2  A    between atoms: C_2  and  N_3
REMARK    3  A    between atoms: N_3  and  C_4
REMARK    4  A    between atoms: N_3  and  C_11
REMARK    5  A    between atoms: C_4  and  C_5
REMARK    6  A    between atoms: C_5  and  C_6
REMARK    7  A    between atoms: C_11  and  C_12
REMARK    8  A    between atoms: N_16  and  C_17
REMARK                            x       y       z     vdW  Elec       q    Type
REMARK                         _______ _______ _______ _____ _____    ______ ____
ROOT
ATOM      1  N   UNL     1       4.537   4.428  16.321  0.00  0.00    +0.000 NA
ENDROOT
BRANCH   1   3
ATOM      2  C   UNL     1       6.149   4.011  14.381  0.00  0.00    +0.000 C 
ATOM      3  C   UNL     1       5.900   4.056  15.882  0.00  0.00    +0.000 C 
ENDBRANCH   1   3
BRANCH   1   4
ATOM      4  C   UNL     1       3.952   3.443  17.265  0.00  0.00    +0.000 C 
BRANCH   4   5
ATOM      5  C   UNL     1       2.541   3.786  17.786  0.00  0.00    +0.000 C 
BRANCH   5   6
ATOM      6  C   UNL     1       2.380   3.335  19.206  0.00  0.00    +0.000 A 
ATOM      7  N   UNL     1       3.364   2.886  19.956  0.00  0.00    +0.000 NA
ATOM      8  C   UNL     1       2.881   2.562  21.205  0.00  0.00    +0.000 A 
ATOM      9  C   UNL     1       1.534   2.759  21.398  0.00  0.00    +0.000 A 
ATOM     10  S   UNL     1       0.832   3.379  19.963  0.00  0.00    +0.000 S 
ENDBRANCH   5   6
ENDBRANCH   4   5
ENDBRANCH   1   4
BRANCH   1  11
ATOM     11  C   UNL     1       4.563   5.800  16.900  0.00  0.00    +0.000 C 
BRANCH  11  12
ATOM     12  C   UNL     1       5.939   6.296  17.275  0.00  0.00    +0.000 A 
ATOM     13  N   UNL     1       6.678   7.133  16.567  0.00  0.00    +0.000 NA
ATOM     14  C   UNL     1       7.769   7.426  17.336  0.00  0.00    +0.000 A 
ATOM     15  C   UNL     1       7.737   6.712  18.504  0.00  0.00    +0.000 A 
ATOM     16  N   UNL     1       6.580   5.986  18.453  0.00  0.00    +0.000 N 
ATOM     17  C   UNL     1       6.124   5.078  19.475  0.00  0.00    +0.000 C 
ENDBRANCH  11  12
ENDBRANCH   1  11
TORSDOF 6
ENDMDL
MODEL 5
REMARK VINA RESULT:      -5.4      1.015      1.175
REMARK  Name = 
REMARK  8 active torsions:
REMARK  status: ('A' for Active; 'I' for Inactive)
REMARK    1  A    between atoms: C_1  and  C_2
REMARK    2  A    between atoms: C_2  and  N_3
REMARK    3  A    between atoms: N_3  and  C_4
REMARK    4  A    between atoms: N_3  and  C_11
REMARK    5  A    between atoms: C_4  and  C_5
REMARK    6  A    between atoms: C_5  and  C_6
REMARK    7  A    between atoms: C_11  and  C_12
REMARK    8  A    between atoms: N_16  and  C_17
REMARK                            x       y       z     vdW  Elec       q    Type
REMARK                         _______ _______ _______ _____ _____    ______ ____
ROOT
ATOM      1  N   UNL     1       4.421   5.301  18.445  0.00  0.00    +0.000 NA
ENDROOT
BRANCH   1   3
ATOM      2  C   UNL     1       2.641   7.099  18.074  0.00  0.00    +0.000 C 
ATOM      3  C   UNL     1       3.523   6.317  19.037  0.00  0.00    +0.000 C 
ENDBRANCH   1   3
BRANCH   1   4
ATOM      4  C   UNL     1       5.836   5.747  18.399  0.00  0.00    +0.000 C 
BRANCH   4   5
ATOM      5  C   UNL     1       6.836   4.709  17.848  0.00  0.00    +0.000 C 
BRANCH   5   6
ATOM      6  C   UNL     1       6.757   4.643  16.354  0.00  0.00    +0.000 A 
ATOM      7  N   UNL     1       7.497   5.367  15.540  0.00  0.00    +0.000 NA
ATOM      8  C   UNL     1       7.180   5.062  14.234  0.00  0.00    +0.000 A 
ATOM      9  C   UNL     1       6.198   4.116  14.060  0.00  0.00    +0.000 A 
ATOM     10  S   UNL     1       5.643   3.574  15.587  0.00  0.00    +0.000 S 
ENDBRANCH   5   6
ENDBRANCH   4   5
ENDBRANCH   1   4
BRANCH   1  11
ATOM     11  C   UNL     1       4.269   4.018  19.186  0.00  0.00    +0.000 C 
BRANCH  11  12
ATOM     12  C   UNL     1       2.879   3.432  19.147  0.00  0.00    +0.000 A 
ATOM     13  N   UNL     1       2.294   2.897  18.089  0.00  0.00    +0.000 NA
ATOM     14  C   UNL     1       1.116   2.362  18.530  0.00  0.00    +0.000 A 
ATOM     15  C   UNL     1       0.940   2.627  19.862  0.00  0.00    +0.000 A 
ATOM     16  N   UNL     1       2.055   3.318  20.245  0.00  0.00    +0.000 N 
ATOM     17  C   UNL     1       2.310   3.813  21.574  0.00  0.00    +0.000 C 
ENDBRANCH  11  12
ENDBRANCH   1  11
TORSDOF 6
ENDMDL
MODEL 6
REMARK VINA RESULT:      -5.4      2.757      5.627
REMARK  Name = 
REMARK  8 active torsions:
REMARK  status: ('A' for Active; 'I' for Inactive)
REMARK    1  A    between atoms: C_1  and  C_2
REMARK    2  A    between atoms: C_2  and  N_3
REMARK    3  A    between atoms: N_3  and  C_4
REMARK    4  A    between atoms: N_3  and  C_11
REMARK    5  A    between atoms: C_4  and  C_5
REMARK    6  A    between atoms: C_5  and  C_6
REMARK    7  A    between atoms: C_11  and  C_12
REMARK    8  A    between atoms: N_16  and  C_17
REMARK                            x       y       z     vdW  Elec       q    Type
REMARK                         _______ _______ _______ _____ _____    ______ ____
ROOT
ATOM      1  N   UNL     1       3.146   4.813  19.388  0.00  0.00    +0.000 NA
ENDROOT
BRANCH   1   3
ATOM      2  C   UNL     1       1.283   3.397  20.417  0.00  0.00    +0.000 C 
ATOM      3  C   UNL     1       2.276   4.541  20.554  0.00  0.00    +0.000 C 
ENDBRANCH   1   3
BRANCH   1   4
ATOM      4  C   UNL     1       3.521   6.245  19.278  0.00  0.00    +0.000 C 
BRANCH   4   5
ATOM      5  C   UNL     1       2.996   6.969  18.020  0.00  0.00    +0.000 C 
BRANCH   5   6
ATOM      6  C   UNL     1       2.204   8.181  18.403  0.00  0.00    +0.000 A 
ATOM      7  N   UNL     1       1.916   9.169  17.581  0.00  0.00    +0.000 NA
ATOM      8  C   UNL     1       1.173  10.120  18.244  0.00  0.00    +0.000 A 
ATOM      9  C   UNL     1       0.905   9.858  19.568  0.00  0.00    +0.000 A 
ATOM     10  S   UNL     1       1.603   8.357  20.009  0.00  0.00    +0.000 S 
ENDBRANCH   5   6
ENDBRANCH   4   5
ENDBRANCH   1   4
BRANCH   1  11
ATOM     11  C   UNL     1       4.344   3.932  19.451  0.00  0.00    +0.000 C 
BRANCH  11  12
ATOM     12  C   UNL     1       5.604   4.546  18.890  0.00  0.00    +0.000 A 
ATOM     13  N   UNL     1       6.565   5.119  19.594  0.00  0.00    +0.000 NA
ATOM     14  C   UNL     1       7.572   5.399  18.713  0.00  0.00    +0.000 A 
ATOM     15  C   UNL     1       7.203   5.054  17.440  0.00  0.00    +0.000 A 
ATOM     16  N   UNL     1       5.948   4.527  17.556  0.00  0.00    +0.000 N 
ATOM     17  C   UNL     1       5.153   4.027  16.464  0.00  0.00    +0.000 C 
ENDBRANCH  11  12
ENDBRANCH   1  11
TORSDOF 6
ENDMDL
MODEL 7
REMARK VINA RESULT:      -5.4      2.088      5.304
REMARK  Name = 
REMARK  8 active torsions:
REMARK  status: ('A' for Active; 'I' for Inactive)
REMARK    1  A    between atoms: C_1  and  C_2
REMARK    2  A    between atoms: C_2  and  N_3
REMARK    3  A    between atoms: N_3  and  C_4
REMARK    4  A    between atoms: N_3  and  C_11
REMARK    5  A    between atoms: C_4  and  C_5
REMARK    6  A    between atoms: C_5  and  C_6
REMARK    7  A    between atoms: C_11  and  C_12
REMARK    8  A    between atoms: N_16  and  C_17
REMARK                            x       y       z     vdW  Elec       q    Type
REMARK                         _______ _______ _______ _____ _____    ______ ____
ROOT
ATOM      1  N   UNL     1       3.765   5.762  18.162  0.00  0.00    +0.000 NA
ENDROOT
BRANCH   1   3
ATOM      2  C   UNL     1       2.210   6.538  20.037  0.00  0.00    +0.000 C 
ATOM      3  C   UNL     1       2.665   6.654  18.589  0.00  0.00    +0.000 C 
ENDBRANCH   1   3
BRANCH   1   4
ATOM      4  C   UNL     1       3.279   4.566  17.429  0.00  0.00    +0.000 C 
BRANCH   4   5
ATOM      5  C   UNL     1       3.630   3.209  18.075  0.00  0.00    +0.000 C 
BRANCH   5   6
ATOM      6  C   UNL     1       2.885   3.031  19.362  0.00  0.00    +0.000 A 
ATOM      7  N   UNL     1       3.459   2.932  20.543  0.00  0.00    +0.000 NA
ATOM      8  C   UNL     1       2.493   2.783  21.515  0.00  0.00    +0.000 A 
ATOM      9  C   UNL     1       1.192   2.761  21.070  0.00  0.00    +0.000 A 
ATOM     10  S   UNL     1       1.163   2.939  19.366  0.00  0.00    +0.000 S 
ENDBRANCH   5   6
ENDBRANCH   4   5
ENDBRANCH   1   4
BRANCH   1  11
ATOM     11  C   UNL     1       4.747   6.541  17.358  0.00  0.00    +0.000 C 
BRANCH  11  12
ATOM     12  C   UNL     1       5.552   5.717  16.382  0.00  0.00    +0.000 A 
ATOM     13  N   UNL     1       5.324   5.616  15.084  0.00  0.00    +0.000 NA
ATOM     14  C   UNL     1       6.367   4.901  14.565  0.00  0.00    +0.000 A 
ATOM     15  C   UNL     1       7.215   4.500  15.563  0.00  0.00    +0.000 A 
ATOM     16  N   UNL     1       6.685   5.009  16.716  0.00  0.00    +0.000 N 
ATOM     17  C   UNL     1       7.243   4.838  18.033  0.00  0.00    +0.000 C 
ENDBRANCH  11  12
ENDBRANCH   1  11
TORSDOF 6
ENDMDL
MODEL 8
REMARK VINA RESULT:      -5.3      1.913      2.603
REMARK  Name = 
REMARK  8 active torsions:
REMARK  status: ('A' for Active; 'I' for Inactive)
REMARK    1  A    between atoms: C_1  and  C_2
REMARK    2  A    between atoms: C_2  and  N_3
REMARK    3  A    between atoms: N_3  and  C_4
REMARK    4  A    between atoms: N_3  and  C_11
REMARK    5  A    between atoms: C_4  and  C_5
REMARK    6  A    between atoms: C_5  and  C_6
REMARK    7  A    between atoms: C_11  and  C_12
REMARK    8  A    between atoms: N_16  and  C_17
REMARK                            x       y       z     vdW  Elec       q    Type
REMARK                         _______ _______ _______ _____ _____    ______ ____
ROOT
ATOM      1  N   UNL     1       3.820   5.268  17.233  0.00  0.00    +0.000 NA
ENDROOT
BRANCH   1   3
ATOM      2  C   UNL     1       2.477   7.243  18.146  0.00  0.00    +0.000 C 
ATOM      3  C   UNL     1       3.826   6.645  17.774  0.00  0.00    +0.000 C 
ENDBRANCH   1   3
BRANCH   1   4
ATOM      4  C   UNL     1       4.908   5.035  16.251  0.00  0.00    +0.000 C 
BRANCH   4   5
ATOM      5  C   UNL     1       6.269   4.634  16.858  0.00  0.00    +0.000 C 
BRANCH   5   6
ATOM      6  C   UNL     1       6.992   5.842  17.371  0.00  0.00    +0.000 A 
ATOM      7  N   UNL     1       7.115   6.971  16.705  0.00  0.00    +0.000 NA
ATOM      8  C   UNL     1       7.828   7.877  17.459  0.00  0.00    +0.000 A 
ATOM      9  C   UNL     1       8.251   7.432  18.690  0.00  0.00    +0.000 A 
ATOM     10  S   UNL     1       7.736   5.816  18.926  0.00  0.00    +0.000 S 
ENDBRANCH   5   6
ENDBRANCH   4   5
ENDBRANCH   1   4
BRANCH   1  11
ATOM     11  C   UNL     1       3.876   4.295  18.360  0.00  0.00    +0.000 C 
BRANCH  11  12
ATOM     12  C   UNL     1       2.555   3.642  18.690  0.00  0.00    +0.000 A 
ATOM     13  N   UNL     1       1.908   2.778  17.928  0.00  0.00    +0.000 NA
ATOM     14  C   UNL     1       0.848   2.332  18.667  0.00  0.00    +0.000 A 
ATOM     15  C   UNL     1       0.803   2.976  19.875  0.00  0.00    +0.000 A 
ATOM     16  N   UNL     1       1.881   3.817  19.878  0.00  0.00    +0.000 N 
ATOM     17  C   UNL     1       2.239   4.705  20.955  0.00  0.00    +0.000 C 
ENDBRANCH  11  12
ENDBRANCH   1  11
TORSDOF 6
ENDMDL
MODEL 9
REMARK VINA RESULT:      -5.3      2.370      5.934
REMARK  Name = 
REMARK  8 active torsions:
REMARK  status: ('A' for Active; 'I' for Inactive)
REMARK    1  A    between atoms: C_1  and  C_2
REMARK    2  A    between atoms: C_2  and  N_3
REMARK    3  A    between atoms: N_3  and  C_4
REMARK    4  A    between atoms: N_3  and  C_11
REMARK    5  A    between atoms: C_4  and  C_5
REMARK    6  A    between atoms: C_5  and  C_6
REMARK    7  A    between atoms: C_11  and  C_12
REMARK    8  A    between atoms: N_16  and  C_17
REMARK                            x       y       z     vdW  Elec       q    Type
REMARK                         _______ _______ _______ _____ _____    ______ ____
ROOT
ATOM      1  N   UNL     1       4.820   5.045  16.796  0.00  0.00    +0.000 NA
ENDROOT
BRANCH   1   3
ATOM      2  C   UNL     1       5.624   4.291  14.489  0.00  0.00    +0.000 C 
ATOM      3  C   UNL     1       4.973   3.943  15.820  0.00  0.00    +0.000 C 
ENDBRANCH   1   3
BRANCH   1   4
ATOM      4  C   UNL     1       3.487   5.049  17.447  0.00  0.00    +0.000 C 
BRANCH   4   5
ATOM      5  C   UNL     1       2.798   3.671  17.548  0.00  0.00    +0.000 C 
BRANCH   5   6
ATOM      6  C   UNL     1       2.442   3.364  18.971  0.00  0.00    +0.000 A 
ATOM      7  N   UNL     1       1.244   3.538  19.489  0.00  0.00    +0.000 NA
ATOM      8  C   UNL     1       1.254   3.154  20.812  0.00  0.00    +0.000 A 
ATOM      9  C   UNL     1       2.458   2.699  21.297  0.00  0.00    +0.000 A 
ATOM     10  S   UNL     1       3.633   2.743  20.052  0.00  0.00    +0.000 S 
ENDBRANCH   5   6
ENDBRANCH   4   5
ENDBRANCH   1   4
BRANCH   1  11
ATOM     11  C   UNL     1       5.922   4.975  17.795  0.00  0.00    +0.000 C 
BRANCH  11  12
ATOM     12  C   UNL     1       6.831   6.181  17.811  0.00  0.00    +0.000 A 
ATOM     13  N   UNL     1       6.798   7.185  16.951  0.00  0.00    +0.000 NA
ATOM     14  C   UNL     1       7.679   8.120  17.419  0.00  0.00    +0.000 A 
ATOM     15  C   UNL     1       8.312   7.660  18.544  0.00  0.00    +0.000 A 
ATOM     16  N   UNL     1       7.779   6.424  18.780  0.00  0.00    +0.000 N 
ATOM     17  C   UNL     1       8.147   5.555  19.868  0.00  0.00    +0.000 C 
ENDBRANCH  11  12
ENDBRANCH   1  11
TORSDOF 6
ENDMDL
