MODEL 1
REMARK VINA RESULT:      -7.0      0.000      0.000
REMARK  Name = 
REMARK  10 active torsions:
REMARK  status: ('A' for Active; 'I' for Inactive)
REMARK    1  A    between atoms: C_1  and  C_2
REMARK    2  A    between atoms: C_2  and  S_3
REMARK    3  A    between atoms: S_3  and  N_6
REMARK    4  A    between atoms: N_6  and  C_7
REMARK    5  A    between atoms: C_10  and  O_11
REMARK    6  A    between atoms: O_11  and  C_12
REMARK    7  A    between atoms: C_20  and  C_21
REMARK    8  A    between atoms: N_23  and  C_24
REMARK    9  A    between atoms: C_28  and  O_29
REMARK   10  A    between atoms: O_29  and  C_30
REMARK                            x       y       z     vdW  Elec       q    Type
REMARK                         _______ _______ _______ _____ _____    ______ ____
ROOT
ATOM      1  C   UNL     1      -2.418  11.449  17.496  0.00  0.00    +0.000 A 
ATOM      2  C   UNL     1      -2.011  10.144  17.270  0.00  0.00    +0.000 A 
ATOM      3  C   UNL     1      -0.748   9.730  17.693  0.00  0.00    +0.000 A 
ATOM      4  C   UNL     1       0.166  10.637  18.262  0.00  0.00    +0.000 A 
ATOM      5  C   UNL     1      -0.257  11.958  18.524  0.00  0.00    +0.000 A 
ATOM      6  C   UNL     1      -1.552  12.354  18.116  0.00  0.00    +0.000 A 
ENDROOT
BRANCH   5   7
ATOM      7  C   UNL     1       0.534  12.955  19.292  0.00  0.00    +0.000 A 
ATOM      8  C   UNL     1       1.251  13.877  18.614  0.00  0.00    +0.000 A 
ATOM      9  N   UNL     1       1.939  14.891  19.265  0.00  0.00    +0.000 N 
ATOM     10  C   UNL     1       2.734  15.837  18.500  0.00  0.00    +0.000 C 
ATOM     11  C   UNL     1       1.912  15.048  20.651  0.00  0.00    +0.000 A 
ATOM     12  O   UNL     1       2.499  15.937  21.268  0.00  0.00    +0.000 OA
ATOM     13  C   UNL     1       1.110  14.050  21.401  0.00  0.00    +0.000 A 
ATOM     14  C   UNL     1       0.470  13.064  20.754  0.00  0.00    +0.000 A 
BRANCH  14  15
ATOM     15  O   UNL     1      -0.269  12.056  21.337  0.00  0.00    +0.000 OA
BRANCH  15  16
ATOM     16  C   UNL     1      -0.914  12.299  22.599  0.00  0.00    +0.000 C 
ATOM     17  C   UNL     1      -2.370  12.786  22.596  0.00  0.00    +0.000 C 
ATOM     18  O   UNL     1      -2.815  11.640  23.358  0.00  0.00    +0.000 OA
ATOM     19  C   UNL     1      -1.504  11.039  23.251  0.00  0.00    +0.000 C 
ENDBRANCH  15  16
ENDBRANCH  14  15
ENDBRANCH   5   7
BRANCH   1  20
ATOM     20  N   UNL     1      -3.731  11.855  17.085  0.00  0.00    +0.000 N 
ATOM     21  H   UNL     1      -4.042  11.345  16.256  0.00  0.00    +0.000 HD
BRANCH  20  22
ATOM     22  S   UNL     1      -4.951  11.716  18.268  0.00  0.00    +0.000 S 
ATOM     23  O   UNL     1      -4.577  12.460  19.450  0.00  0.00    +0.000 OA
ATOM     24  O   UNL     1      -5.290  10.310  18.317  0.00  0.00    +0.000 OA
BRANCH  22  26
ATOM     25  C   UNL     1      -6.680  13.841  18.221  0.00  0.00    +0.000 C 
ATOM     26  C   UNL     1      -6.284  12.592  17.455  0.00  0.00    +0.000 C 
ENDBRANCH  22  26
ENDBRANCH  20  22
ENDBRANCH   1  20
BRANCH   4  27
ATOM     27  O   UNL     1       1.460  10.254  18.596  0.00  0.00    +0.000 OA
BRANCH  27  28
ATOM     28  C   UNL     1       1.645   9.025  19.207  0.00  0.00    +0.000 A 
ATOM     29  C   UNL     1       1.146   8.863  20.506  0.00  0.00    +0.000 A 
ATOM     30  C   UNL     1       1.236   7.617  21.139  0.00  0.00    +0.000 A 
ATOM     31  C   UNL     1       1.819   6.542  20.472  0.00  0.00    +0.000 A 
ATOM     32  F   UNL     1       1.860   5.339  21.065  0.00  0.00    +0.000 F 
ATOM     33  C   UNL     1       2.358   6.696  19.207  0.00  0.00    +0.000 A 
ATOM     34  C   UNL     1       2.304   7.944  18.599  0.00  0.00    +0.000 A 
ATOM     35  F   UNL     1       2.864   8.081  17.388  0.00  0.00    +0.000 F 
ENDBRANCH  27  28
ENDBRANCH   4  27
TORSDOF 8
ENDMDL
MODEL 2
REMARK VINA RESULT:      -6.8      3.058      6.128
REMARK  Name = 
REMARK  10 active torsions:
REMARK  status: ('A' for Active; 'I' for Inactive)
REMARK    1  A    between atoms: C_1  and  C_2
REMARK    2  A    between atoms: C_2  and  S_3
REMARK    3  A    between atoms: S_3  and  N_6
REMARK    4  A    between atoms: N_6  and  C_7
REMARK    5  A    between atoms: C_10  and  O_11
REMARK    6  A    between atoms: O_11  and  C_12
REMARK    7  A    between atoms: C_20  and  C_21
REMARK    8  A    between atoms: N_23  and  C_24
REMARK    9  A    between atoms: C_28  and  O_29
REMARK   10  A    between atoms: O_29  and  C_30
REMARK                            x       y       z     vdW  Elec       q    Type
REMARK                         _______ _______ _______ _____ _____    ______ ____
ROOT
ATOM      1  C   UNL     1       0.732  14.610  19.581  0.00  0.00    +0.000 A 
ATOM      2  C   UNL     1       0.730  13.853  18.419  0.00  0.00    +0.000 A 
ATOM      3  C   UNL     1      -0.124  12.756  18.310  0.00  0.00    +0.000 A 
ATOM      4  C   UNL     1      -0.919  12.339  19.394  0.00  0.00    +0.000 A 
ATOM      5  C   UNL     1      -0.944  13.125  20.565  0.00  0.00    +0.000 A 
ATOM      6  C   UNL     1      -0.095  14.253  20.649  0.00  0.00    +0.000 A 
ENDROOT
BRANCH   5   7
ATOM      7  C   UNL     1      -1.879  12.910  21.701  0.00  0.00    +0.000 A 
ATOM      8  C   UNL     1      -3.063  13.561  21.701  0.00  0.00    +0.000 A 
ATOM      9  N   UNL     1      -4.018  13.339  22.681  0.00  0.00    +0.000 N 
ATOM     10  C   UNL     1      -5.261  14.092  22.668  0.00  0.00    +0.000 C 
ATOM     11  C   UNL     1      -3.841  12.412  23.709  0.00  0.00    +0.000 A 
ATOM     12  O   UNL     1      -4.666  12.177  24.592  0.00  0.00    +0.000 OA
ATOM     13  C   UNL     1      -2.551  11.679  23.704  0.00  0.00    +0.000 A 
ATOM     14  C   UNL     1      -1.630  11.924  22.760  0.00  0.00    +0.000 A 
BRANCH  14  15
ATOM     15  O   UNL     1      -0.383  11.343  22.670  0.00  0.00    +0.000 OA
BRANCH  15  16
ATOM     16  C   UNL     1      -0.264   9.915  22.796  0.00  0.00    +0.000 C 
ATOM     17  C   UNL     1      -0.302   9.061  21.521  0.00  0.00    +0.000 C 
ATOM     18  O   UNL     1       1.012   8.514  21.779  0.00  0.00    +0.000 OA
ATOM     19  C   UNL     1       1.186   9.416  22.896  0.00  0.00    +0.000 C 
ENDBRANCH  15  16
ENDBRANCH  14  15
ENDBRANCH   5   7
BRANCH   1  20
ATOM     20  N   UNL     1       1.592  15.755  19.669  0.00  0.00    +0.000 N 
ATOM     21  H   UNL     1       2.455  15.622  19.139  0.00  0.00    +0.000 HD
BRANCH  20  22
ATOM     22  S   UNL     1       0.903  17.235  19.177  0.00  0.00    +0.000 S 
ATOM     23  O   UNL     1      -0.336  16.992  18.473  0.00  0.00    +0.000 OA
ATOM     24  O   UNL     1       1.987  17.995  18.592  0.00  0.00    +0.000 OA
BRANCH  22  26
ATOM     25  C   UNL     1      -0.976  17.845  21.077  0.00  0.00    +0.000 C 
ATOM     26  C   UNL     1       0.508  17.948  20.772  0.00  0.00    +0.000 C 
ENDBRANCH  22  26
ENDBRANCH  20  22
ENDBRANCH   1  20
BRANCH   4  27
ATOM     27  O   UNL     1      -1.699  11.189  19.326  0.00  0.00    +0.000 OA
BRANCH  27  28
ATOM     28  C   UNL     1      -2.345  10.904  18.134  0.00  0.00    +0.000 A 
ATOM     29  C   UNL     1      -3.591  11.503  17.910  0.00  0.00    +0.000 A 
ATOM     30  C   UNL     1      -4.249  11.310  16.689  0.00  0.00    +0.000 A 
ATOM     31  C   UNL     1      -3.660  10.525  15.701  0.00  0.00    +0.000 A 
ATOM     32  F   UNL     1      -4.273  10.383  14.516  0.00  0.00    +0.000 F 
ATOM     33  C   UNL     1      -2.451   9.889  15.922  0.00  0.00    +0.000 A 
ATOM     34  C   UNL     1      -1.821  10.049  17.150  0.00  0.00    +0.000 A 
ATOM     35  F   UNL     1      -0.669   9.395  17.359  0.00  0.00    +0.000 F 
ENDBRANCH  27  28
ENDBRANCH   4  27
TORSDOF 8
ENDMDL
MODEL 3
REMARK VINA RESULT:      -6.7      3.148      6.586
REMARK  Name = 
REMARK  10 active torsions:
REMARK  status: ('A' for Active; 'I' for Inactive)
REMARK    1  A    between atoms: C_1  and  C_2
REMARK    2  A    between atoms: C_2  and  S_3
REMARK    3  A    between atoms: S_3  and  N_6
REMARK    4  A    between atoms: N_6  and  C_7
REMARK    5  A    between atoms: C_10  and  O_11
REMARK    6  A    between atoms: O_11  and  C_12
REMARK    7  A    between atoms: C_20  and  C_21
REMARK    8  A    between atoms: N_23  and  C_24
REMARK    9  A    between atoms: C_28  and  O_29
REMARK   10  A    between atoms: O_29  and  C_30
REMARK                            x       y       z     vdW  Elec       q    Type
REMARK                         _______ _______ _______ _____ _____    ______ ____
ROOT
ATOM      1  C   UNL     1       0.366  14.792  19.654  0.00  0.00    +0.000 A 
ATOM      2  C   UNL     1       0.431  14.015  18.509  0.00  0.00    +0.000 A 
ATOM      3  C   UNL     1      -0.414  12.915  18.370  0.00  0.00    +0.000 A 
ATOM      4  C   UNL     1      -1.271  12.516  19.414  0.00  0.00    +0.000 A 
ATOM      5  C   UNL     1      -1.364  13.323  20.567  0.00  0.00    +0.000 A 
ATOM      6  C   UNL     1      -0.521  14.454  20.679  0.00  0.00    +0.000 A 
ENDROOT
BRANCH   5   7
ATOM      7  C   UNL     1      -2.362  13.127  21.651  0.00  0.00    +0.000 A 
ATOM      8  C   UNL     1      -3.595  13.659  21.502  0.00  0.00    +0.000 A 
ATOM      9  N   UNL     1      -4.602  13.440  22.430  0.00  0.00    +0.000 N 
ATOM     10  C   UNL     1      -5.901  14.066  22.255  0.00  0.00    +0.000 C 
ATOM     11  C   UNL     1      -4.425  12.634  23.556  0.00  0.00    +0.000 A 
ATOM     12  O   UNL     1      -5.292  12.405  24.399  0.00  0.00    +0.000 OA
ATOM     13  C   UNL     1      -3.079  12.031  23.715  0.00  0.00    +0.000 A 
ATOM     14  C   UNL     1      -2.112  12.273  22.818  0.00  0.00    +0.000 A 
BRANCH  14  15
ATOM     15  O   UNL     1      -0.815  11.807  22.874  0.00  0.00    +0.000 OA
BRANCH  15  16
ATOM     16  C   UNL     1      -0.528  10.473  22.422  0.00  0.00    +0.000 C 
ATOM     17  C   UNL     1       0.757  10.233  21.617  0.00  0.00    +0.000 C 
ATOM     18  O   UNL     1       1.255   9.283  22.588  0.00  0.00    +0.000 OA
ATOM     19  C   UNL     1       0.156   9.589  23.477  0.00  0.00    +0.000 C 
ENDBRANCH  15  16
ENDBRANCH  14  15
ENDBRANCH   5   7
BRANCH   1  20
ATOM     20  N   UNL     1       1.219  15.940  19.771  0.00  0.00    +0.000 N 
ATOM     21  H   UNL     1       0.928  16.550  20.538  0.00  0.00    +0.000 HD
BRANCH  20  22
ATOM     22  S   UNL     1       2.879  15.609  19.972  0.00  0.00    +0.000 S 
ATOM     23  O   UNL     1       3.562  15.730  18.703  0.00  0.00    +0.000 OA
ATOM     24  O   UNL     1       2.944  14.404  20.771  0.00  0.00    +0.000 OA
BRANCH  22  26
ATOM     25  C   UNL     1       4.638  17.643  20.499  0.00  0.00    +0.000 C 
ATOM     26  C   UNL     1       3.359  16.996  20.998  0.00  0.00    +0.000 C 
ENDBRANCH  22  26
ENDBRANCH  20  22
ENDBRANCH   1  20
BRANCH   4  27
ATOM     27  O   UNL     1      -2.045  11.364  19.321  0.00  0.00    +0.000 OA
BRANCH  27  28
ATOM     28  C   UNL     1      -2.566  11.021  18.084  0.00  0.00    +0.000 A 
ATOM     29  C   UNL     1      -3.811  11.556  17.731  0.00  0.00    +0.000 A 
ATOM     30  C   UNL     1      -4.345  11.304  16.461  0.00  0.00    +0.000 A 
ATOM     31  C   UNL     1      -3.634  10.523  15.553  0.00  0.00    +0.000 A 
ATOM     32  F   UNL     1      -4.129  10.325  14.322  0.00  0.00    +0.000 F 
ATOM     33  C   UNL     1      -2.424   9.949  15.901  0.00  0.00    +0.000 A 
ATOM     34  C   UNL     1      -1.917  10.167  17.176  0.00  0.00    +0.000 A 
ATOM     35  F   UNL     1      -0.761   9.573  17.506  0.00  0.00    +0.000 F 
ENDBRANCH  27  28
ENDBRANCH   4  27
TORSDOF 8
ENDMDL
MODEL 4
REMARK VINA RESULT:      -6.7      2.300      5.184
REMARK  Name = 
REMARK  10 active torsions:
REMARK  status: ('A' for Active; 'I' for Inactive)
REMARK    1  A    between atoms: C_1  and  C_2
REMARK    2  A    between atoms: C_2  and  S_3
REMARK    3  A    between atoms: S_3  and  N_6
REMARK    4  A    between atoms: N_6  and  C_7
REMARK    5  A    between atoms: C_10  and  O_11
REMARK    6  A    between atoms: O_11  and  C_12
REMARK    7  A    between atoms: C_20  and  C_21
REMARK    8  A    between atoms: N_23  and  C_24
REMARK    9  A    between atoms: C_28  and  O_29
REMARK   10  A    between atoms: O_29  and  C_30
REMARK                            x       y       z     vdW  Elec       q    Type
REMARK                         _______ _______ _______ _____ _____    ______ ____
ROOT
ATOM      1  C   UNL     1       1.373  14.645  18.937  0.00  0.00    +0.000 A 
ATOM      2  C   UNL     1       2.284  13.853  19.618  0.00  0.00    +0.000 A 
ATOM      3  C   UNL     1       1.921  12.567  20.016  0.00  0.00    +0.000 A 
ATOM      4  C   UNL     1       0.611  12.086  19.827  0.00  0.00    +0.000 A 
ATOM      5  C   UNL     1      -0.309  12.877  19.106  0.00  0.00    +0.000 A 
ATOM      6  C   UNL     1       0.085  14.167  18.681  0.00  0.00    +0.000 A 
ENDROOT
BRANCH   5   7
ATOM      7  C   UNL     1      -1.652  12.413  18.669  0.00  0.00    +0.000 A 
ATOM      8  C   UNL     1      -1.762  11.759  17.492  0.00  0.00    +0.000 A 
ATOM      9  N   UNL     1      -2.967  11.221  17.065  0.00  0.00    +0.000 N 
ATOM     10  C   UNL     1      -3.052  10.563  15.773  0.00  0.00    +0.000 C 
ATOM     11  C   UNL     1      -4.133  11.287  17.830  0.00  0.00    +0.000 A 
ATOM     12  O   UNL     1      -5.219  10.814  17.495  0.00  0.00    +0.000 OA
ATOM     13  C   UNL     1      -4.014  11.986  19.133  0.00  0.00    +0.000 A 
ATOM     14  C   UNL     1      -2.845  12.519  19.517  0.00  0.00    +0.000 A 
BRANCH  14  15
ATOM     15  O   UNL     1      -2.616  13.226  20.679  0.00  0.00    +0.000 OA
BRANCH  15  16
ATOM     16  C   UNL     1      -2.631  12.530  21.938  0.00  0.00    +0.000 C 
ATOM     17  C   UNL     1      -1.560  12.880  22.981  0.00  0.00    +0.000 C 
ATOM     18  O   UNL     1      -2.556  13.270  23.956  0.00  0.00    +0.000 OA
ATOM     19  C   UNL     1      -3.603  13.125  22.969  0.00  0.00    +0.000 C 
ENDBRANCH  15  16
ENDBRANCH  14  15
ENDBRANCH   5   7
BRANCH   1  20
ATOM     20  N   UNL     1       1.769  15.954  18.504  0.00  0.00    +0.000 N 
ATOM     21  H   UNL     1       1.507  16.126  17.531  0.00  0.00    +0.000 HD
BRANCH  20  22
ATOM     22  S   UNL     1       1.176  17.251  19.438  0.00  0.00    +0.000 S 
ATOM     23  O   UNL     1       2.161  18.308  19.494  0.00  0.00    +0.000 OA
ATOM     24  O   UNL     1       0.620  16.651  20.632  0.00  0.00    +0.000 OA
BRANCH  22  26
ATOM     25  C   UNL     1      -1.522  17.480  19.018  0.00  0.00    +0.000 C 
ATOM     26  C   UNL     1      -0.175  17.801  18.398  0.00  0.00    +0.000 C 
ENDBRANCH  22  26
ENDBRANCH  20  22
ENDBRANCH   1  20
BRANCH   4  27
ATOM     27  O   UNL     1       0.214  10.844  20.309  0.00  0.00    +0.000 OA
BRANCH  27  28
ATOM     28  C   UNL     1       0.852   9.715  19.819  0.00  0.00    +0.000 A 
ATOM     29  C   UNL     1       1.113   9.660  18.445  0.00  0.00    +0.000 A 
ATOM     30  C   UNL     1       1.825   8.579  17.911  0.00  0.00    +0.000 A 
ATOM     31  C   UNL     1       2.272   7.562  18.752  0.00  0.00    +0.000 A 
ATOM     32  F   UNL     1       2.995   6.553  18.242  0.00  0.00    +0.000 F 
ATOM     33  C   UNL     1       1.985   7.578  20.105  0.00  0.00    +0.000 A 
ATOM     34  C   UNL     1       1.242   8.631  20.624  0.00  0.00    +0.000 A 
ATOM     35  F   UNL     1       0.942   8.610  21.930  0.00  0.00    +0.000 F 
ENDBRANCH  27  28
ENDBRANCH   4  27
TORSDOF 8
ENDMDL
MODEL 5
REMARK VINA RESULT:      -6.7      2.363      5.712
REMARK  Name = 
REMARK  10 active torsions:
REMARK  status: ('A' for Active; 'I' for Inactive)
REMARK    1  A    between atoms: C_1  and  C_2
REMARK    2  A    between atoms: C_2  and  S_3
REMARK    3  A    between atoms: S_3  and  N_6
REMARK    4  A    between atoms: N_6  and  C_7
REMARK    5  A    between atoms: C_10  and  O_11
REMARK    6  A    between atoms: O_11  and  C_12
REMARK    7  A    between atoms: C_20  and  C_21
REMARK    8  A    between atoms: N_23  and  C_24
REMARK    9  A    between atoms: C_28  and  O_29
REMARK   10  A    between atoms: O_29  and  C_30
REMARK                            x       y       z     vdW  Elec       q    Type
REMARK                         _______ _______ _______ _____ _____    ______ ____
ROOT
ATOM      1  C   UNL     1       1.340  14.584  19.644  0.00  0.00    +0.000 A 
ATOM      2  C   UNL     1       2.207  13.701  20.268  0.00  0.00    +0.000 A 
ATOM      3  C   UNL     1       1.827  12.371  20.449  0.00  0.00    +0.000 A 
ATOM      4  C   UNL     1       0.539  11.925  20.099  0.00  0.00    +0.000 A 
ATOM      5  C   UNL     1      -0.334  12.813  19.435  0.00  0.00    +0.000 A 
ATOM      6  C   UNL     1       0.078  14.151  19.231  0.00  0.00    +0.000 A 
ENDROOT
BRANCH   5   7
ATOM      7  C   UNL     1      -1.638  12.420  18.840  0.00  0.00    +0.000 A 
ATOM      8  C   UNL     1      -1.649  11.851  17.615  0.00  0.00    +0.000 A 
ATOM      9  N   UNL     1      -2.818  11.380  17.038  0.00  0.00    +0.000 N 
ATOM     10  C   UNL     1      -2.792  10.814  15.700  0.00  0.00    +0.000 C 
ATOM     11  C   UNL     1      -4.051  11.427  17.691  0.00  0.00    +0.000 A 
ATOM     12  O   UNL     1      -5.110  11.011  17.221  0.00  0.00    +0.000 OA
ATOM     13  C   UNL     1      -4.044  12.032  19.045  0.00  0.00    +0.000 A 
ATOM     14  C   UNL     1      -2.905  12.503  19.576  0.00  0.00    +0.000 A 
BRANCH  14  15
ATOM     15  O   UNL     1      -2.775  13.122  20.802  0.00  0.00    +0.000 OA
BRANCH  15  16
ATOM     16  C   UNL     1      -2.869  12.332  22.000  0.00  0.00    +0.000 C 
ATOM     17  C   UNL     1      -1.893  12.625  23.149  0.00  0.00    +0.000 C 
ATOM     18  O   UNL     1      -2.973  12.916  24.067  0.00  0.00    +0.000 OA
ATOM     19  C   UNL     1      -3.935  12.824  22.991  0.00  0.00    +0.000 C 
ENDBRANCH  15  16
ENDBRANCH  14  15
ENDBRANCH   5   7
BRANCH   1  20
ATOM     20  N   UNL     1       1.755  15.942  19.435  0.00  0.00    +0.000 N 
ATOM     21  H   UNL     1       2.039  16.390  20.309  0.00  0.00    +0.000 HD
BRANCH  20  22
ATOM     22  S   UNL     1       3.011  16.164  18.304  0.00  0.00    +0.000 S 
ATOM     23  O   UNL     1       2.886  17.461  17.678  0.00  0.00    +0.000 OA
ATOM     24  O   UNL     1       3.067  14.938  17.536  0.00  0.00    +0.000 OA
BRANCH  22  26
ATOM     25  C   UNL     1       4.440  17.474  20.242  0.00  0.00    +0.000 C 
ATOM     26  C   UNL     1       4.424  16.208  19.404  0.00  0.00    +0.000 C 
ENDBRANCH  22  26
ENDBRANCH  20  22
ENDBRANCH   1  20
BRANCH   4  27
ATOM     27  O   UNL     1       0.119  10.627  20.366  0.00  0.00    +0.000 OA
BRANCH  27  28
ATOM     28  C   UNL     1       0.828   9.578  19.802  0.00  0.00    +0.000 A 
ATOM     29  C   UNL     1       1.076   9.628  18.425  0.00  0.00    +0.000 A 
ATOM     30  C   UNL     1       1.855   8.634  17.819  0.00  0.00    +0.000 A 
ATOM     31  C   UNL     1       2.381   7.601  18.590  0.00  0.00    +0.000 A 
ATOM     32  F   UNL     1       3.166   6.678  18.012  0.00  0.00    +0.000 F 
ATOM     33  C   UNL     1       2.108   7.511  19.943  0.00  0.00    +0.000 A 
ATOM     34  C   UNL     1       1.301   8.476  20.533  0.00  0.00    +0.000 A 
ATOM     35  F   UNL     1       1.018   8.352  21.838  0.00  0.00    +0.000 F 
ENDBRANCH  27  28
ENDBRANCH   4  27
TORSDOF 8
ENDMDL
MODEL 6
REMARK VINA RESULT:      -6.7      1.316      1.823
REMARK  Name = 
REMARK  10 active torsions:
REMARK  status: ('A' for Active; 'I' for Inactive)
REMARK    1  A    between atoms: C_1  and  C_2
REMARK    2  A    between atoms: C_2  and  S_3
REMARK    3  A    between atoms: S_3  and  N_6
REMARK    4  A    between atoms: N_6  and  C_7
REMARK    5  A    between atoms: C_10  and  O_11
REMARK    6  A    between atoms: O_11  and  C_12
REMARK    7  A    between atoms: C_20  and  C_21
REMARK    8  A    between atoms: N_23  and  C_24
REMARK    9  A    between atoms: C_28  and  O_29
REMARK   10  A    between atoms: O_29  and  C_30
REMARK                            x       y       z     vdW  Elec       q    Type
REMARK                         _______ _______ _______ _____ _____    ______ ____
ROOT
ATOM      1  C   UNL     1      -2.301  11.484  17.835  0.00  0.00    +0.000 A 
ATOM      2  C   UNL     1      -2.180  10.136  18.135  0.00  0.00    +0.000 A 
ATOM      3  C   UNL     1      -1.065   9.682  18.837  0.00  0.00    +0.000 A 
ATOM      4  C   UNL     1      -0.005  10.548  19.166  0.00  0.00    +0.000 A 
ATOM      5  C   UNL     1      -0.140  11.926  18.892  0.00  0.00    +0.000 A 
ATOM      6  C   UNL     1      -1.292  12.376  18.206  0.00  0.00    +0.000 A 
ENDROOT
BRANCH   5   7
ATOM      7  C   UNL     1       0.809  12.971  19.359  0.00  0.00    +0.000 A 
ATOM      8  C   UNL     1       1.594  13.589  18.449  0.00  0.00    +0.000 A 
ATOM      9  N   UNL     1       2.436  14.633  18.801  0.00  0.00    +0.000 N 
ATOM     10  C   UNL     1       3.296  15.241  17.800  0.00  0.00    +0.000 C 
ATOM     11  C   UNL     1       2.506  15.138  20.100  0.00  0.00    +0.000 A 
ATOM     12  O   UNL     1       3.230  16.069  20.453  0.00  0.00    +0.000 OA
ATOM     13  C   UNL     1       1.632  14.477  21.100  0.00  0.00    +0.000 A 
ATOM     14  C   UNL     1       0.841  13.454  20.744  0.00  0.00    +0.000 A 
BRANCH  14  15
ATOM     15  O   UNL     1       0.017  12.733  21.584  0.00  0.00    +0.000 OA
BRANCH  15  16
ATOM     16  C   UNL     1      -0.858  13.437  22.482  0.00  0.00    +0.000 C 
ATOM     17  C   UNL     1      -2.067  14.179  21.896  0.00  0.00    +0.000 C 
ATOM     18  O   UNL     1      -2.998  13.399  22.680  0.00  0.00    +0.000 OA
ATOM     19  C   UNL     1      -1.924  12.547  23.140  0.00  0.00    +0.000 C 
ENDBRANCH  15  16
ENDBRANCH  14  15
ENDBRANCH   5   7
BRANCH   1  20
ATOM     20  N   UNL     1      -3.468  11.945  17.140  0.00  0.00    +0.000 N 
ATOM     21  H   UNL     1      -3.572  11.489  16.231  0.00  0.00    +0.000 HD
BRANCH  20  22
ATOM     22  S   UNL     1      -4.943  11.774  17.979  0.00  0.00    +0.000 S 
ATOM     23  O   UNL     1      -5.255  10.372  18.144  0.00  0.00    +0.000 OA
ATOM     24  O   UNL     1      -5.860  12.699  17.349  0.00  0.00    +0.000 OA
BRANCH  22  26
ATOM     25  C   UNL     1      -5.681  12.580  20.492  0.00  0.00    +0.000 C 
ATOM     26  C   UNL     1      -4.479  12.435  19.577  0.00  0.00    +0.000 C 
ENDBRANCH  22  26
ENDBRANCH  20  22
ENDBRANCH   1  20
BRANCH   4  27
ATOM     27  O   UNL     1       1.153  10.083  19.779  0.00  0.00    +0.000 OA
BRANCH  27  28
ATOM     28  C   UNL     1       1.716   8.906  19.312  0.00  0.00    +0.000 A 
ATOM     29  C   UNL     1       2.214   8.898  18.003  0.00  0.00    +0.000 A 
ATOM     30  C   UNL     1       2.864   7.760  17.510  0.00  0.00    +0.000 A 
ATOM     31  C   UNL     1       3.015   6.641  18.325  0.00  0.00    +0.000 A 
ATOM     32  F   UNL     1       3.680   5.571  17.864  0.00  0.00    +0.000 F 
ATOM     33  C   UNL     1       2.490   6.615  19.605  0.00  0.00    +0.000 A 
ATOM     34  C   UNL     1       1.809   7.731  20.076  0.00  0.00    +0.000 A 
ATOM     35  F   UNL     1       1.276   7.674  21.305  0.00  0.00    +0.000 F 
ENDBRANCH  27  28
ENDBRANCH   4  27
TORSDOF 8
ENDMDL
MODEL 7
REMARK VINA RESULT:      -6.7      1.154      1.543
REMARK  Name = 
REMARK  10 active torsions:
REMARK  status: ('A' for Active; 'I' for Inactive)
REMARK    1  A    between atoms: C_1  and  C_2
REMARK    2  A    between atoms: C_2  and  S_3
REMARK    3  A    between atoms: S_3  and  N_6
REMARK    4  A    between atoms: N_6  and  C_7
REMARK    5  A    between atoms: C_10  and  O_11
REMARK    6  A    between atoms: O_11  and  C_12
REMARK    7  A    between atoms: C_20  and  C_21
REMARK    8  A    between atoms: N_23  and  C_24
REMARK    9  A    between atoms: C_28  and  O_29
REMARK   10  A    between atoms: O_29  and  C_30
REMARK                            x       y       z     vdW  Elec       q    Type
REMARK                         _______ _______ _______ _____ _____    ______ ____
ROOT
ATOM      1  C   UNL     1      -2.664  11.492  17.727  0.00  0.00    +0.000 A 
ATOM      2  C   UNL     1      -2.217  10.195  17.532  0.00  0.00    +0.000 A 
ATOM      3  C   UNL     1      -0.924   9.843  17.921  0.00  0.00    +0.000 A 
ATOM      4  C   UNL     1      -0.025  10.804  18.420  0.00  0.00    +0.000 A 
ATOM      5  C   UNL     1      -0.487  12.117  18.650  0.00  0.00    +0.000 A 
ATOM      6  C   UNL     1      -1.810  12.451  18.279  0.00  0.00    +0.000 A 
ENDROOT
BRANCH   5   7
ATOM      7  C   UNL     1       0.294  13.171  19.350  0.00  0.00    +0.000 A 
ATOM      8  C   UNL     1       0.847  14.164  18.619  0.00  0.00    +0.000 A 
ATOM      9  N   UNL     1       1.512  15.226  19.214  0.00  0.00    +0.000 N 
ATOM     10  C   UNL     1       2.130  16.250  18.389  0.00  0.00    +0.000 C 
ATOM     11  C   UNL     1       1.626  15.361  20.598  0.00  0.00    +0.000 A 
ATOM     12  O   UNL     1       2.196  16.292  21.167  0.00  0.00    +0.000 OA
ATOM     13  C   UNL     1       1.003  14.285  21.408  0.00  0.00    +0.000 A 
ATOM     14  C   UNL     1       0.384  13.254  20.813  0.00  0.00    +0.000 A 
BRANCH  14  15
ATOM     15  O   UNL     1      -0.195  12.177  21.449  0.00  0.00    +0.000 OA
BRANCH  15  16
ATOM     16  C   UNL     1      -0.924  12.391  22.670  0.00  0.00    +0.000 C 
ATOM     17  C   UNL     1      -2.348  12.960  22.582  0.00  0.00    +0.000 C 
ATOM     18  O   UNL     1      -2.911  11.804  23.244  0.00  0.00    +0.000 OA
ATOM     19  C   UNL     1      -1.630  11.135  23.205  0.00  0.00    +0.000 C 
ENDBRANCH  15  16
ENDBRANCH  14  15
ENDBRANCH   5   7
BRANCH   1  20
ATOM     20  N   UNL     1      -4.006  11.834  17.352  0.00  0.00    +0.000 N 
ATOM     21  H   UNL     1      -4.411  11.139  16.721  0.00  0.00    +0.000 HD
BRANCH  20  22
ATOM     22  S   UNL     1      -5.097  12.063  18.642  0.00  0.00    +0.000 S 
ATOM     23  O   UNL     1      -6.004  13.146  18.333  0.00  0.00    +0.000 OA
ATOM     24  O   UNL     1      -4.289  12.052  19.844  0.00  0.00    +0.000 OA
BRANCH  22  26
ATOM     25  C   UNL     1      -7.086  10.459  19.633  0.00  0.00    +0.000 C 
ATOM     26  C   UNL     1      -6.013  10.526  18.562  0.00  0.00    +0.000 C 
ENDBRANCH  22  26
ENDBRANCH  20  22
ENDBRANCH   1  20
BRANCH   4  27
ATOM     27  O   UNL     1       1.295  10.482  18.717  0.00  0.00    +0.000 OA
BRANCH  27  28
ATOM     28  C   UNL     1       1.595   9.166  19.029  0.00  0.00    +0.000 A 
ATOM     29  C   UNL     1       2.201   8.384  18.037  0.00  0.00    +0.000 A 
ATOM     30  C   UNL     1       2.597   7.072  18.326  0.00  0.00    +0.000 A 
ATOM     31  C   UNL     1       2.389   6.551  19.600  0.00  0.00    +0.000 A 
ATOM     32  F   UNL     1       2.813   5.310  19.885  0.00  0.00    +0.000 F 
ATOM     33  C   UNL     1       1.751   7.293  20.579  0.00  0.00    +0.000 A 
ATOM     34  C   UNL     1       1.322   8.579  20.276  0.00  0.00    +0.000 A 
ATOM     35  F   UNL     1       0.675   9.269  21.226  0.00  0.00    +0.000 F 
ENDBRANCH  27  28
ENDBRANCH   4  27
TORSDOF 8
ENDMDL
MODEL 8
REMARK VINA RESULT:      -6.7      3.517      6.251
REMARK  Name = 
REMARK  10 active torsions:
REMARK  status: ('A' for Active; 'I' for Inactive)
REMARK    1  A    between atoms: C_1  and  C_2
REMARK    2  A    between atoms: C_2  and  S_3
REMARK    3  A    between atoms: S_3  and  N_6
REMARK    4  A    between atoms: N_6  and  C_7
REMARK    5  A    between atoms: C_10  and  O_11
REMARK    6  A    between atoms: O_11  and  C_12
REMARK    7  A    between atoms: C_20  and  C_21
REMARK    8  A    between atoms: N_23  and  C_24
REMARK    9  A    between atoms: C_28  and  O_29
REMARK   10  A    between atoms: O_29  and  C_30
REMARK                            x       y       z     vdW  Elec       q    Type
REMARK                         _______ _______ _______ _____ _____    ______ ____
ROOT
ATOM      1  C   UNL     1       0.799  14.524  19.743  0.00  0.00    +0.000 A 
ATOM      2  C   UNL     1       0.859  13.735  18.605  0.00  0.00    +0.000 A 
ATOM      3  C   UNL     1      -0.052  12.693  18.437  0.00  0.00    +0.000 A 
ATOM      4  C   UNL     1      -0.975  12.360  19.447  0.00  0.00    +0.000 A 
ATOM      5  C   UNL     1      -1.061  13.181  20.591  0.00  0.00    +0.000 A 
ATOM      6  C   UNL     1      -0.149  14.253  20.732  0.00  0.00    +0.000 A 
ENDROOT
BRANCH   5   7
ATOM      7  C   UNL     1      -2.114  13.060  21.634  0.00  0.00    +0.000 A 
ATOM      8  C   UNL     1      -3.300  13.673  21.433  0.00  0.00    +0.000 A 
ATOM      9  N   UNL     1      -4.356  13.530  22.320  0.00  0.00    +0.000 N 
ATOM     10  C   UNL     1      -5.602  14.242  22.089  0.00  0.00    +0.000 C 
ATOM     11  C   UNL     1      -4.280  12.721  23.455  0.00  0.00    +0.000 A 
ATOM     12  O   UNL     1      -5.195  12.557  24.262  0.00  0.00    +0.000 OA
ATOM     13  C   UNL     1      -2.986  12.028  23.671  0.00  0.00    +0.000 A 
ATOM     14  C   UNL     1      -1.969  12.198  22.813  0.00  0.00    +0.000 A 
BRANCH  14  15
ATOM     15  O   UNL     1      -0.711  11.646  22.924  0.00  0.00    +0.000 OA
BRANCH  15  16
ATOM     16  C   UNL     1      -0.493  10.299  22.468  0.00  0.00    +0.000 C 
ATOM     17  C   UNL     1       0.728  10.015  21.582  0.00  0.00    +0.000 C 
ATOM     18  O   UNL     1       1.264   9.061  22.528  0.00  0.00    +0.000 OA
ATOM     19  C   UNL     1       0.236   9.407  23.485  0.00  0.00    +0.000 C 
ENDBRANCH  15  16
ENDBRANCH  14  15
ENDBRANCH   5   7
BRANCH   1  20
ATOM     20  N   UNL     1       1.721  15.613  19.889  0.00  0.00    +0.000 N 
ATOM     21  H   UNL     1       2.537  15.502  19.283  0.00  0.00    +0.000 HD
BRANCH  20  22
ATOM     22  S   UNL     1       1.078  17.168  19.615  0.00  0.00    +0.000 S 
ATOM     23  O   UNL     1       2.046  17.985  18.919  0.00  0.00    +0.000 OA
ATOM     24  O   UNL     1       0.486  17.573  20.872  0.00  0.00    +0.000 OA
BRANCH  22  26
ATOM     25  C   UNL     1      -1.572  17.332  18.935  0.00  0.00    +0.000 C 
ATOM     26  C   UNL     1      -0.241  16.769  18.471  0.00  0.00    +0.000 C 
ENDBRANCH  22  26
ENDBRANCH  20  22
ENDBRANCH   1  20
BRANCH   4  27
ATOM     27  O   UNL     1      -1.820  11.262  19.328  0.00  0.00    +0.000 OA
BRANCH  27  28
ATOM     28  C   UNL     1      -2.443  11.040  18.110  0.00  0.00    +0.000 A 
ATOM     29  C   UNL     1      -1.787  10.220  17.184  0.00  0.00    +0.000 A 
ATOM     30  C   UNL     1      -2.409   9.900  15.970  0.00  0.00    +0.000 A 
ATOM     31  C   UNL     1      -3.679  10.398  15.691  0.00  0.00    +0.000 A 
ATOM     32  F   UNL     1      -4.289  10.050  14.548  0.00  0.00    +0.000 F 
ATOM     33  C   UNL     1      -4.322  11.247  16.575  0.00  0.00    +0.000 A 
ATOM     34  C   UNL     1      -3.685  11.595  17.759  0.00  0.00    +0.000 A 
ATOM     35  F   UNL     1      -4.308  12.447  18.585  0.00  0.00    +0.000 F 
ENDBRANCH  27  28
ENDBRANCH   4  27
TORSDOF 8
ENDMDL
MODEL 9
REMARK VINA RESULT:      -6.6      1.356      1.842
REMARK  Name = 
REMARK  10 active torsions:
REMARK  status: ('A' for Active; 'I' for Inactive)
REMARK    1  A    between atoms: C_1  and  C_2
REMARK    2  A    between atoms: C_2  and  S_3
REMARK    3  A    between atoms: S_3  and  N_6
REMARK    4  A    between atoms: N_6  and  C_7
REMARK    5  A    between atoms: C_10  and  O_11
REMARK    6  A    between atoms: O_11  and  C_12
REMARK    7  A    between atoms: C_20  and  C_21
REMARK    8  A    between atoms: N_23  and  C_24
REMARK    9  A    between atoms: C_28  and  O_29
REMARK   10  A    between atoms: O_29  and  C_30
REMARK                            x       y       z     vdW  Elec       q    Type
REMARK                         _______ _______ _______ _____ _____    ______ ____
ROOT
ATOM      1  C   UNL     1      -2.448  11.441  17.786  0.00  0.00    +0.000 A 
ATOM      2  C   UNL     1      -2.250  10.095  18.052  0.00  0.00    +0.000 A 
ATOM      3  C   UNL     1      -1.112   9.687  18.745  0.00  0.00    +0.000 A 
ATOM      4  C   UNL     1      -0.104  10.604  19.099  0.00  0.00    +0.000 A 
ATOM      5  C   UNL     1      -0.317  11.978  18.860  0.00  0.00    +0.000 A 
ATOM      6  C   UNL     1      -1.492  12.380  18.183  0.00  0.00    +0.000 A 
ENDROOT
BRANCH   5   7
ATOM      7  C   UNL     1       0.570  13.063  19.356  0.00  0.00    +0.000 A 
ATOM      8  C   UNL     1       1.415  13.660  18.487  0.00  0.00    +0.000 A 
ATOM      9  N   UNL     1       2.205  14.737  18.859  0.00  0.00    +0.000 N 
ATOM     10  C   UNL     1       3.133  15.322  17.905  0.00  0.00    +0.000 C 
ATOM     11  C   UNL     1       2.159  15.298  20.136  0.00  0.00    +0.000 A 
ATOM     12  O   UNL     1       2.834  16.259  20.505  0.00  0.00    +0.000 OA
ATOM     13  C   UNL     1       1.218  14.660  21.090  0.00  0.00    +0.000 A 
ATOM     14  C   UNL     1       0.479  13.605  20.717  0.00  0.00    +0.000 A 
BRANCH  14  15
ATOM     15  O   UNL     1      -0.397  12.902  21.517  0.00  0.00    +0.000 OA
BRANCH  15  16
ATOM     16  C   UNL     1      -1.558  13.569  22.041  0.00  0.00    +0.000 C 
ATOM     17  C   UNL     1      -2.763  12.718  22.464  0.00  0.00    +0.000 C 
ATOM     18  O   UNL     1      -2.704  13.207  23.824  0.00  0.00    +0.000 OA
ATOM     19  C   UNL     1      -1.466  13.898  23.540  0.00  0.00    +0.000 C 
ENDBRANCH  15  16
ENDBRANCH  14  15
ENDBRANCH   5   7
BRANCH   1  20
ATOM     20  N   UNL     1      -3.639  11.852  17.101  0.00  0.00    +0.000 N 
ATOM     21  H   UNL     1      -3.901  11.190  16.367  0.00  0.00    +0.000 HD
BRANCH  20  22
ATOM     22  S   UNL     1      -5.008  12.105  18.085  0.00  0.00    +0.000 S 
ATOM     23  O   UNL     1      -5.968  12.932  17.389  0.00  0.00    +0.000 OA
ATOM     24  O   UNL     1      -4.491  12.456  19.391  0.00  0.00    +0.000 OA
BRANCH  22  26
ATOM     25  C   UNL     1      -6.838  10.342  19.111  0.00  0.00    +0.000 C 
ATOM     26  C   UNL     1      -5.657  10.438  18.162  0.00  0.00    +0.000 C 
ENDBRANCH  22  26
ENDBRANCH  20  22
ENDBRANCH   1  20
BRANCH   4  27
ATOM     27  O   UNL     1       1.079  10.190  19.703  0.00  0.00    +0.000 OA
BRANCH  27  28
ATOM     28  C   UNL     1       1.646   8.996  19.287  0.00  0.00    +0.000 A 
ATOM     29  C   UNL     1       2.163   8.940  17.987  0.00  0.00    +0.000 A 
ATOM     30  C   UNL     1       2.818   7.783  17.545  0.00  0.00    +0.000 A 
ATOM     31  C   UNL     1       2.953   6.694  18.402  0.00  0.00    +0.000 A 
ATOM     32  F   UNL     1       3.622   5.606  17.990  0.00  0.00    +0.000 F 
ATOM     33  C   UNL     1       2.408   6.715  19.674  0.00  0.00    +0.000 A 
ATOM     34  C   UNL     1       1.723   7.849  20.094  0.00  0.00    +0.000 A 
ATOM     35  F   UNL     1       1.172   7.837  21.316  0.00  0.00    +0.000 F 
ENDBRANCH  27  28
ENDBRANCH   4  27
TORSDOF 8
ENDMDL
