MODEL 1
REMARK VINA RESULT:      -8.5      0.000      0.000
REMARK  Name = 
REMARK  11 active torsions:
REMARK  status: ('A' for Active; 'I' for Inactive)
REMARK    1  A    between atoms: C_1  and  O_2
REMARK    2  A    between atoms: O_2  and  C_3
REMARK    3  A    between atoms: C_8  and  C_9
REMARK    4  A    between atoms: C_9  and  N_10
REMARK    5  A    between atoms: C_11  and  C_13
REMARK    6  A    between atoms: C_18  and  C_20
REMARK    7  A    between atoms: C_30  and  O_32
REMARK    8  A    between atoms: O_32  and  C_33
REMARK    9  A    between atoms: C_33  and  C_34
REMARK   10  A    between atoms: C_33  and  C_35
REMARK   11  A    between atoms: C_33  and  C_36
REMARK                            x       y       z     vdW  Elec       q    Type
REMARK                         _______ _______ _______ _____ _____    ______ ____
ROOT
ATOM      1  C   UNL     1       0.915   9.112  19.648  0.00  0.00    +0.000 C 
ATOM      2  C   UNL     1       0.819   9.812  20.998  0.00  0.00    +0.000 C 
ATOM      3  C   UNL     1       0.993   8.648  21.967  0.00  0.00    +0.000 C 
ATOM      4  C   UNL     1       2.016   7.739  21.283  0.00  0.00    +0.000 C 
ATOM      5  N   UNL     1       1.932   8.081  19.880  0.00  0.00    +0.000 N 
ATOM      6  C   UNL     1       2.477   7.433  18.817  0.00  0.00    +0.000 C 
ATOM      7  O   UNL     1       2.353   7.934  17.685  0.00  0.00    +0.000 OA
ENDROOT
BRANCH   6   8
ATOM      8  C   UNL     1       3.231   6.083  18.900  0.00  0.00    +0.000 C 
ATOM      9  C   UNL     1       3.723   5.187  20.086  0.00  0.00    +0.000 C 
ATOM     10  C   UNL     1       3.019   3.789  19.851  0.00  0.00    +0.000 A 
ATOM     11  C   UNL     1       2.233   3.250  20.872  0.00  0.00    +0.000 A 
ATOM     12  C   UNL     1       0.921   2.890  20.568  0.00  0.00    +0.000 A 
ATOM     13  C   UNL     1       0.439   3.042  19.266  0.00  0.00    +0.000 A 
ATOM     14  C   UNL     1       1.322   3.316  18.218  0.00  0.00    +0.000 A 
ATOM     15  C   UNL     1       2.672   3.557  18.490  0.00  0.00    +0.000 A 
ATOM     16  C   UNL     1       3.604   4.122  17.431  0.00  0.00    +0.000 C 
ATOM     17  N   UNL     1       3.745   5.559  17.618  0.00  0.00    +0.000 N 
ATOM     18  C   UNL     1       4.644   6.306  16.887  0.00  0.00    +0.000 C 
ATOM     19  O   UNL     1       5.064   7.391  17.277  0.00  0.00    +0.000 OA
BRANCH  18  20
ATOM     20  O   UNL     1       5.014   5.719  15.710  0.00  0.00    +0.000 OA
BRANCH  20  21
ATOM     21  C   UNL     1       6.265   4.968  15.636  0.00  0.00    +0.000 C 
ATOM     22  C   UNL     1       6.023   3.494  15.285  0.00  0.00    +0.000 C 
ATOM     23  C   UNL     1       7.086   5.589  14.491  0.00  0.00    +0.000 C 
ATOM     24  C   UNL     1       7.090   5.122  16.925  0.00  0.00    +0.000 C 
ENDBRANCH  20  21
ENDBRANCH  18  20
ENDBRANCH   6   8
BRANCH   1  26
ATOM     25  N   UNL     1       0.164  10.218  17.536  0.00  0.00    +0.000 N 
ATOM     26  C   UNL     1       1.123  10.154  18.520  0.00  0.00    +0.000 C 
ATOM     27  O   UNL     1       2.091  10.913  18.464  0.00  0.00    +0.000 OA
ATOM     28  H   UNL     1       0.402  10.846  16.778  0.00  0.00    +0.000 HD
BRANCH  25  29
ATOM     29  C   UNL     1      -1.043   9.409  17.425  0.00  0.00    +0.000 C 
BRANCH  29  35
ATOM     30  C   UNL     1      -2.782  11.139  18.205  0.00  0.00    +0.000 A 
ATOM     31  C   UNL     1      -3.983  11.828  17.972  0.00  0.00    +0.000 A 
ATOM     32  C   UNL     1      -4.663  11.694  16.760  0.00  0.00    +0.000 A 
ATOM     33  C   UNL     1      -4.159  10.862  15.772  0.00  0.00    +0.000 A 
ATOM     34  C   UNL     1      -2.981  10.131  16.001  0.00  0.00    +0.000 A 
ATOM     35  C   UNL     1      -2.280  10.263  17.220  0.00  0.00    +0.000 A 
BRANCH  30  37
ATOM     36  C   UNL     1      -1.563  12.580  19.637  0.00  0.00    +0.000 C 
ATOM     37  O   UNL     1      -2.066  11.268  19.370  0.00  0.00    +0.000 OA
ENDBRANCH  30  37
ENDBRANCH  29  35
ENDBRANCH  25  29
ENDBRANCH   1  26
TORSDOF 7
ENDMDL
MODEL 2
REMARK VINA RESULT:      -8.4      0.835      1.518
REMARK  Name = 
REMARK  11 active torsions:
REMARK  status: ('A' for Active; 'I' for Inactive)
REMARK    1  A    between atoms: C_1  and  O_2
REMARK    2  A    between atoms: O_2  and  C_3
REMARK    3  A    between atoms: C_8  and  C_9
REMARK    4  A    between atoms: C_9  and  N_10
REMARK    5  A    between atoms: C_11  and  C_13
REMARK    6  A    between atoms: C_18  and  C_20
REMARK    7  A    between atoms: C_30  and  O_32
REMARK    8  A    between atoms: O_32  and  C_33
REMARK    9  A    between atoms: C_33  and  C_34
REMARK   10  A    between atoms: C_33  and  C_35
REMARK   11  A    between atoms: C_33  and  C_36
REMARK                            x       y       z     vdW  Elec       q    Type
REMARK                         _______ _______ _______ _____ _____    ______ ____
ROOT
ATOM      1  C   UNL     1       0.858   9.163  19.635  0.00  0.00    +0.000 C 
ATOM      2  C   UNL     1       0.750   9.867  20.983  0.00  0.00    +0.000 C 
ATOM      3  C   UNL     1       0.926   8.707  21.957  0.00  0.00    +0.000 C 
ATOM      4  C   UNL     1       1.958   7.801  21.281  0.00  0.00    +0.000 C 
ATOM      5  N   UNL     1       1.880   8.139  19.876  0.00  0.00    +0.000 N 
ATOM      6  C   UNL     1       2.434   7.491  18.818  0.00  0.00    +0.000 C 
ATOM      7  O   UNL     1       2.313   7.987  17.684  0.00  0.00    +0.000 OA
ENDROOT
BRANCH   6   8
ATOM      8  C   UNL     1       3.195   6.145  18.909  0.00  0.00    +0.000 C 
ATOM      9  C   UNL     1       3.686   5.256  20.102  0.00  0.00    +0.000 C 
ATOM     10  C   UNL     1       2.992   3.853  19.867  0.00  0.00    +0.000 A 
ATOM     11  C   UNL     1       2.203   3.314  20.887  0.00  0.00    +0.000 A 
ATOM     12  C   UNL     1       0.895   2.945  20.578  0.00  0.00    +0.000 A 
ATOM     13  C   UNL     1       0.419   3.089  19.272  0.00  0.00    +0.000 A 
ATOM     14  C   UNL     1       1.305   3.365  18.228  0.00  0.00    +0.000 A 
ATOM     15  C   UNL     1       2.653   3.614  18.506  0.00  0.00    +0.000 A 
ATOM     16  C   UNL     1       3.587   4.182  17.450  0.00  0.00    +0.000 C 
ATOM     17  N   UNL     1       3.719   5.620  17.632  0.00  0.00    +0.000 N 
ATOM     18  C   UNL     1       4.617   6.369  16.903  0.00  0.00    +0.000 C 
ATOM     19  O   UNL     1       5.029   7.458  17.291  0.00  0.00    +0.000 OA
BRANCH  18  20
ATOM     20  O   UNL     1       4.996   5.780  15.730  0.00  0.00    +0.000 OA
BRANCH  20  21
ATOM     21  C   UNL     1       6.230   5.000  15.676  0.00  0.00    +0.000 C 
ATOM     22  C   UNL     1       5.951   3.508  15.456  0.00  0.00    +0.000 C 
ATOM     23  C   UNL     1       7.021   5.509  14.456  0.00  0.00    +0.000 C 
ATOM     24  C   UNL     1       7.103   5.243  16.919  0.00  0.00    +0.000 C 
ENDBRANCH  20  21
ENDBRANCH  18  20
ENDBRANCH   6   8
BRANCH   1  26
ATOM     25  N   UNL     1       0.099  10.275  17.529  0.00  0.00    +0.000 N 
ATOM     26  C   UNL     1       1.066  10.203  18.505  0.00  0.00    +0.000 C 
ATOM     27  O   UNL     1       2.041  10.952  18.441  0.00  0.00    +0.000 OA
ATOM     28  H   UNL     1       0.336  10.901  16.769  0.00  0.00    +0.000 HD
BRANCH  25  29
ATOM     29  C   UNL     1      -1.116   9.477  17.429  0.00  0.00    +0.000 C 
BRANCH  29  35
ATOM     30  C   UNL     1      -3.424  10.349  16.693  0.00  0.00    +0.000 A 
ATOM     31  C   UNL     1      -4.502  11.224  16.900  0.00  0.00    +0.000 A 
ATOM     32  C   UNL     1      -4.564  12.030  18.038  0.00  0.00    +0.000 A 
ATOM     33  C   UNL     1      -3.543  11.982  18.975  0.00  0.00    +0.000 A 
ATOM     34  C   UNL     1      -2.434  11.145  18.766  0.00  0.00    +0.000 A 
ATOM     35  C   UNL     1      -2.363  10.320  17.623  0.00  0.00    +0.000 A 
BRANCH  30  37
ATOM     36  C   UNL     1      -3.062  10.165  14.359  0.00  0.00    +0.000 C 
ATOM     37  O   UNL     1      -3.341   9.517  15.603  0.00  0.00    +0.000 OA
ENDBRANCH  30  37
ENDBRANCH  29  35
ENDBRANCH  25  29
ENDBRANCH   1  26
TORSDOF 7
ENDMDL
MODEL 3
REMARK VINA RESULT:      -8.0      0.703      1.186
REMARK  Name = 
REMARK  11 active torsions:
REMARK  status: ('A' for Active; 'I' for Inactive)
REMARK    1  A    between atoms: C_1  and  O_2
REMARK    2  A    between atoms: O_2  and  C_3
REMARK    3  A    between atoms: C_8  and  C_9
REMARK    4  A    between atoms: C_9  and  N_10
REMARK    5  A    between atoms: C_11  and  C_13
REMARK    6  A    between atoms: C_18  and  C_20
REMARK    7  A    between atoms: C_30  and  O_32
REMARK    8  A    between atoms: O_32  and  C_33
REMARK    9  A    between atoms: C_33  and  C_34
REMARK   10  A    between atoms: C_33  and  C_35
REMARK   11  A    between atoms: C_33  and  C_36
REMARK                            x       y       z     vdW  Elec       q    Type
REMARK                         _______ _______ _______ _____ _____    ______ ____
ROOT
ATOM      1  C   UNL     1       0.951   8.963  19.617  0.00  0.00    +0.000 C 
ATOM      2  C   UNL     1       0.894   9.699  20.951  0.00  0.00    +0.000 C 
ATOM      3  C   UNL     1       1.107   8.562  21.944  0.00  0.00    +0.000 C 
ATOM      4  C   UNL     1       2.113   7.640  21.252  0.00  0.00    +0.000 C 
ATOM      5  N   UNL     1       1.982   7.945  19.844  0.00  0.00    +0.000 N 
ATOM      6  C   UNL     1       2.496   7.272  18.781  0.00  0.00    +0.000 C 
ATOM      7  O   UNL     1       2.332   7.742  17.641  0.00  0.00    +0.000 OA
ENDROOT
BRANCH   6   8
ATOM      8  C   UNL     1       3.261   5.928  18.875  0.00  0.00    +0.000 C 
ATOM      9  C   UNL     1       3.769   5.051  20.069  0.00  0.00    +0.000 C 
ATOM     10  C   UNL     1       3.075   3.645  19.856  0.00  0.00    +0.000 A 
ATOM     11  C   UNL     1       2.300   3.114  20.891  0.00  0.00    +0.000 A 
ATOM     12  C   UNL     1       0.989   2.740  20.602  0.00  0.00    +0.000 A 
ATOM     13  C   UNL     1       0.496   2.871  19.301  0.00  0.00    +0.000 A 
ATOM     14  C   UNL     1       1.368   3.139  18.243  0.00  0.00    +0.000 A 
ATOM     15  C   UNL     1       2.719   3.393  18.502  0.00  0.00    +0.000 A 
ATOM     16  C   UNL     1       3.638   3.952  17.429  0.00  0.00    +0.000 C 
ATOM     17  N   UNL     1       3.770   5.392  17.596  0.00  0.00    +0.000 N 
ATOM     18  C   UNL     1       4.657   6.136  16.849  0.00  0.00    +0.000 C 
ATOM     19  O   UNL     1       5.072   7.229  17.221  0.00  0.00    +0.000 OA
BRANCH  18  20
ATOM     20  O   UNL     1       5.022   5.537  15.677  0.00  0.00    +0.000 OA
BRANCH  20  21
ATOM     21  C   UNL     1       6.340   4.916  15.559  0.00  0.00    +0.000 C 
ATOM     22  C   UNL     1       7.086   4.909  16.900  0.00  0.00    +0.000 C 
ATOM     23  C   UNL     1       6.103   3.449  15.153  0.00  0.00    +0.000 C 
ATOM     24  C   UNL     1       7.172   5.570  14.443  0.00  0.00    +0.000 C 
ENDBRANCH  20  21
ENDBRANCH  18  20
ENDBRANCH   6   8
BRANCH   1  26
ATOM     25  N   UNL     1      -0.028  10.559  17.960  0.00  0.00    +0.000 N 
ATOM     26  C   UNL     1       1.116   9.976  18.456  0.00  0.00    +0.000 C 
ATOM     27  O   UNL     1       2.204  10.277  17.964  0.00  0.00    +0.000 OA
ATOM     28  H   UNL     1       0.132  11.134  17.143  0.00  0.00    +0.000 HD
BRANCH  25  29
ATOM     29  C   UNL     1      -1.397  10.332  18.403  0.00  0.00    +0.000 C 
BRANCH  29  35
ATOM     30  C   UNL     1      -3.579  11.285  17.423  0.00  0.00    +0.000 A 
ATOM     31  C   UNL     1      -4.495  11.346  16.361  0.00  0.00    +0.000 A 
ATOM     32  C   UNL     1      -4.230  10.710  15.147  0.00  0.00    +0.000 A 
ATOM     33  C   UNL     1      -3.054   9.995  14.983  0.00  0.00    +0.000 A 
ATOM     34  C   UNL     1      -2.143   9.886  16.047  0.00  0.00    +0.000 A 
ATOM     35  C   UNL     1      -2.396  10.530  17.278  0.00  0.00    +0.000 A 
BRANCH  30  37
ATOM     36  C   UNL     1      -5.151  12.229  18.922  0.00  0.00    +0.000 C 
ATOM     37  O   UNL     1      -3.787  11.922  18.621  0.00  0.00    +0.000 OA
ENDBRANCH  30  37
ENDBRANCH  29  35
ENDBRANCH  25  29
ENDBRANCH   1  26
TORSDOF 7
ENDMDL
MODEL 4
REMARK VINA RESULT:      -7.9      0.737      1.762
REMARK  Name = 
REMARK  11 active torsions:
REMARK  status: ('A' for Active; 'I' for Inactive)
REMARK    1  A    between atoms: C_1  and  O_2
REMARK    2  A    between atoms: O_2  and  C_3
REMARK    3  A    between atoms: C_8  and  C_9
REMARK    4  A    between atoms: C_9  and  N_10
REMARK    5  A    between atoms: C_11  and  C_13
REMARK    6  A    between atoms: C_18  and  C_20
REMARK    7  A    between atoms: C_30  and  O_32
REMARK    8  A    between atoms: O_32  and  C_33
REMARK    9  A    between atoms: C_33  and  C_34
REMARK   10  A    between atoms: C_33  and  C_35
REMARK   11  A    between atoms: C_33  and  C_36
REMARK                            x       y       z     vdW  Elec       q    Type
REMARK                         _______ _______ _______ _____ _____    ______ ____
ROOT
ATOM      1  C   UNL     1       0.951   9.099  19.594  0.00  0.00    +0.000 C 
ATOM      2  C   UNL     1       0.846   9.797  20.946  0.00  0.00    +0.000 C 
ATOM      3  C   UNL     1       1.008   8.630  21.914  0.00  0.00    +0.000 C 
ATOM      4  C   UNL     1       2.033   7.717  21.236  0.00  0.00    +0.000 C 
ATOM      5  N   UNL     1       1.962   8.063  19.833  0.00  0.00    +0.000 N 
ATOM      6  C   UNL     1       2.513   7.415  18.773  0.00  0.00    +0.000 C 
ATOM      7  O   UNL     1       2.400   7.919  17.642  0.00  0.00    +0.000 OA
ENDROOT
BRANCH   6   8
ATOM      8  C   UNL     1       3.260   6.061  18.859  0.00  0.00    +0.000 C 
ATOM      9  C   UNL     1       3.753   5.169  20.049  0.00  0.00    +0.000 C 
ATOM     10  C   UNL     1       3.041   3.773  19.823  0.00  0.00    +0.000 A 
ATOM     11  C   UNL     1       2.256   3.244  20.850  0.00  0.00    +0.000 A 
ATOM     12  C   UNL     1       0.941   2.889  20.554  0.00  0.00    +0.000 A 
ATOM     13  C   UNL     1       0.455   3.036  19.252  0.00  0.00    +0.000 A 
ATOM     14  C   UNL     1       1.334   3.301  18.199  0.00  0.00    +0.000 A 
ATOM     15  C   UNL     1       2.687   3.536  18.465  0.00  0.00    +0.000 A 
ATOM     16  C   UNL     1       3.618   4.092  17.399  0.00  0.00    +0.000 C 
ATOM     17  N   UNL     1       3.767   5.529  17.578  0.00  0.00    +0.000 N 
ATOM     18  C   UNL     1       4.666   6.267  16.840  0.00  0.00    +0.000 C 
ATOM     19  O   UNL     1       5.093   7.352  17.222  0.00  0.00    +0.000 OA
BRANCH  18  20
ATOM     20  O   UNL     1       5.028   5.673  15.664  0.00  0.00    +0.000 OA
BRANCH  20  21
ATOM     21  C   UNL     1       6.301   4.962  15.573  0.00  0.00    +0.000 C 
ATOM     22  C   UNL     1       7.058   4.978  16.908  0.00  0.00    +0.000 C 
ATOM     23  C   UNL     1       5.966   3.494  15.248  0.00  0.00    +0.000 C 
ATOM     24  C   UNL     1       7.163   5.499  14.418  0.00  0.00    +0.000 C 
ENDBRANCH  20  21
ENDBRANCH  18  20
ENDBRANCH   6   8
BRANCH   1  26
ATOM     25  N   UNL     1       0.088  10.471  17.692  0.00  0.00    +0.000 N 
ATOM     26  C   UNL     1       1.173  10.142  18.471  0.00  0.00    +0.000 C 
ATOM     27  O   UNL     1       2.258  10.680  18.245  0.00  0.00    +0.000 OA
ATOM     28  H   UNL     1       0.315  11.081  16.916  0.00  0.00    +0.000 HD
BRANCH  25  29
ATOM     29  C   UNL     1      -1.267   9.945  17.799  0.00  0.00    +0.000 C 
BRANCH  29  35
ATOM     30  C   UNL     1      -3.530  11.113  18.177  0.00  0.00    +0.000 A 
ATOM     31  C   UNL     1      -4.288  12.076  18.862  0.00  0.00    +0.000 A 
ATOM     32  C   UNL     1      -3.744  12.789  19.933  0.00  0.00    +0.000 A 
ATOM     33  C   UNL     1      -2.434  12.557  20.323  0.00  0.00    +0.000 A 
ATOM     34  C   UNL     1      -1.645  11.628  19.624  0.00  0.00    +0.000 A 
ATOM     35  C   UNL     1      -2.185  10.896  18.544  0.00  0.00    +0.000 A 
BRANCH  30  37
ATOM     36  C   UNL     1      -4.244  11.083  15.919  0.00  0.00    +0.000 C 
ATOM     37  O   UNL     1      -4.037  10.368  17.141  0.00  0.00    +0.000 OA
ENDBRANCH  30  37
ENDBRANCH  29  35
ENDBRANCH  25  29
ENDBRANCH   1  26
TORSDOF 7
ENDMDL
MODEL 5
REMARK VINA RESULT:      -7.8      2.344      8.040
REMARK  Name = 
REMARK  11 active torsions:
REMARK  status: ('A' for Active; 'I' for Inactive)
REMARK    1  A    between atoms: C_1  and  O_2
REMARK    2  A    between atoms: O_2  and  C_3
REMARK    3  A    between atoms: C_8  and  C_9
REMARK    4  A    between atoms: C_9  and  N_10
REMARK    5  A    between atoms: C_11  and  C_13
REMARK    6  A    between atoms: C_18  and  C_20
REMARK    7  A    between atoms: C_30  and  O_32
REMARK    8  A    between atoms: O_32  and  C_33
REMARK    9  A    between atoms: C_33  and  C_34
REMARK   10  A    between atoms: C_33  and  C_35
REMARK   11  A    between atoms: C_33  and  C_36
REMARK                            x       y       z     vdW  Elec       q    Type
REMARK                         _______ _______ _______ _____ _____    ______ ____
ROOT
ATOM      1  C   UNL     1       6.707   6.360  18.382  0.00  0.00    +0.000 C 
ATOM      2  C   UNL     1       7.653   5.219  18.738  0.00  0.00    +0.000 C 
ATOM      3  C   UNL     1       6.866   4.484  19.817  0.00  0.00    +0.000 C 
ATOM      4  C   UNL     1       5.410   4.587  19.356  0.00  0.00    +0.000 C 
ATOM      5  N   UNL     1       5.383   5.734  18.475  0.00  0.00    +0.000 N 
ATOM      6  C   UNL     1       4.304   6.381  17.960  0.00  0.00    +0.000 C 
ATOM      7  O   UNL     1       4.494   7.308  17.153  0.00  0.00    +0.000 OA
ENDROOT
BRANCH   6   8
ATOM      8  C   UNL     1       2.832   6.068  18.325  0.00  0.00    +0.000 C 
ATOM      9  C   UNL     1       1.777   5.043  17.789  0.00  0.00    +0.000 C 
ATOM     10  C   UNL     1       1.364   4.192  19.058  0.00  0.00    +0.000 A 
ATOM     11  C   UNL     1       1.499   2.803  19.010  0.00  0.00    +0.000 A 
ATOM     12  C   UNL     1       2.239   2.181  20.016  0.00  0.00    +0.000 A 
ATOM     13  C   UNL     1       2.792   2.944  21.048  0.00  0.00    +0.000 A 
ATOM     14  C   UNL     1       2.410   4.277  21.219  0.00  0.00    +0.000 A 
ATOM     15  C   UNL     1       1.563   4.883  20.286  0.00  0.00    +0.000 A 
ATOM     16  C   UNL     1       1.342   6.387  20.279  0.00  0.00    +0.000 C 
ATOM     17  N   UNL     1       2.197   7.004  19.275  0.00  0.00    +0.000 N 
ATOM     18  C   UNL     1       2.099   8.340  18.953  0.00  0.00    +0.000 C 
ATOM     19  O   UNL     1       2.496   8.787  17.882  0.00  0.00    +0.000 OA
BRANCH  18  20
ATOM     20  O   UNL     1       1.519   9.097  19.932  0.00  0.00    +0.000 OA
BRANCH  20  21
ATOM     21  C   UNL     1       0.522  10.104  19.575  0.00  0.00    +0.000 C 
ATOM     22  C   UNL     1      -0.120   9.810  18.212  0.00  0.00    +0.000 C 
ATOM     23  C   UNL     1      -0.589  10.023  20.638  0.00  0.00    +0.000 C 
ATOM     24  C   UNL     1       1.110  11.524  19.637  0.00  0.00    +0.000 C 
ENDBRANCH  20  21
ENDBRANCH  18  20
ENDBRANCH   6   8
BRANCH   1  26
ATOM     25  N   UNL     1       7.147   6.240  15.925  0.00  0.00    +0.000 N 
ATOM     26  C   UNL     1       7.149   7.025  17.054  0.00  0.00    +0.000 C 
ATOM     27  O   UNL     1       7.497   8.203  16.966  0.00  0.00    +0.000 OA
ATOM     28  H   UNL     1       7.537   6.700  15.111  0.00  0.00    +0.000 HD
BRANCH  25  29
ATOM     29  C   UNL     1       6.775   4.835  15.827  0.00  0.00    +0.000 C 
BRANCH  29  35
ATOM     30  C   UNL     1       7.451   4.778  13.343  0.00  0.00    +0.000 A 
ATOM     31  C   UNL     1       7.150   4.410  12.022  0.00  0.00    +0.000 A 
ATOM     32  C   UNL     1       6.025   3.636  11.731  0.00  0.00    +0.000 A 
ATOM     33  C   UNL     1       5.181   3.231  12.754  0.00  0.00    +0.000 A 
ATOM     34  C   UNL     1       5.441   3.624  14.078  0.00  0.00    +0.000 A 
ATOM     35  C   UNL     1       6.579   4.401  14.386  0.00  0.00    +0.000 A 
BRANCH  30  37
ATOM     36  C   UNL     1       9.144   6.259  12.603  0.00  0.00    +0.000 C 
ATOM     37  O   UNL     1       8.564   5.511  13.675  0.00  0.00    +0.000 OA
ENDBRANCH  30  37
ENDBRANCH  29  35
ENDBRANCH  25  29
ENDBRANCH   1  26
TORSDOF 7
ENDMDL
MODEL 6
REMARK VINA RESULT:      -7.7      0.640      1.006
REMARK  Name = 
REMARK  11 active torsions:
REMARK  status: ('A' for Active; 'I' for Inactive)
REMARK    1  A    between atoms: C_1  and  O_2
REMARK    2  A    between atoms: O_2  and  C_3
REMARK    3  A    between atoms: C_8  and  C_9
REMARK    4  A    between atoms: C_9  and  N_10
REMARK    5  A    between atoms: C_11  and  C_13
REMARK    6  A    between atoms: C_18  and  C_20
REMARK    7  A    between atoms: C_30  and  O_32
REMARK    8  A    between atoms: O_32  and  C_33
REMARK    9  A    between atoms: C_33  and  C_34
REMARK   10  A    between atoms: C_33  and  C_35
REMARK   11  A    between atoms: C_33  and  C_36
REMARK                            x       y       z     vdW  Elec       q    Type
REMARK                         _______ _______ _______ _____ _____    ______ ____
ROOT
ATOM      1  C   UNL     1       0.940   9.058  19.641  0.00  0.00    +0.000 C 
ATOM      2  C   UNL     1       0.866   9.775  20.984  0.00  0.00    +0.000 C 
ATOM      3  C   UNL     1       1.061   8.623  21.964  0.00  0.00    +0.000 C 
ATOM      4  C   UNL     1       2.073   7.707  21.273  0.00  0.00    +0.000 C 
ATOM      5  N   UNL     1       1.964   8.032  19.867  0.00  0.00    +0.000 N 
ATOM      6  C   UNL     1       2.491   7.373  18.802  0.00  0.00    +0.000 C 
ATOM      7  O   UNL     1       2.345   7.860  17.667  0.00  0.00    +0.000 OA
ENDROOT
BRANCH   6   8
ATOM      8  C   UNL     1       3.249   6.025  18.888  0.00  0.00    +0.000 C 
ATOM      9  C   UNL     1       3.762   5.143  20.076  0.00  0.00    +0.000 C 
ATOM     10  C   UNL     1       3.058   3.741  19.868  0.00  0.00    +0.000 A 
ATOM     11  C   UNL     1       2.290   3.213  20.908  0.00  0.00    +0.000 A 
ATOM     12  C   UNL     1       0.974   2.846  20.630  0.00  0.00    +0.000 A 
ATOM     13  C   UNL     1       0.470   2.982  19.333  0.00  0.00    +0.000 A 
ATOM     14  C   UNL     1       1.335   3.247  18.268  0.00  0.00    +0.000 A 
ATOM     15  C   UNL     1       2.689   3.493  18.516  0.00  0.00    +0.000 A 
ATOM     16  C   UNL     1       3.603   4.049  17.435  0.00  0.00    +0.000 C 
ATOM     17  N   UNL     1       3.743   5.488  17.603  0.00  0.00    +0.000 N 
ATOM     18  C   UNL     1       4.629   6.228  16.850  0.00  0.00    +0.000 C 
ATOM     19  O   UNL     1       5.053   7.318  17.221  0.00  0.00    +0.000 OA
BRANCH  18  20
ATOM     20  O   UNL     1       4.980   5.629  15.674  0.00  0.00    +0.000 OA
BRANCH  20  21
ATOM     21  C   UNL     1       6.281   4.974  15.555  0.00  0.00    +0.000 C 
ATOM     22  C   UNL     1       7.021   4.930  16.898  0.00  0.00    +0.000 C 
ATOM     23  C   UNL     1       6.006   3.519  15.129  0.00  0.00    +0.000 C 
ATOM     24  C   UNL     1       7.136   5.618  14.450  0.00  0.00    +0.000 C 
ENDBRANCH  20  21
ENDBRANCH  18  20
ENDBRANCH   6   8
BRANCH   1  26
ATOM     25  N   UNL     1       0.089  10.232  17.605  0.00  0.00    +0.000 N 
ATOM     26  C   UNL     1       1.126  10.087  18.497  0.00  0.00    +0.000 C 
ATOM     27  O   UNL     1       2.142  10.767  18.351  0.00  0.00    +0.000 OA
ATOM     28  H   UNL     1       0.305  10.843  16.827  0.00  0.00    +0.000 HD
BRANCH  25  29
ATOM     29  C   UNL     1      -1.183   9.521  17.607  0.00  0.00    +0.000 C 
BRANCH  29  35
ATOM     30  C   UNL     1      -2.181  11.599  18.752  0.00  0.00    +0.000 A 
ATOM     31  C   UNL     1      -3.313  12.339  19.129  0.00  0.00    +0.000 A 
ATOM     32  C   UNL     1      -4.590  11.962  18.707  0.00  0.00    +0.000 A 
ATOM     33  C   UNL     1      -4.752  10.835  17.916  0.00  0.00    +0.000 A 
ATOM     34  C   UNL     1      -3.636  10.056  17.564  0.00  0.00    +0.000 A 
ATOM     35  C   UNL     1      -2.339  10.431  17.977  0.00  0.00    +0.000 A 
BRANCH  30  37
ATOM     36  C   UNL     1      -0.754  13.301  19.576  0.00  0.00    +0.000 C 
ATOM     37  O   UNL     1      -0.906  11.954  19.119  0.00  0.00    +0.000 OA
ENDBRANCH  30  37
ENDBRANCH  29  35
ENDBRANCH  25  29
ENDBRANCH   1  26
TORSDOF 7
ENDMDL
MODEL 7
REMARK VINA RESULT:      -7.6      3.912      9.750
REMARK  Name = 
REMARK  11 active torsions:
REMARK  status: ('A' for Active; 'I' for Inactive)
REMARK    1  A    between atoms: C_1  and  O_2
REMARK    2  A    between atoms: O_2  and  C_3
REMARK    3  A    between atoms: C_8  and  C_9
REMARK    4  A    between atoms: C_9  and  N_10
REMARK    5  A    between atoms: C_11  and  C_13
REMARK    6  A    between atoms: C_18  and  C_20
REMARK    7  A    between atoms: C_30  and  O_32
REMARK    8  A    between atoms: O_32  and  C_33
REMARK    9  A    between atoms: C_33  and  C_34
REMARK   10  A    between atoms: C_33  and  C_35
REMARK   11  A    between atoms: C_33  and  C_36
REMARK                            x       y       z     vdW  Elec       q    Type
REMARK                         _______ _______ _______ _____ _____    ______ ____
ROOT
ATOM      1  C   UNL     1       0.711  10.314  19.792  0.00  0.00    +0.000 C 
ATOM      2  C   UNL     1      -0.336   9.748  20.745  0.00  0.00    +0.000 C 
ATOM      3  C   UNL     1      -0.074  10.555  22.011  0.00  0.00    +0.000 C 
ATOM      4  C   UNL     1       0.292  11.951  21.500  0.00  0.00    +0.000 C 
ATOM      5  N   UNL     1       0.745  11.738  20.143  0.00  0.00    +0.000 N 
ATOM      6  C   UNL     1       1.372  12.612  19.312  0.00  0.00    +0.000 C 
ATOM      7  O   UNL     1       1.614  12.258  18.145  0.00  0.00    +0.000 OA
ENDROOT
BRANCH   6   8
ATOM      8  C   UNL     1       1.842  14.030  19.720  0.00  0.00    +0.000 C 
ATOM      9  C   UNL     1       2.809  14.577  20.824  0.00  0.00    +0.000 C 
ATOM     10  C   UNL     1       3.912  15.384  20.026  0.00  0.00    +0.000 A 
ATOM     11  C   UNL     1       5.255  15.043  20.203  0.00  0.00    +0.000 A 
ATOM     12  C   UNL     1       6.011  14.746  19.070  0.00  0.00    +0.000 A 
ATOM     13  C   UNL     1       5.429  14.826  17.802  0.00  0.00    +0.000 A 
ATOM     14  C   UNL     1       4.180  15.432  17.639  0.00  0.00    +0.000 A 
ATOM     15  C   UNL     1       3.459  15.854  18.761  0.00  0.00    +0.000 A 
ATOM     16  C   UNL     1       1.999  16.262  18.655  0.00  0.00    +0.000 C 
ATOM     17  N   UNL     1       1.148  15.149  19.049  0.00  0.00    +0.000 N 
ATOM     18  C   UNL     1      -0.216  15.286  19.186  0.00  0.00    +0.000 C 
ATOM     19  O   UNL     1      -0.886  14.523  19.875  0.00  0.00    +0.000 OA
BRANCH  18  20
ATOM     20  O   UNL     1      -0.733  16.343  18.490  0.00  0.00    +0.000 OA
BRANCH  20  21
ATOM     21  C   UNL     1      -1.340  17.458  19.212  0.00  0.00    +0.000 C 
ATOM     22  C   UNL     1      -0.467  17.919  20.387  0.00  0.00    +0.000 C 
ATOM     23  C   UNL     1      -1.435  18.630  18.217  0.00  0.00    +0.000 C 
ATOM     24  C   UNL     1      -2.773  17.124  19.660  0.00  0.00    +0.000 C 
ENDBRANCH  20  21
ENDBRANCH  18  20
ENDBRANCH   6   8
BRANCH   1  26
ATOM     25  N   UNL     1       1.383   9.241  17.636  0.00  0.00    +0.000 N 
ATOM     26  C   UNL     1       0.392   9.890  18.336  0.00  0.00    +0.000 C 
ATOM     27  O   UNL     1      -0.688  10.105  17.785  0.00  0.00    +0.000 OA
ATOM     28  H   UNL     1       1.152   9.077  16.665  0.00  0.00    +0.000 HD
BRANCH  25  29
ATOM     29  C   UNL     1       2.719   8.901  18.109  0.00  0.00    +0.000 C 
BRANCH  29  35
ATOM     30  C   UNL     1       3.628   6.513  17.789  0.00  0.00    +0.000 A 
ATOM     31  C   UNL     1       3.603   5.157  18.152  0.00  0.00    +0.000 A 
ATOM     32  C   UNL     1       2.835   4.717  19.232  0.00  0.00    +0.000 A 
ATOM     33  C   UNL     1       2.072   5.623  19.952  0.00  0.00    +0.000 A 
ATOM     34  C   UNL     1       2.048   6.978  19.578  0.00  0.00    +0.000 A 
ATOM     35  C   UNL     1       2.827   7.437  18.493  0.00  0.00    +0.000 A 
BRANCH  30  37
ATOM     36  C   UNL     1       5.788   6.679  16.831  0.00  0.00    +0.000 C 
ATOM     37  O   UNL     1       4.394   6.991  16.754  0.00  0.00    +0.000 OA
ENDBRANCH  30  37
ENDBRANCH  29  35
ENDBRANCH  25  29
ENDBRANCH   1  26
TORSDOF 7
ENDMDL
MODEL 8
REMARK VINA RESULT:      -7.5      3.906      9.629
REMARK  Name = 
REMARK  11 active torsions:
REMARK  status: ('A' for Active; 'I' for Inactive)
REMARK    1  A    between atoms: C_1  and  O_2
REMARK    2  A    between atoms: O_2  and  C_3
REMARK    3  A    between atoms: C_8  and  C_9
REMARK    4  A    between atoms: C_9  and  N_10
REMARK    5  A    between atoms: C_11  and  C_13
REMARK    6  A    between atoms: C_18  and  C_20
REMARK    7  A    between atoms: C_30  and  O_32
REMARK    8  A    between atoms: O_32  and  C_33
REMARK    9  A    between atoms: C_33  and  C_34
REMARK   10  A    between atoms: C_33  and  C_35
REMARK   11  A    between atoms: C_33  and  C_36
REMARK                            x       y       z     vdW  Elec       q    Type
REMARK                         _______ _______ _______ _____ _____    ______ ____
ROOT
ATOM      1  C   UNL     1       0.919  10.154  19.792  0.00  0.00    +0.000 C 
ATOM      2  C   UNL     1      -0.133   9.571  20.729  0.00  0.00    +0.000 C 
ATOM      3  C   UNL     1       0.096  10.383  21.999  0.00  0.00    +0.000 C 
ATOM      4  C   UNL     1       0.447  11.784  21.493  0.00  0.00    +0.000 C 
ATOM      5  N   UNL     1       0.924  11.579  20.143  0.00  0.00    +0.000 N 
ATOM      6  C   UNL     1       1.549  12.463  19.322  0.00  0.00    +0.000 C 
ATOM      7  O   UNL     1       1.814  12.113  18.159  0.00  0.00    +0.000 OA
ENDROOT
BRANCH   6   8
ATOM      8  C   UNL     1       1.989  13.889  19.736  0.00  0.00    +0.000 C 
ATOM      9  C   UNL     1       2.934  14.452  20.851  0.00  0.00    +0.000 C 
ATOM     10  C   UNL     1       4.031  15.279  20.066  0.00  0.00    +0.000 A 
ATOM     11  C   UNL     1       5.378  14.961  20.258  0.00  0.00    +0.000 A 
ATOM     12  C   UNL     1       6.151  14.680  19.132  0.00  0.00    +0.000 A 
ATOM     13  C   UNL     1       5.581  14.751  17.858  0.00  0.00    +0.000 A 
ATOM     14  C   UNL     1       4.325  15.335  17.682  0.00  0.00    +0.000 A 
ATOM     15  C   UNL     1       3.584  15.742  18.797  0.00  0.00    +0.000 A 
ATOM     16  C   UNL     1       2.118  16.125  18.676  0.00  0.00    +0.000 C 
ATOM     17  N   UNL     1       1.282  14.997  19.059  0.00  0.00    +0.000 N 
ATOM     18  C   UNL     1      -0.086  15.109  19.182  0.00  0.00    +0.000 C 
ATOM     19  O   UNL     1      -0.748  14.334  19.863  0.00  0.00    +0.000 OA
BRANCH  18  20
ATOM     20  O   UNL     1      -0.613  16.157  18.482  0.00  0.00    +0.000 OA
BRANCH  20  21
ATOM     21  C   UNL     1      -1.094  17.338  19.197  0.00  0.00    +0.000 C 
ATOM     22  C   UNL     1      -0.427  17.480  20.572  0.00  0.00    +0.000 C 
ATOM     23  C   UNL     1      -0.686  18.562  18.356  0.00  0.00    +0.000 C 
ATOM     24  C   UNL     1      -2.628  17.346  19.300  0.00  0.00    +0.000 C 
ENDBRANCH  20  21
ENDBRANCH  18  20
ENDBRANCH   6   8
BRANCH   1  26
ATOM     25  N   UNL     1       1.637   9.084  17.650  0.00  0.00    +0.000 N 
ATOM     26  C   UNL     1       0.629   9.725  18.331  0.00  0.00    +0.000 C 
ATOM     27  O   UNL     1      -0.444   9.931  17.762  0.00  0.00    +0.000 OA
ATOM     28  H   UNL     1       1.424   8.916  16.674  0.00  0.00    +0.000 HD
BRANCH  25  29
ATOM     29  C   UNL     1       2.967   8.756  18.146  0.00  0.00    +0.000 C 
BRANCH  29  35
ATOM     30  C   UNL     1       2.816   6.224  18.586  0.00  0.00    +0.000 A 
ATOM     31  C   UNL     1       3.278   4.926  18.318  0.00  0.00    +0.000 A 
ATOM     32  C   UNL     1       4.212   4.691  17.306  0.00  0.00    +0.000 A 
ATOM     33  C   UNL     1       4.704   5.751  16.561  0.00  0.00    +0.000 A 
ATOM     34  C   UNL     1       4.287   7.063  16.842  0.00  0.00    +0.000 A 
ATOM     35  C   UNL     1       3.338   7.313  17.857  0.00  0.00    +0.000 A 
BRANCH  30  37
ATOM     36  C   UNL     1       1.791   5.533  20.607  0.00  0.00    +0.000 C 
ATOM     37  O   UNL     1       1.875   6.493  19.550  0.00  0.00    +0.000 OA
ENDBRANCH  30  37
ENDBRANCH  29  35
ENDBRANCH  25  29
ENDBRANCH   1  26
TORSDOF 7
ENDMDL
MODEL 9
REMARK VINA RESULT:      -7.4      2.303      7.754
REMARK  Name = 
REMARK  11 active torsions:
REMARK  status: ('A' for Active; 'I' for Inactive)
REMARK    1  A    between atoms: C_1  and  O_2
REMARK    2  A    between atoms: O_2  and  C_3
REMARK    3  A    between atoms: C_8  and  C_9
REMARK    4  A    between atoms: C_9  and  N_10
REMARK    5  A    between atoms: C_11  and  C_13
REMARK    6  A    between atoms: C_18  and  C_20
REMARK    7  A    between atoms: C_30  and  O_32
REMARK    8  A    between atoms: O_32  and  C_33
REMARK    9  A    between atoms: C_33  and  C_34
REMARK   10  A    between atoms: C_33  and  C_35
REMARK   11  A    between atoms: C_33  and  C_36
REMARK                            x       y       z     vdW  Elec       q    Type
REMARK                         _______ _______ _______ _____ _____    ______ ____
ROOT
ATOM      1  C   UNL     1       6.780   6.542  18.446  0.00  0.00    +0.000 C 
ATOM      2  C   UNL     1       7.755   5.436  18.835  0.00  0.00    +0.000 C 
ATOM      3  C   UNL     1       6.959   4.674  19.889  0.00  0.00    +0.000 C 
ATOM      4  C   UNL     1       5.516   4.725  19.381  0.00  0.00    +0.000 C 
ATOM      5  N   UNL     1       5.478   5.869  18.497  0.00  0.00    +0.000 N 
ATOM      6  C   UNL     1       4.394   6.477  17.945  0.00  0.00    +0.000 C 
ATOM      7  O   UNL     1       4.577   7.409  17.143  0.00  0.00    +0.000 OA
ENDROOT
BRANCH   6   8
ATOM      8  C   UNL     1       2.923   6.112  18.263  0.00  0.00    +0.000 C 
ATOM      9  C   UNL     1       1.916   5.063  17.680  0.00  0.00    +0.000 C 
ATOM     10  C   UNL     1       1.494   4.179  18.923  0.00  0.00    +0.000 A 
ATOM     11  C   UNL     1       1.675   2.795  18.857  0.00  0.00    +0.000 A 
ATOM     12  C   UNL     1       2.406   2.180  19.873  0.00  0.00    +0.000 A 
ATOM     13  C   UNL     1       2.905   2.942  20.933  0.00  0.00    +0.000 A 
ATOM     14  C   UNL     1       2.476   4.259  21.114  0.00  0.00    +0.000 A 
ATOM     15  C   UNL     1       1.637   4.855  20.168  0.00  0.00    +0.000 A 
ATOM     16  C   UNL     1       1.369   6.351  20.178  0.00  0.00    +0.000 C 
ATOM     17  N   UNL     1       2.232   7.011  19.209  0.00  0.00    +0.000 N 
ATOM     18  C   UNL     1       2.100   8.349  18.906  0.00  0.00    +0.000 C 
ATOM     19  O   UNL     1       2.513   8.826  17.854  0.00  0.00    +0.000 OA
BRANCH  18  20
ATOM     20  O   UNL     1       1.470   9.071  19.880  0.00  0.00    +0.000 OA
BRANCH  20  21
ATOM     21  C   UNL     1       0.505  10.104  19.507  0.00  0.00    +0.000 C 
ATOM     22  C   UNL     1      -0.508  10.368  20.629  0.00  0.00    +0.000 C 
ATOM     23  C   UNL     1       1.308  11.401  19.292  0.00  0.00    +0.000 C 
ATOM     24  C   UNL     1      -0.188   9.770  18.175  0.00  0.00    +0.000 C 
ENDBRANCH  20  21
ENDBRANCH  18  20
ENDBRANCH   6   8
BRANCH   1  26
ATOM     25  N   UNL     1       7.450   6.409  16.041  0.00  0.00    +0.000 N 
ATOM     26  C   UNL     1       7.242   7.221  17.132  0.00  0.00    +0.000 C 
ATOM     27  O   UNL     1       7.429   8.433  17.021  0.00  0.00    +0.000 OA
ATOM     28  H   UNL     1       7.843   6.893  15.244  0.00  0.00    +0.000 HD
BRANCH  25  29
ATOM     29  C   UNL     1       7.288   4.962  15.974  0.00  0.00    +0.000 C 
BRANCH  29  35
ATOM     30  C   UNL     1       5.372   4.094  14.490  0.00  0.00    +0.000 A 
ATOM     31  C   UNL     1       4.937   3.614  13.245  0.00  0.00    +0.000 A 
ATOM     32  C   UNL     1       5.794   3.596  12.143  0.00  0.00    +0.000 A 
ATOM     33  C   UNL     1       7.099   4.045  12.276  0.00  0.00    +0.000 A 
ATOM     34  C   UNL     1       7.567   4.490  13.524  0.00  0.00    +0.000 A 
ATOM     35  C   UNL     1       6.708   4.519  14.644  0.00  0.00    +0.000 A 
BRANCH  30  37
ATOM     36  C   UNL     1       4.569   3.003  16.434  0.00  0.00    +0.000 C 
ATOM     37  O   UNL     1       4.551   4.157  15.589  0.00  0.00    +0.000 OA
ENDBRANCH  30  37
ENDBRANCH  29  35
ENDBRANCH  25  29
ENDBRANCH   1  26
TORSDOF 7
ENDMDL
