MODEL 1
REMARK VINA RESULT:      -7.3      0.000      0.000
REMARK  Name = 
REMARK  9 active torsions:
REMARK  status: ('A' for Active; 'I' for Inactive)
REMARK    1  A    between atoms: C_1  and  N_2
REMARK    2  A    between atoms: N_2  and  C_3
REMARK    3  A    between atoms: C_6  and  C_7
REMARK    4  A    between atoms: C_7  and  O_9
REMARK    5  A    between atoms: O_9  and  C_10
REMARK    6  A    between atoms: C_12  and  C_13
REMARK    7  A    between atoms: C_14  and  O_15
REMARK    8  A    between atoms: C_16  and  O_17
REMARK    9  A    between atoms: C_18  and  O_19
REMARK                            x       y       z     vdW  Elec       q    Type
REMARK                         _______ _______ _______ _____ _____    ______ ____
ROOT
ATOM      1  C   UNL     1       3.492   4.319  18.101  0.00  0.00    +0.000 C 
ATOM      2  O   UNL     1       2.178   4.004  18.573  0.00  0.00    +0.000 OA
ATOM      3  C   UNL     1       2.097   3.803  19.986  0.00  0.00    +0.000 C 
ATOM      4  C   UNL     1       0.626   3.571  20.327  0.00  0.00    +0.000 C 
ATOM      5  C   UNL     1       2.976   2.622  20.429  0.00  0.00    +0.000 C 
ATOM      6  C   UNL     1       4.419   2.854  19.944  0.00  0.00    +0.000 C 
ATOM      7  C   UNL     1       4.451   3.158  18.443  0.00  0.00    +0.000 C 
ENDROOT
BRANCH   5   8
ATOM      8  O   UNL     1       2.921   2.470  21.851  0.00  0.00    +0.000 OA
ATOM      9  H   UNL     1       2.387   1.686  22.061  0.00  0.00    +0.000 HD
ENDBRANCH   5   8
BRANCH   6  10
ATOM     10  O   UNL     1       5.224   1.699  20.219  0.00  0.00    +0.000 OA
ATOM     11  H   UNL     1       4.682   0.926  19.962  0.00  0.00    +0.000 HD
ENDBRANCH   6  10
BRANCH   7  12
ATOM     12  O   UNL     1       4.083   1.953  17.734  0.00  0.00    +0.000 OA
ATOM     13  H   UNL     1       4.861   1.360  17.739  0.00  0.00    +0.000 HD
ENDBRANCH   7  12
BRANCH   1  14
ATOM     14  O   UNL     1       4.005   5.553  18.618  0.00  0.00    +0.000 OA
BRANCH  14  15
ATOM     15  C   UNL     1       3.733   6.627  17.831  0.00  0.00    +0.000 C 
ATOM     16  O   UNL     1       4.297   6.910  16.786  0.00  0.00    +0.000 OA
BRANCH  15  20
ATOM     17  C   UNL     1       0.966   9.437  19.602  0.00  0.00    +0.000 A 
ATOM     18  C   UNL     1       1.408   9.556  18.278  0.00  0.00    +0.000 A 
ATOM     19  C   UNL     1       2.255   8.604  17.703  0.00  0.00    +0.000 A 
ATOM     20  C   UNL     1       2.715   7.518  18.455  0.00  0.00    +0.000 A 
ATOM     21  C   UNL     1       2.269   7.371  19.772  0.00  0.00    +0.000 A 
ATOM     22  C   UNL     1       1.411   8.330  20.335  0.00  0.00    +0.000 A 
BRANCH  17  24
ATOM     23  C   UNL     1      -0.956  10.994  19.518  0.00  0.00    +0.000 C 
ATOM     24  N   UNL     1       0.248  10.497  20.155  0.00  0.00    +0.000 N 
ATOM     25  H   UNL     1       0.843  11.235  20.522  0.00  0.00    +0.000 HD
ENDBRANCH  17  24
ENDBRANCH  15  20
ENDBRANCH  14  15
ENDBRANCH   1  14
TORSDOF 7
ENDMDL
MODEL 2
REMARK VINA RESULT:      -7.1      0.209      1.068
REMARK  Name = 
REMARK  9 active torsions:
REMARK  status: ('A' for Active; 'I' for Inactive)
REMARK    1  A    between atoms: C_1  and  N_2
REMARK    2  A    between atoms: N_2  and  C_3
REMARK    3  A    between atoms: C_6  and  C_7
REMARK    4  A    between atoms: C_7  and  O_9
REMARK    5  A    between atoms: O_9  and  C_10
REMARK    6  A    between atoms: C_12  and  C_13
REMARK    7  A    between atoms: C_14  and  O_15
REMARK    8  A    between atoms: C_16  and  O_17
REMARK    9  A    between atoms: C_18  and  O_19
REMARK                            x       y       z     vdW  Elec       q    Type
REMARK                         _______ _______ _______ _____ _____    ______ ____
ROOT
ATOM      1  C   UNL     1       3.474   4.276  18.069  0.00  0.00    +0.000 C 
ATOM      2  O   UNL     1       2.166   3.955  18.553  0.00  0.00    +0.000 OA
ATOM      3  C   UNL     1       2.095   3.771  19.969  0.00  0.00    +0.000 C 
ATOM      4  C   UNL     1       0.629   3.531  20.323  0.00  0.00    +0.000 C 
ATOM      5  C   UNL     1       2.987   2.602  20.421  0.00  0.00    +0.000 C 
ATOM      6  C   UNL     1       4.425   2.840  19.924  0.00  0.00    +0.000 C 
ATOM      7  C   UNL     1       4.444   3.127  18.418  0.00  0.00    +0.000 C 
ENDROOT
BRANCH   5   8
ATOM      8  O   UNL     1       2.943   2.467  21.845  0.00  0.00    +0.000 OA
ATOM      9  H   UNL     1       3.352   1.621  22.091  0.00  0.00    +0.000 HD
ENDBRANCH   5   8
BRANCH   6  10
ATOM     10  O   UNL     1       5.241   1.696  20.207  0.00  0.00    +0.000 OA
ATOM     11  H   UNL     1       6.165   2.018  20.210  0.00  0.00    +0.000 HD
ENDBRANCH   6  10
BRANCH   7  12
ATOM     12  O   UNL     1       4.082   1.911  17.727  0.00  0.00    +0.000 OA
ATOM     13  H   UNL     1       4.296   2.036  16.780  0.00  0.00    +0.000 HD
ENDBRANCH   7  12
BRANCH   1  14
ATOM     14  O   UNL     1       3.980   5.520  18.568  0.00  0.00    +0.000 OA
BRANCH  14  15
ATOM     15  C   UNL     1       3.748   6.572  17.739  0.00  0.00    +0.000 C 
ATOM     16  O   UNL     1       4.277   6.757  16.654  0.00  0.00    +0.000 OA
BRANCH  15  20
ATOM     17  C   UNL     1       0.908   9.252  19.593  0.00  0.00    +0.000 A 
ATOM     18  C   UNL     1       1.455   8.155  20.273  0.00  0.00    +0.000 A 
ATOM     19  C   UNL     1       2.418   7.334  19.677  0.00  0.00    +0.000 A 
ATOM     20  C   UNL     1       2.837   7.570  18.364  0.00  0.00    +0.000 A 
ATOM     21  C   UNL     1       2.318   8.673  17.678  0.00  0.00    +0.000 A 
ATOM     22  C   UNL     1       1.356   9.494  18.290  0.00  0.00    +0.000 A 
BRANCH  17  24
ATOM     23  C   UNL     1      -0.587  11.222  19.684  0.00  0.00    +0.000 C 
ATOM     24  N   UNL     1      -0.153   9.934  20.189  0.00  0.00    +0.000 N 
ATOM     25  H   UNL     1      -0.141   9.882  21.204  0.00  0.00    +0.000 HD
ENDBRANCH  17  24
ENDBRANCH  15  20
ENDBRANCH  14  15
ENDBRANCH   1  14
TORSDOF 7
ENDMDL
MODEL 3
REMARK VINA RESULT:      -7.1      2.020      3.669
REMARK  Name = 
REMARK  9 active torsions:
REMARK  status: ('A' for Active; 'I' for Inactive)
REMARK    1  A    between atoms: C_1  and  N_2
REMARK    2  A    between atoms: N_2  and  C_3
REMARK    3  A    between atoms: C_6  and  C_7
REMARK    4  A    between atoms: C_7  and  O_9
REMARK    5  A    between atoms: O_9  and  C_10
REMARK    6  A    between atoms: C_12  and  C_13
REMARK    7  A    between atoms: C_14  and  O_15
REMARK    8  A    between atoms: C_16  and  O_17
REMARK    9  A    between atoms: C_18  and  O_19
REMARK                            x       y       z     vdW  Elec       q    Type
REMARK                         _______ _______ _______ _____ _____    ______ ____
ROOT
ATOM      1  C   UNL     1       4.574   5.104  19.439  0.00  0.00    +0.000 C 
ATOM      2  O   UNL     1       5.927   5.498  19.689  0.00  0.00    +0.000 OA
ATOM      3  C   UNL     1       6.658   5.857  18.514  0.00  0.00    +0.000 C 
ATOM      4  C   UNL     1       8.037   6.336  18.965  0.00  0.00    +0.000 C 
ATOM      5  C   UNL     1       6.761   4.670  17.541  0.00  0.00    +0.000 C 
ATOM      6  C   UNL     1       5.346   4.150  17.225  0.00  0.00    +0.000 C 
ATOM      7  C   UNL     1       4.565   3.868  18.513  0.00  0.00    +0.000 C 
ENDROOT
BRANCH   5   8
ATOM      8  O   UNL     1       7.450   5.064  16.350  0.00  0.00    +0.000 OA
ATOM      9  H   UNL     1       7.785   5.969  16.468  0.00  0.00    +0.000 HD
ENDBRANCH   5   8
BRANCH   6  10
ATOM     10  O   UNL     1       5.423   2.956  16.436  0.00  0.00    +0.000 OA
ATOM     11  H   UNL     1       6.357   2.878  16.156  0.00  0.00    +0.000 HD
ENDBRANCH   6  10
BRANCH   7  12
ATOM     12  O   UNL     1       5.169   2.726  19.161  0.00  0.00    +0.000 OA
ATOM     13  H   UNL     1       5.356   2.060  18.469  0.00  0.00    +0.000 HD
ENDBRANCH   7  12
BRANCH   1  14
ATOM     14  O   UNL     1       3.768   6.148  18.879  0.00  0.00    +0.000 OA
BRANCH  14  15
ATOM     15  C   UNL     1       2.654   6.422  19.608  0.00  0.00    +0.000 C 
ATOM     16  O   UNL     1       2.089   5.653  20.368  0.00  0.00    +0.000 OA
BRANCH  15  20
ATOM     17  C   UNL     1       0.800  10.227  18.727  0.00  0.00    +0.000 A 
ATOM     18  C   UNL     1       0.709   9.626  19.989  0.00  0.00    +0.000 A 
ATOM     19  C   UNL     1       1.366   8.424  20.273  0.00  0.00    +0.000 A 
ATOM     20  C   UNL     1       2.108   7.770  19.285  0.00  0.00    +0.000 A 
ATOM     21  C   UNL     1       2.227   8.366  18.025  0.00  0.00    +0.000 A 
ATOM     22  C   UNL     1       1.568   9.577  17.754  0.00  0.00    +0.000 A 
BRANCH  17  24
ATOM     23  C   UNL     1      -1.415  11.193  18.193  0.00  0.00    +0.000 C 
ATOM     24  N   UNL     1       0.001  11.340  18.468  0.00  0.00    +0.000 N 
ATOM     25  H   UNL     1       0.456  12.030  17.877  0.00  0.00    +0.000 HD
ENDBRANCH  17  24
ENDBRANCH  15  20
ENDBRANCH  14  15
ENDBRANCH   1  14
TORSDOF 7
ENDMDL
MODEL 4
REMARK VINA RESULT:      -7.0      2.046      3.583
REMARK  Name = 
REMARK  9 active torsions:
REMARK  status: ('A' for Active; 'I' for Inactive)
REMARK    1  A    between atoms: C_1  and  N_2
REMARK    2  A    between atoms: N_2  and  C_3
REMARK    3  A    between atoms: C_6  and  C_7
REMARK    4  A    between atoms: C_7  and  O_9
REMARK    5  A    between atoms: O_9  and  C_10
REMARK    6  A    between atoms: C_12  and  C_13
REMARK    7  A    between atoms: C_14  and  O_15
REMARK    8  A    between atoms: C_16  and  O_17
REMARK    9  A    between atoms: C_18  and  O_19
REMARK                            x       y       z     vdW  Elec       q    Type
REMARK                         _______ _______ _______ _____ _____    ______ ____
ROOT
ATOM      1  C   UNL     1       4.565   5.069  19.464  0.00  0.00    +0.000 C 
ATOM      2  O   UNL     1       5.919   5.484  19.674  0.00  0.00    +0.000 OA
ATOM      3  C   UNL     1       6.608   5.858  18.479  0.00  0.00    +0.000 C 
ATOM      4  C   UNL     1       7.992   6.357  18.890  0.00  0.00    +0.000 C 
ATOM      5  C   UNL     1       6.700   4.676  17.499  0.00  0.00    +0.000 C 
ATOM      6  C   UNL     1       5.284   4.135  17.224  0.00  0.00    +0.000 C 
ATOM      7  C   UNL     1       4.547   3.837  18.534  0.00  0.00    +0.000 C 
ENDROOT
BRANCH   5   8
ATOM      8  O   UNL     1       7.346   5.084  16.290  0.00  0.00    +0.000 OA
ATOM      9  H   UNL     1       7.699   4.295  15.844  0.00  0.00    +0.000 HD
ENDBRANCH   5   8
BRANCH   6  10
ATOM     10  O   UNL     1       5.356   2.944  16.430  0.00  0.00    +0.000 OA
ATOM     11  H   UNL     1       6.223   2.537  16.632  0.00  0.00    +0.000 HD
ENDBRANCH   6  10
BRANCH   7  12
ATOM     12  O   UNL     1       5.188   2.702  19.160  0.00  0.00    +0.000 OA
ATOM     13  H   UNL     1       6.028   3.018  19.551  0.00  0.00    +0.000 HD
ENDBRANCH   7  12
BRANCH   1  14
ATOM     14  O   UNL     1       3.726   6.102  18.933  0.00  0.00    +0.000 OA
BRANCH  14  15
ATOM     15  C   UNL     1       2.633   6.361  19.698  0.00  0.00    +0.000 C 
ATOM     16  O   UNL     1       2.116   5.590  20.490  0.00  0.00    +0.000 OA
BRANCH  15  20
ATOM     17  C   UNL     1       1.189  10.313  18.709  0.00  0.00    +0.000 A 
ATOM     18  C   UNL     1       1.890   9.522  17.789  0.00  0.00    +0.000 A 
ATOM     19  C   UNL     1       2.297   8.222  18.108  0.00  0.00    +0.000 A 
ATOM     20  C   UNL     1       2.041   7.689  19.375  0.00  0.00    +0.000 A 
ATOM     21  C   UNL     1       1.324   8.456  20.298  0.00  0.00    +0.000 A 
ATOM     22  C   UNL     1       0.915   9.758  19.964  0.00  0.00    +0.000 A 
BRANCH  17  24
ATOM     23  C   UNL     1       0.535  12.600  19.392  0.00  0.00    +0.000 C 
ATOM     24  N   UNL     1       0.948  11.647  18.380  0.00  0.00    +0.000 N 
ATOM     25  H   UNL     1       0.456  11.759  17.498  0.00  0.00    +0.000 HD
ENDBRANCH  17  24
ENDBRANCH  15  20
ENDBRANCH  14  15
ENDBRANCH   1  14
TORSDOF 7
ENDMDL
MODEL 5
REMARK VINA RESULT:      -7.0      3.261      4.762
REMARK  Name = 
REMARK  9 active torsions:
REMARK  status: ('A' for Active; 'I' for Inactive)
REMARK    1  A    between atoms: C_1  and  N_2
REMARK    2  A    between atoms: N_2  and  C_3
REMARK    3  A    between atoms: C_6  and  C_7
REMARK    4  A    between atoms: C_7  and  O_9
REMARK    5  A    between atoms: O_9  and  C_10
REMARK    6  A    between atoms: C_12  and  C_13
REMARK    7  A    between atoms: C_14  and  O_15
REMARK    8  A    between atoms: C_16  and  O_17
REMARK    9  A    between atoms: C_18  and  O_19
REMARK                            x       y       z     vdW  Elec       q    Type
REMARK                         _______ _______ _______ _____ _____    ______ ____
ROOT
ATOM      1  C   UNL     1       3.091   3.658  17.401  0.00  0.00    +0.000 C 
ATOM      2  O   UNL     1       2.704   5.019  17.615  0.00  0.00    +0.000 OA
ATOM      3  C   UNL     1       2.957   5.499  18.937  0.00  0.00    +0.000 C 
ATOM      4  C   UNL     1       2.576   6.978  18.965  0.00  0.00    +0.000 C 
ATOM      5  C   UNL     1       2.168   4.690  19.981  0.00  0.00    +0.000 C 
ATOM      6  C   UNL     1       2.498   3.194  19.818  0.00  0.00    +0.000 C 
ATOM      7  C   UNL     1       2.303   2.745  18.365  0.00  0.00    +0.000 C 
ENDROOT
BRANCH   5   8
ATOM      8  O   UNL     1       2.475   5.151  21.300  0.00  0.00    +0.000 OA
ATOM      9  H   UNL     1       3.438   5.122  21.425  0.00  0.00    +0.000 HD
ENDBRANCH   5   8
BRANCH   6  10
ATOM     10  O   UNL     1       1.666   2.408  20.681  0.00  0.00    +0.000 OA
ATOM     11  H   UNL     1       1.745   2.810  21.569  0.00  0.00    +0.000 HD
ENDBRANCH   6  10
BRANCH   7  12
ATOM     12  O   UNL     1       0.888   2.777  18.073  0.00  0.00    +0.000 OA
ATOM     13  H   UNL     1       0.788   2.780  17.100  0.00  0.00    +0.000 HD
ENDBRANCH   7  12
BRANCH   1  14
ATOM     14  O   UNL     1       4.499   3.434  17.547  0.00  0.00    +0.000 OA
BRANCH  14  15
ATOM     15  C   UNL     1       5.253   4.127  16.654  0.00  0.00    +0.000 C 
ATOM     16  O   UNL     1       5.344   3.892  15.459  0.00  0.00    +0.000 OA
BRANCH  15  20
ATOM     17  C   UNL     1       7.781   7.197  18.349  0.00  0.00    +0.000 A 
ATOM     18  C   UNL     1       6.886   7.459  17.303  0.00  0.00    +0.000 A 
ATOM     19  C   UNL     1       6.033   6.467  16.808  0.00  0.00    +0.000 A 
ATOM     20  C   UNL     1       6.078   5.169  17.327  0.00  0.00    +0.000 A 
ATOM     21  C   UNL     1       6.949   4.895  18.386  0.00  0.00    +0.000 A 
ATOM     22  C   UNL     1       7.796   5.902  18.879  0.00  0.00    +0.000 A 
BRANCH  17  24
ATOM     23  C   UNL     1       8.518   9.558  18.260  0.00  0.00    +0.000 C 
ATOM     24  N   UNL     1       8.704   8.186  18.690  0.00  0.00    +0.000 N 
ATOM     25  H   UNL     1       9.668   7.871  18.627  0.00  0.00    +0.000 HD
ENDBRANCH  17  24
ENDBRANCH  15  20
ENDBRANCH  14  15
ENDBRANCH   1  14
TORSDOF 7
ENDMDL
MODEL 6
REMARK VINA RESULT:      -7.0      3.013      5.015
REMARK  Name = 
REMARK  9 active torsions:
REMARK  status: ('A' for Active; 'I' for Inactive)
REMARK    1  A    between atoms: C_1  and  N_2
REMARK    2  A    between atoms: N_2  and  C_3
REMARK    3  A    between atoms: C_6  and  C_7
REMARK    4  A    between atoms: C_7  and  O_9
REMARK    5  A    between atoms: O_9  and  C_10
REMARK    6  A    between atoms: C_12  and  C_13
REMARK    7  A    between atoms: C_14  and  O_15
REMARK    8  A    between atoms: C_16  and  O_17
REMARK    9  A    between atoms: C_18  and  O_19
REMARK                            x       y       z     vdW  Elec       q    Type
REMARK                         _______ _______ _______ _____ _____    ______ ____
ROOT
ATOM      1  C   UNL     1       5.363   6.842  17.143  0.00  0.00    +0.000 C 
ATOM      2  O   UNL     1       6.240   6.568  16.046  0.00  0.00    +0.000 OA
ATOM      3  C   UNL     1       6.052   5.280  15.453  0.00  0.00    +0.000 C 
ATOM      4  C   UNL     1       6.993   5.191  14.253  0.00  0.00    +0.000 C 
ATOM      5  C   UNL     1       6.322   4.159  16.470  0.00  0.00    +0.000 C 
ATOM      6  C   UNL     1       5.437   4.376  17.712  0.00  0.00    +0.000 C 
ATOM      7  C   UNL     1       5.598   5.800  18.257  0.00  0.00    +0.000 C 
ENDROOT
BRANCH   5   8
ATOM      8  O   UNL     1       6.079   2.881  15.874  0.00  0.00    +0.000 OA
ATOM      9  H   UNL     1       6.734   2.248  16.213  0.00  0.00    +0.000 HD
ENDBRANCH   5   8
BRANCH   6  10
ATOM     10  O   UNL     1       5.775   3.428  18.732  0.00  0.00    +0.000 OA
ATOM     11  H   UNL     1       5.193   2.656  18.585  0.00  0.00    +0.000 HD
ENDBRANCH   6  10
BRANCH   7  12
ATOM     12  O   UNL     1       6.929   5.919  18.810  0.00  0.00    +0.000 OA
ATOM     13  H   UNL     1       7.062   5.166  19.421  0.00  0.00    +0.000 HD
ENDBRANCH   7  12
BRANCH   1  14
ATOM     14  O   UNL     1       3.978   6.869  16.775  0.00  0.00    +0.000 OA
BRANCH  14  15
ATOM     15  C   UNL     1       3.164   7.334  17.760  0.00  0.00    +0.000 C 
ATOM     16  O   UNL     1       3.087   8.492  18.137  0.00  0.00    +0.000 OA
BRANCH  15  20
ATOM     17  C   UNL     1       1.287   4.058  19.866  0.00  0.00    +0.000 A 
ATOM     18  C   UNL     1       1.785   5.187  20.531  0.00  0.00    +0.000 A 
ATOM     19  C   UNL     1       2.335   6.263  19.827  0.00  0.00    +0.000 A 
ATOM     20  C   UNL     1       2.432   6.224  18.433  0.00  0.00    +0.000 A 
ATOM     21  C   UNL     1       1.921   5.115  17.751  0.00  0.00    +0.000 A 
ATOM     22  C   UNL     1       1.365   4.043  18.468  0.00  0.00    +0.000 A 
BRANCH  17  24
ATOM     23  C   UNL     1       1.577   2.633  21.869  0.00  0.00    +0.000 C 
ATOM     24  N   UNL     1       0.893   2.962  20.633  0.00  0.00    +0.000 N 
ATOM     25  H   UNL     1       0.658   2.147  20.074  0.00  0.00    +0.000 HD
ENDBRANCH  17  24
ENDBRANCH  15  20
ENDBRANCH  14  15
ENDBRANCH   1  14
TORSDOF 7
ENDMDL
MODEL 7
REMARK VINA RESULT:      -6.9      3.314      4.977
REMARK  Name = 
REMARK  9 active torsions:
REMARK  status: ('A' for Active; 'I' for Inactive)
REMARK    1  A    between atoms: C_1  and  N_2
REMARK    2  A    between atoms: N_2  and  C_3
REMARK    3  A    between atoms: C_6  and  C_7
REMARK    4  A    between atoms: C_7  and  O_9
REMARK    5  A    between atoms: O_9  and  C_10
REMARK    6  A    between atoms: C_12  and  C_13
REMARK    7  A    between atoms: C_14  and  O_15
REMARK    8  A    between atoms: C_16  and  O_17
REMARK    9  A    between atoms: C_18  and  O_19
REMARK                            x       y       z     vdW  Elec       q    Type
REMARK                         _______ _______ _______ _____ _____    ______ ____
ROOT
ATOM      1  C   UNL     1       3.155   3.710  17.500  0.00  0.00    +0.000 C 
ATOM      2  O   UNL     1       2.724   5.067  17.653  0.00  0.00    +0.000 OA
ATOM      3  C   UNL     1       2.950   5.609  18.956  0.00  0.00    +0.000 C 
ATOM      4  C   UNL     1       2.524   7.075  18.918  0.00  0.00    +0.000 C 
ATOM      5  C   UNL     1       2.175   4.821  20.026  0.00  0.00    +0.000 C 
ATOM      6  C   UNL     1       2.552   3.330  19.929  0.00  0.00    +0.000 C 
ATOM      7  C   UNL     1       2.386   2.815  18.495  0.00  0.00    +0.000 C 
ENDROOT
BRANCH   5   8
ATOM      8  O   UNL     1       2.455   5.345  21.327  0.00  0.00    +0.000 OA
ATOM      9  H   UNL     1       2.962   4.684  21.828  0.00  0.00    +0.000 HD
ENDBRANCH   5   8
BRANCH   6  10
ATOM     10  O   UNL     1       1.736   2.556  20.817  0.00  0.00    +0.000 OA
ATOM     11  H   UNL     1       2.095   2.707  21.714  0.00  0.00    +0.000 HD
ENDBRANCH   6  10
BRANCH   7  12
ATOM     12  O   UNL     1       0.973   2.791  18.190  0.00  0.00    +0.000 OA
ATOM     13  H   UNL     1       0.704   1.853  18.113  0.00  0.00    +0.000 HD
ENDBRANCH   7  12
BRANCH   1  14
ATOM     14  O   UNL     1       4.567   3.536  17.667  0.00  0.00    +0.000 OA
BRANCH  14  15
ATOM     15  C   UNL     1       5.302   4.057  16.650  0.00  0.00    +0.000 C 
ATOM     16  O   UNL     1       5.263   3.702  15.483  0.00  0.00    +0.000 OA
BRANCH  15  20
ATOM     17  C   UNL     1       7.961   7.031  18.316  0.00  0.00    +0.000 A 
ATOM     18  C   UNL     1       7.646   5.846  18.994  0.00  0.00    +0.000 A 
ATOM     19  C   UNL     1       6.832   4.869  18.413  0.00  0.00    +0.000 A 
ATOM     20  C   UNL     1       6.280   5.067  17.144  0.00  0.00    +0.000 A 
ATOM     21  C   UNL     1       6.600   6.234  16.444  0.00  0.00    +0.000 A 
ATOM     22  C   UNL     1       7.425   7.206  17.034  0.00  0.00    +0.000 A 
BRANCH  17  24
ATOM     23  C   UNL     1       8.671   9.393  18.530  0.00  0.00    +0.000 C 
ATOM     24  N   UNL     1       8.651   8.025  19.010  0.00  0.00    +0.000 N 
ATOM     25  H   UNL     1       9.550   7.711  19.369  0.00  0.00    +0.000 HD
ENDBRANCH  17  24
ENDBRANCH  15  20
ENDBRANCH  14  15
ENDBRANCH   1  14
TORSDOF 7
ENDMDL
MODEL 8
REMARK VINA RESULT:      -6.9      2.550      4.268
REMARK  Name = 
REMARK  9 active torsions:
REMARK  status: ('A' for Active; 'I' for Inactive)
REMARK    1  A    between atoms: C_1  and  N_2
REMARK    2  A    between atoms: N_2  and  C_3
REMARK    3  A    between atoms: C_6  and  C_7
REMARK    4  A    between atoms: C_7  and  O_9
REMARK    5  A    between atoms: O_9  and  C_10
REMARK    6  A    between atoms: C_12  and  C_13
REMARK    7  A    between atoms: C_14  and  O_15
REMARK    8  A    between atoms: C_16  and  O_17
REMARK    9  A    between atoms: C_18  and  O_19
REMARK                            x       y       z     vdW  Elec       q    Type
REMARK                         _______ _______ _______ _____ _____    ______ ____
ROOT
ATOM      1  C   UNL     1       4.727   4.001  16.915  0.00  0.00    +0.000 C 
ATOM      2  O   UNL     1       5.640   4.219  17.995  0.00  0.00    +0.000 OA
ATOM      3  C   UNL     1       6.280   5.498  17.971  0.00  0.00    +0.000 C 
ATOM      4  C   UNL     1       7.139   5.599  19.230  0.00  0.00    +0.000 C 
ATOM      5  C   UNL     1       7.120   5.674  16.695  0.00  0.00    +0.000 C 
ATOM      6  C   UNL     1       6.227   5.433  15.463  0.00  0.00    +0.000 C 
ATOM      7  C   UNL     1       5.488   4.095  15.575  0.00  0.00    +0.000 C 
ENDROOT
BRANCH   5   8
ATOM      8  O   UNL     1       7.708   6.977  16.665  0.00  0.00    +0.000 OA
ATOM      9  H   UNL     1       7.557   7.368  15.788  0.00  0.00    +0.000 HD
ENDBRANCH   5   8
BRANCH   6  10
ATOM     10  O   UNL     1       7.019   5.448  14.268  0.00  0.00    +0.000 OA
ATOM     11  H   UNL     1       7.067   4.519  13.966  0.00  0.00    +0.000 HD
ENDBRANCH   6  10
BRANCH   7  12
ATOM     12  O   UNL     1       6.463   3.034  15.454  0.00  0.00    +0.000 OA
ATOM     13  H   UNL     1       7.326   3.394  15.740  0.00  0.00    +0.000 HD
ENDBRANCH   7  12
BRANCH   1  14
ATOM     14  O   UNL     1       3.614   4.904  16.916  0.00  0.00    +0.000 OA
BRANCH  14  15
ATOM     15  C   UNL     1       2.550   4.452  17.631  0.00  0.00    +0.000 C 
ATOM     16  O   UNL     1       1.906   3.443  17.394  0.00  0.00    +0.000 OA
BRANCH  15  20
ATOM     17  C   UNL     1       1.713   7.338  20.738  0.00  0.00    +0.000 A 
ATOM     18  C   UNL     1       2.113   7.721  19.451  0.00  0.00    +0.000 A 
ATOM     19  C   UNL     1       2.321   6.775  18.442  0.00  0.00    +0.000 A 
ATOM     20  C   UNL     1       2.166   5.411  18.705  0.00  0.00    +0.000 A 
ATOM     21  C   UNL     1       1.747   5.012  19.977  0.00  0.00    +0.000 A 
ATOM     22  C   UNL     1       1.534   5.972  20.981  0.00  0.00    +0.000 A 
BRANCH  17  24
ATOM     23  C   UNL     1       0.584   9.274  21.789  0.00  0.00    +0.000 C 
ATOM     24  N   UNL     1       1.670   8.316  21.733  0.00  0.00    +0.000 N 
ATOM     25  H   UNL     1       2.580   8.726  21.928  0.00  0.00    +0.000 HD
ENDBRANCH  17  24
ENDBRANCH  15  20
ENDBRANCH  14  15
ENDBRANCH   1  14
TORSDOF 7
ENDMDL
MODEL 9
REMARK VINA RESULT:      -6.9      3.889      5.965
REMARK  Name = 
REMARK  9 active torsions:
REMARK  status: ('A' for Active; 'I' for Inactive)
REMARK    1  A    between atoms: C_1  and  N_2
REMARK    2  A    between atoms: N_2  and  C_3
REMARK    3  A    between atoms: C_6  and  C_7
REMARK    4  A    between atoms: C_7  and  O_9
REMARK    5  A    between atoms: O_9  and  C_10
REMARK    6  A    between atoms: C_12  and  C_13
REMARK    7  A    between atoms: C_14  and  O_15
REMARK    8  A    between atoms: C_16  and  O_17
REMARK    9  A    between atoms: C_18  and  O_19
REMARK                            x       y       z     vdW  Elec       q    Type
REMARK                         _______ _______ _______ _____ _____    ______ ____
ROOT
ATOM      1  C   UNL     1       3.707   4.794  19.573  0.00  0.00    +0.000 C 
ATOM      2  O   UNL     1       2.959   4.257  20.669  0.00  0.00    +0.000 OA
ATOM      3  C   UNL     1       2.186   3.101  20.340  0.00  0.00    +0.000 C 
ATOM      4  C   UNL     1       1.532   2.609  21.629  0.00  0.00    +0.000 C 
ATOM      5  C   UNL     1       1.139   3.424  19.260  0.00  0.00    +0.000 C 
ATOM      6  C   UNL     1       1.845   4.035  18.036  0.00  0.00    +0.000 C 
ATOM      7  C   UNL     1       2.737   5.212  18.448  0.00  0.00    +0.000 C 
ENDROOT
BRANCH   5   8
ATOM      8  O   UNL     1       0.411   2.244  18.907  0.00  0.00    +0.000 OA
ATOM      9  H   UNL     1      -0.538   2.452  18.903  0.00  0.00    +0.000 HD
ENDBRANCH   5   8
BRANCH   6  10
ATOM     10  O   UNL     1       0.876   4.478  17.077  0.00  0.00    +0.000 OA
ATOM     11  H   UNL     1       0.159   4.898  17.593  0.00  0.00    +0.000 HD
ENDBRANCH   6  10
BRANCH   7  12
ATOM     12  O   UNL     1       1.879   6.295  18.875  0.00  0.00    +0.000 OA
ATOM     13  H   UNL     1       1.543   6.070  19.767  0.00  0.00    +0.000 HD
ENDBRANCH   7  12
BRANCH   1  14
ATOM     14  O   UNL     1       4.699   3.894  19.063  0.00  0.00    +0.000 OA
BRANCH  14  15
ATOM     15  C   UNL     1       5.856   4.509  18.703  0.00  0.00    +0.000 C 
ATOM     16  O   UNL     1       6.617   5.098  19.454  0.00  0.00    +0.000 OA
BRANCH  15  20
ATOM     17  C   UNL     1       6.456   4.159  14.436  0.00  0.00    +0.000 A 
ATOM     18  C   UNL     1       5.406   3.510  15.099  0.00  0.00    +0.000 A 
ATOM     19  C   UNL     1       5.192   3.683  16.470  0.00  0.00    +0.000 A 
ATOM     20  C   UNL     1       6.049   4.489  17.226  0.00  0.00    +0.000 A 
ATOM     21  C   UNL     1       7.090   5.161  16.578  0.00  0.00    +0.000 A 
ATOM     22  C   UNL     1       7.291   4.985  15.199  0.00  0.00    +0.000 A 
BRANCH  17  24
ATOM     23  C   UNL     1       5.658   3.255  12.275  0.00  0.00    +0.000 C 
ATOM     24  N   UNL     1       6.702   3.824  13.105  0.00  0.00    +0.000 N 
ATOM     25  H   UNL     1       7.610   3.389  12.964  0.00  0.00    +0.000 HD
ENDBRANCH  17  24
ENDBRANCH  15  20
ENDBRANCH  14  15
ENDBRANCH   1  14
TORSDOF 7
ENDMDL
