MODEL 1
REMARK VINA RESULT:      -8.0      0.000      0.000
REMARK  Name = 
REMARK  6 active torsions:
REMARK  status: ('A' for Active; 'I' for Inactive)
REMARK    1  A    between atoms: N_1  and  C_2
REMARK    2  A    between atoms: C_7  and  C_8
REMARK    3  A    between atoms: N_14  and  C_15
REMARK    4  A    between atoms: N_23  and  C_24
REMARK    5  A    between atoms: C_27  and  C_28
REMARK    6  A    between atoms: C_28  and  N_29
REMARK                            x       y       z     vdW  Elec       q    Type
REMARK                         _______ _______ _______ _____ _____    ______ ____
ROOT
ATOM      1  C   UNL     1      -0.355  12.079  18.712  0.00  0.00    +0.000 A 
ATOM      2  N   UNL     1       0.119  13.085  17.985  0.00  0.00    +0.000 NA
ATOM      3  C   UNL     1       1.305  13.410  18.572  0.00  0.00    +0.000 A 
ATOM      4  C   UNL     1       2.242  14.371  18.220  0.00  0.00    +0.000 A 
ATOM      5  C   UNL     1       3.201  14.654  19.182  0.00  0.00    +0.000 A 
ATOM      6  C   UNL     1       3.188  14.004  20.427  0.00  0.00    +0.000 A 
ATOM      7  N   UNL     1       3.870  14.753  21.428  0.00  0.00    +0.000 N 
ATOM      8  N   UNL     1       2.476  12.865  20.664  0.00  0.00    +0.000 NA
ATOM      9  C   UNL     1       1.548  12.624  19.691  0.00  0.00    +0.000 A 
ATOM     10  N   UNL     1       0.738  11.515  19.399  0.00  0.00    +0.000 N 
ATOM     11  H   UNL     1       3.483  15.691  21.446  0.00  0.00    +0.000 HD
ENDROOT
BRANCH   1  17
ATOM     12  C   UNL     1      -2.897  12.097  19.043  0.00  0.00    +0.000 A 
ATOM     13  N   UNL     1      -4.114  11.541  18.832  0.00  0.00    +0.000 NA
ATOM     14  C   UNL     1      -4.179  10.420  18.080  0.00  0.00    +0.000 A 
ATOM     15  C   UNL     1      -3.080   9.810  17.517  0.00  0.00    +0.000 A 
ATOM     16  C   UNL     1      -1.839  10.388  17.742  0.00  0.00    +0.000 A 
ATOM     17  C   UNL     1      -1.716  11.546  18.529  0.00  0.00    +0.000 A 
BRANCH  12  18
ATOM     18  N   UNL     1      -2.948  13.273  19.785  0.00  0.00    +0.000 N 
ATOM     19  H   UNL     1      -2.122  13.273  20.380  0.00  0.00    +0.000 HD
ATOM     20  H   UNL     1      -2.972  14.107  19.206  0.00  0.00    +0.000 HD
ENDBRANCH  12  18
ENDBRANCH   1  17
BRANCH   7  21
ATOM     21  C   UNL     1       4.526  14.442  22.628  0.00  0.00    +0.000 A 
ATOM     22  C   UNL     1       5.339  13.323  22.772  0.00  0.00    +0.000 A 
ATOM     23  C   UNL     1       6.151  13.178  23.902  0.00  0.00    +0.000 A 
ATOM     24  C   UNL     1       6.155  14.150  24.905  0.00  0.00    +0.000 A 
ATOM     25  C   UNL     1       5.325  15.259  24.794  0.00  0.00    +0.000 A 
ATOM     26  C   UNL     1       4.523  15.406  23.661  0.00  0.00    +0.000 A 
ENDBRANCH   7  21
BRANCH  10  27
ATOM     27  C   UNL     1       1.163  10.143  19.321  0.00  0.00    +0.000 A 
ATOM     28  C   UNL     1       1.102   9.309  20.441  0.00  0.00    +0.000 A 
ATOM     29  C   UNL     1       1.636   8.005  20.394  0.00  0.00    +0.000 A 
ATOM     30  C   UNL     1       2.228   7.466  19.232  0.00  0.00    +0.000 A 
ATOM     31  C   UNL     1       2.330   8.352  18.149  0.00  0.00    +0.000 A 
ATOM     32  C   UNL     1       1.824   9.655  18.189  0.00  0.00    +0.000 A 
BRANCH  30  33
ATOM     33  C   UNL     1       2.644   5.951  19.080  0.00  0.00    +0.000 C 
ATOM     34  C   UNL     1       1.630   4.796  19.324  0.00  0.00    +0.000 C 
ATOM     35  C   UNL     1       1.633   4.532  17.808  0.00  0.00    +0.000 C 
ATOM     36  C   UNL     1       2.968   5.292  17.716  0.00  0.00    +0.000 C 
BRANCH  33  37
ATOM     37  N   UNL     1       3.788   5.706  19.967  0.00  0.00    +0.000 NA
ATOM     38  H   UNL     1       3.756   6.282  20.808  0.00  0.00    +0.000 HD
ATOM     39  H   UNL     1       4.680   5.938  19.529  0.00  0.00    +0.000 HD
ENDBRANCH  33  37
ENDBRANCH  30  33
ENDBRANCH  10  27
TORSDOF 6
ENDMDL
MODEL 2
REMARK VINA RESULT:      -7.9      0.464      1.026
REMARK  Name = 
REMARK  6 active torsions:
REMARK  status: ('A' for Active; 'I' for Inactive)
REMARK    1  A    between atoms: N_1  and  C_2
REMARK    2  A    between atoms: C_7  and  C_8
REMARK    3  A    between atoms: N_14  and  C_15
REMARK    4  A    between atoms: N_23  and  C_24
REMARK    5  A    between atoms: C_27  and  C_28
REMARK    6  A    between atoms: C_28  and  N_29
REMARK                            x       y       z     vdW  Elec       q    Type
REMARK                         _______ _______ _______ _____ _____    ______ ____
ROOT
ATOM      1  C   UNL     1      -0.180  12.084  18.737  0.00  0.00    +0.000 A 
ATOM      2  N   UNL     1       0.340  13.031  17.963  0.00  0.00    +0.000 NA
ATOM      3  C   UNL     1       1.493  13.398  18.589  0.00  0.00    +0.000 A 
ATOM      4  C   UNL     1       2.453  14.328  18.218  0.00  0.00    +0.000 A 
ATOM      5  C   UNL     1       3.359  14.682  19.207  0.00  0.00    +0.000 A 
ATOM      6  C   UNL     1       3.274  14.127  20.495  0.00  0.00    +0.000 A 
ATOM      7  N   UNL     1       3.905  14.949  21.473  0.00  0.00    +0.000 N 
ATOM      8  N   UNL     1       2.544  13.010  20.778  0.00  0.00    +0.000 NA
ATOM      9  C   UNL     1       1.670  12.698  19.775  0.00  0.00    +0.000 A 
ATOM     10  N   UNL     1       0.871  11.572  19.523  0.00  0.00    +0.000 N 
ATOM     11  H   UNL     1       3.523  15.886  21.399  0.00  0.00    +0.000 HD
ENDROOT
BRANCH   1  17
ATOM     12  C   UNL     1      -2.725  12.054  19.045  0.00  0.00    +0.000 A 
ATOM     13  N   UNL     1      -3.932  11.491  18.800  0.00  0.00    +0.000 NA
ATOM     14  C   UNL     1      -3.975  10.401  18.001  0.00  0.00    +0.000 A 
ATOM     15  C   UNL     1      -2.863   9.830  17.424  0.00  0.00    +0.000 A 
ATOM     16  C   UNL     1      -1.632  10.415  17.683  0.00  0.00    +0.000 A 
ATOM     17  C   UNL     1      -1.532  11.541  18.519  0.00  0.00    +0.000 A 
BRANCH  12  18
ATOM     18  N   UNL     1      -2.798  13.197  19.834  0.00  0.00    +0.000 N 
ATOM     19  H   UNL     1      -3.246  13.912  19.264  0.00  0.00    +0.000 HD
ATOM     20  H   UNL     1      -3.313  13.052  20.697  0.00  0.00    +0.000 HD
ENDBRANCH  12  18
ENDBRANCH   1  17
BRANCH   7  21
ATOM     21  C   UNL     1       4.492  14.728  22.727  0.00  0.00    +0.000 A 
ATOM     22  C   UNL     1       5.307  13.633  22.994  0.00  0.00    +0.000 A 
ATOM     23  C   UNL     1       6.052  13.575  24.176  0.00  0.00    +0.000 A 
ATOM     24  C   UNL     1       5.987  14.613  25.110  0.00  0.00    +0.000 A 
ATOM     25  C   UNL     1       5.153  15.700  24.876  0.00  0.00    +0.000 A 
ATOM     26  C   UNL     1       4.418  15.759  23.691  0.00  0.00    +0.000 A 
ENDBRANCH   7  21
BRANCH  10  27
ATOM     27  C   UNL     1       1.291  10.197  19.572  0.00  0.00    +0.000 A 
ATOM     28  C   UNL     1       1.792   9.559  18.433  0.00  0.00    +0.000 A 
ATOM     29  C   UNL     1       2.084   8.180  18.454  0.00  0.00    +0.000 A 
ATOM     30  C   UNL     1       1.915   7.383  19.605  0.00  0.00    +0.000 A 
ATOM     31  C   UNL     1       1.352   8.041  20.709  0.00  0.00    +0.000 A 
ATOM     32  C   UNL     1       1.038   9.404  20.696  0.00  0.00    +0.000 A 
BRANCH  30  33
ATOM     33  C   UNL     1       2.425   5.894  19.726  0.00  0.00    +0.000 C 
ATOM     34  C   UNL     1       2.005   4.979  20.912  0.00  0.00    +0.000 C 
ATOM     35  C   UNL     1       1.136   4.177  19.928  0.00  0.00    +0.000 C 
ATOM     36  C   UNL     1       1.970   4.760  18.774  0.00  0.00    +0.000 C 
BRANCH  33  37
ATOM     37  N   UNL     1       3.893   5.917  19.707  0.00  0.00    +0.000 NA
ATOM     38  H   UNL     1       4.292   5.948  20.646  0.00  0.00    +0.000 HD
ATOM     39  H   UNL     1       4.266   6.745  19.241  0.00  0.00    +0.000 HD
ENDBRANCH  33  37
ENDBRANCH  30  33
ENDBRANCH  10  27
TORSDOF 6
ENDMDL
MODEL 3
REMARK VINA RESULT:      -7.7      2.985      7.491
REMARK  Name = 
REMARK  6 active torsions:
REMARK  status: ('A' for Active; 'I' for Inactive)
REMARK    1  A    between atoms: N_1  and  C_2
REMARK    2  A    between atoms: C_7  and  C_8
REMARK    3  A    between atoms: N_14  and  C_15
REMARK    4  A    between atoms: N_23  and  C_24
REMARK    5  A    between atoms: C_27  and  C_28
REMARK    6  A    between atoms: C_28  and  N_29
REMARK                            x       y       z     vdW  Elec       q    Type
REMARK                         _______ _______ _______ _____ _____    ______ ____
ROOT
ATOM      1  C   UNL     1      -2.033  12.076  21.704  0.00  0.00    +0.000 A 
ATOM      2  N   UNL     1      -1.779  11.424  22.834  0.00  0.00    +0.000 NA
ATOM      3  C   UNL     1      -0.699  10.643  22.549  0.00  0.00    +0.000 A 
ATOM      4  C   UNL     1       0.011   9.772  23.362  0.00  0.00    +0.000 A 
ATOM      5  C   UNL     1       0.874   8.907  22.705  0.00  0.00    +0.000 A 
ATOM      6  C   UNL     1       0.988   8.928  21.305  0.00  0.00    +0.000 A 
ATOM      7  N   UNL     1       1.480   7.694  20.791  0.00  0.00    +0.000 N 
ATOM      8  N   UNL     1       0.537   9.961  20.537  0.00  0.00    +0.000 NA
ATOM      9  C   UNL     1      -0.304  10.787  21.226  0.00  0.00    +0.000 A 
ATOM     10  N   UNL     1      -0.852  12.047  20.937  0.00  0.00    +0.000 N 
ATOM     11  H   UNL     1       0.899   6.943  21.148  0.00  0.00    +0.000 HD
ENDROOT
BRANCH   1  17
ATOM     12  C   UNL     1      -4.039  12.950  20.368  0.00  0.00    +0.000 A 
ATOM     13  N   UNL     1      -5.139  13.736  20.278  0.00  0.00    +0.000 NA
ATOM     14  C   UNL     1      -5.481  14.478  21.354  0.00  0.00    +0.000 A 
ATOM     15  C   UNL     1      -4.775  14.482  22.538  0.00  0.00    +0.000 A 
ATOM     16  C   UNL     1      -3.650  13.675  22.618  0.00  0.00    +0.000 A 
ATOM     17  C   UNL     1      -3.244  12.895  21.521  0.00  0.00    +0.000 A 
BRANCH  12  18
ATOM     18  N   UNL     1      -3.806  12.191  19.226  0.00  0.00    +0.000 N 
ATOM     19  H   UNL     1      -2.890  12.470  18.879  0.00  0.00    +0.000 HD
ATOM     20  H   UNL     1      -3.835  11.192  19.400  0.00  0.00    +0.000 HD
ENDBRANCH  12  18
ENDBRANCH   1  17
BRANCH   7  21
ATOM     21  C   UNL     1       2.174   7.305  19.635  0.00  0.00    +0.000 A 
ATOM     22  C   UNL     1       2.322   8.137  18.531  0.00  0.00    +0.000 A 
ATOM     23  C   UNL     1       3.210   7.801  17.504  0.00  0.00    +0.000 A 
ATOM     24  C   UNL     1       3.958   6.623  17.568  0.00  0.00    +0.000 A 
ATOM     25  C   UNL     1       3.800   5.762  18.648  0.00  0.00    +0.000 A 
ATOM     26  C   UNL     1       2.920   6.106  19.676  0.00  0.00    +0.000 A 
ENDBRANCH   7  21
BRANCH  10  27
ATOM     27  C   UNL     1      -0.138  13.197  20.448  0.00  0.00    +0.000 A 
ATOM     28  C   UNL     1      -0.627  13.938  19.368  0.00  0.00    +0.000 A 
ATOM     29  C   UNL     1       0.137  14.985  18.813  0.00  0.00    +0.000 A 
ATOM     30  C   UNL     1       1.400  15.356  19.318  0.00  0.00    +0.000 A 
ATOM     31  C   UNL     1       1.887  14.551  20.358  0.00  0.00    +0.000 A 
ATOM     32  C   UNL     1       1.149  13.496  20.904  0.00  0.00    +0.000 A 
BRANCH  30  33
ATOM     33  C   UNL     1       2.184  16.648  18.860  0.00  0.00    +0.000 C 
ATOM     34  C   UNL     1       3.577  16.559  18.172  0.00  0.00    +0.000 C 
ATOM     35  C   UNL     1       2.906  16.989  16.856  0.00  0.00    +0.000 C 
ATOM     36  C   UNL     1       1.731  17.544  17.680  0.00  0.00    +0.000 C 
BRANCH  33  37
ATOM     37  N   UNL     1       2.345  17.517  20.033  0.00  0.00    +0.000 NA
ATOM     38  H   UNL     1       1.807  18.380  19.951  0.00  0.00    +0.000 HD
ATOM     39  H   UNL     1       3.309  17.825  20.163  0.00  0.00    +0.000 HD
ENDBRANCH  33  37
ENDBRANCH  30  33
ENDBRANCH  10  27
TORSDOF 6
ENDMDL
MODEL 4
REMARK VINA RESULT:      -7.6      3.164      7.520
REMARK  Name = 
REMARK  6 active torsions:
REMARK  status: ('A' for Active; 'I' for Inactive)
REMARK    1  A    between atoms: N_1  and  C_2
REMARK    2  A    between atoms: C_7  and  C_8
REMARK    3  A    between atoms: N_14  and  C_15
REMARK    4  A    between atoms: N_23  and  C_24
REMARK    5  A    between atoms: C_27  and  C_28
REMARK    6  A    between atoms: C_28  and  N_29
REMARK                            x       y       z     vdW  Elec       q    Type
REMARK                         _______ _______ _______ _____ _____    ______ ____
ROOT
ATOM      1  C   UNL     1      -2.016  11.981  21.851  0.00  0.00    +0.000 A 
ATOM      2  N   UNL     1      -1.747  11.312  22.967  0.00  0.00    +0.000 NA
ATOM      3  C   UNL     1      -0.670  10.537  22.657  0.00  0.00    +0.000 A 
ATOM      4  C   UNL     1       0.052   9.654  23.447  0.00  0.00    +0.000 A 
ATOM      5  C   UNL     1       0.908   8.802  22.766  0.00  0.00    +0.000 A 
ATOM      6  C   UNL     1       1.004   8.844  21.365  0.00  0.00    +0.000 A 
ATOM      7  N   UNL     1       1.491   7.619  20.825  0.00  0.00    +0.000 N 
ATOM      8  N   UNL     1       0.542   9.888  20.618  0.00  0.00    +0.000 NA
ATOM      9  C   UNL     1      -0.292  10.702  21.331  0.00  0.00    +0.000 A 
ATOM     10  N   UNL     1      -0.844  11.966  21.068  0.00  0.00    +0.000 N 
ATOM     11  H   UNL     1       0.915   6.862  21.178  0.00  0.00    +0.000 HD
ENDROOT
BRANCH   1  17
ATOM     12  C   UNL     1      -3.800  13.629  22.672  0.00  0.00    +0.000 A 
ATOM     13  N   UNL     1      -4.925  14.350  22.451  0.00  0.00    +0.000 NA
ATOM     14  C   UNL     1      -5.502  14.271  21.231  0.00  0.00    +0.000 A 
ATOM     15  C   UNL     1      -5.012  13.499  20.200  0.00  0.00    +0.000 A 
ATOM     16  C   UNL     1      -3.860  12.765  20.439  0.00  0.00    +0.000 A 
ATOM     17  C   UNL     1      -3.230  12.801  21.695  0.00  0.00    +0.000 A 
BRANCH  12  18
ATOM     18  N   UNL     1      -3.260  13.822  23.940  0.00  0.00    +0.000 N 
ATOM     19  H   UNL     1      -3.569  14.742  24.246  0.00  0.00    +0.000 HD
ATOM     20  H   UNL     1      -3.543  13.109  24.604  0.00  0.00    +0.000 HD
ENDBRANCH  12  18
ENDBRANCH   1  17
BRANCH   7  21
ATOM     21  C   UNL     1       2.170   7.249  19.655  0.00  0.00    +0.000 A 
ATOM     22  C   UNL     1       2.258   8.078  18.542  0.00  0.00    +0.000 A 
ATOM     23  C   UNL     1       3.132   7.769  17.495  0.00  0.00    +0.000 A 
ATOM     24  C   UNL     1       3.928   6.622  17.548  0.00  0.00    +0.000 A 
ATOM     25  C   UNL     1       3.831   5.764  18.637  0.00  0.00    +0.000 A 
ATOM     26  C   UNL     1       2.964   6.081  19.685  0.00  0.00    +0.000 A 
ENDBRANCH   7  21
BRANCH  10  27
ATOM     27  C   UNL     1      -0.139  13.124  20.588  0.00  0.00    +0.000 A 
ATOM     28  C   UNL     1       0.708  13.849  21.432  0.00  0.00    +0.000 A 
ATOM     29  C   UNL     1       1.296  15.053  20.995  0.00  0.00    +0.000 A 
ATOM     30  C   UNL     1       1.092  15.575  19.700  0.00  0.00    +0.000 A 
ATOM     31  C   UNL     1       0.187  14.856  18.904  0.00  0.00    +0.000 A 
ATOM     32  C   UNL     1      -0.421  13.672  19.333  0.00  0.00    +0.000 A 
BRANCH  30  33
ATOM     33  C   UNL     1       1.894  16.799  19.109  0.00  0.00    +0.000 C 
ATOM     34  C   UNL     1       3.393  16.678  18.707  0.00  0.00    +0.000 C 
ATOM     35  C   UNL     1       2.960  16.766  17.234  0.00  0.00    +0.000 C 
ATOM     36  C   UNL     1       1.631  17.387  17.700  0.00  0.00    +0.000 C 
BRANCH  33  37
ATOM     37  N   UNL     1       1.800  17.905  20.069  0.00  0.00    +0.000 NA
ATOM     38  H   UNL     1       2.715  18.294  20.302  0.00  0.00    +0.000 HD
ATOM     39  H   UNL     1       1.408  17.615  20.965  0.00  0.00    +0.000 HD
ENDBRANCH  33  37
ENDBRANCH  30  33
ENDBRANCH  10  27
TORSDOF 6
ENDMDL
MODEL 5
REMARK VINA RESULT:      -7.6      0.521      1.327
REMARK  Name = 
REMARK  6 active torsions:
REMARK  status: ('A' for Active; 'I' for Inactive)
REMARK    1  A    between atoms: N_1  and  C_2
REMARK    2  A    between atoms: C_7  and  C_8
REMARK    3  A    between atoms: N_14  and  C_15
REMARK    4  A    between atoms: N_23  and  C_24
REMARK    5  A    between atoms: C_27  and  C_28
REMARK    6  A    between atoms: C_28  and  N_29
REMARK                            x       y       z     vdW  Elec       q    Type
REMARK                         _______ _______ _______ _____ _____    ______ ____
ROOT
ATOM      1  C   UNL     1      -0.145  12.330  18.812  0.00  0.00    +0.000 A 
ATOM      2  N   UNL     1       0.329  13.310  18.051  0.00  0.00    +0.000 NA
ATOM      3  C   UNL     1       1.518  13.651  18.624  0.00  0.00    +0.000 A 
ATOM      4  C   UNL     1       2.456  14.597  18.238  0.00  0.00    +0.000 A 
ATOM      5  C   UNL     1       3.419  14.909  19.186  0.00  0.00    +0.000 A 
ATOM      6  C   UNL     1       3.409  14.299  20.451  0.00  0.00    +0.000 A 
ATOM      7  N   UNL     1       4.097  15.078  21.425  0.00  0.00    +0.000 N 
ATOM      8  N   UNL     1       2.694  13.170  20.728  0.00  0.00    +0.000 NA
ATOM      9  C   UNL     1       1.763  12.900  19.766  0.00  0.00    +0.000 A 
ATOM     10  N   UNL     1       0.949  11.785  19.513  0.00  0.00    +0.000 N 
ATOM     11  H   UNL     1       3.712  16.017  21.415  0.00  0.00    +0.000 HD
ENDROOT
BRANCH   1  17
ATOM     12  C   UNL     1      -2.673  12.302  19.244  0.00  0.00    +0.000 A 
ATOM     13  N   UNL     1      -3.893  11.748  19.048  0.00  0.00    +0.000 NA
ATOM     14  C   UNL     1      -3.979  10.673  18.232  0.00  0.00    +0.000 A 
ATOM     15  C   UNL     1      -2.899  10.109  17.590  0.00  0.00    +0.000 A 
ATOM     16  C   UNL     1      -1.655  10.685  17.800  0.00  0.00    +0.000 A 
ATOM     17  C   UNL     1      -1.509  11.795  18.651  0.00  0.00    +0.000 A 
BRANCH  12  18
ATOM     18  N   UNL     1      -2.702  13.431  20.057  0.00  0.00    +0.000 N 
ATOM     19  H   UNL     1      -1.735  13.729  20.170  0.00  0.00    +0.000 HD
ATOM     20  H   UNL     1      -3.267  14.182  19.673  0.00  0.00    +0.000 HD
ENDBRANCH  12  18
ENDBRANCH   1  17
BRANCH   7  21
ATOM     21  C   UNL     1       4.756  14.803  22.633  0.00  0.00    +0.000 A 
ATOM     22  C   UNL     1       4.619  15.600  23.764  0.00  0.00    +0.000 A 
ATOM     23  C   UNL     1       5.103  15.165  25.001  0.00  0.00    +0.000 A 
ATOM     24  C   UNL     1       5.737  13.926  25.121  0.00  0.00    +0.000 A 
ATOM     25  C   UNL     1       5.913  13.129  23.996  0.00  0.00    +0.000 A 
ATOM     26  C   UNL     1       5.419  13.562  22.764  0.00  0.00    +0.000 A 
ENDBRANCH   7  21
BRANCH  10  27
ATOM     27  C   UNL     1       1.369  10.410  19.477  0.00  0.00    +0.000 A 
ATOM     28  C   UNL     1       1.843   9.836  18.294  0.00  0.00    +0.000 A 
ATOM     29  C   UNL     1       2.134   8.457  18.232  0.00  0.00    +0.000 A 
ATOM     30  C   UNL     1       1.992   7.599  19.343  0.00  0.00    +0.000 A 
ATOM     31  C   UNL     1       1.455   8.196  20.493  0.00  0.00    +0.000 A 
ATOM     32  C   UNL     1       1.142   9.557  20.561  0.00  0.00    +0.000 A 
BRANCH  30  33
ATOM     33  C   UNL     1       2.504   6.106  19.370  0.00  0.00    +0.000 C 
ATOM     34  C   UNL     1       2.012   5.053  18.335  0.00  0.00    +0.000 C 
ATOM     35  C   UNL     1       3.408   5.097  17.692  0.00  0.00    +0.000 C 
ATOM     36  C   UNL     1       3.952   5.697  19.000  0.00  0.00    +0.000 C 
BRANCH  33  37
ATOM     37  N   UNL     1       2.221   5.557  20.702  0.00  0.00    +0.000 NA
ATOM     38  H   UNL     1       1.662   6.193  21.272  0.00  0.00    +0.000 HD
ATOM     39  H   UNL     1       3.067   5.397  21.248  0.00  0.00    +0.000 HD
ENDBRANCH  33  37
ENDBRANCH  30  33
ENDBRANCH  10  27
TORSDOF 6
ENDMDL
MODEL 6
REMARK VINA RESULT:      -7.6      2.202      7.084
REMARK  Name = 
REMARK  6 active torsions:
REMARK  status: ('A' for Active; 'I' for Inactive)
REMARK    1  A    between atoms: N_1  and  C_2
REMARK    2  A    between atoms: C_7  and  C_8
REMARK    3  A    between atoms: N_14  and  C_15
REMARK    4  A    between atoms: N_23  and  C_24
REMARK    5  A    between atoms: C_27  and  C_28
REMARK    6  A    between atoms: C_28  and  N_29
REMARK                            x       y       z     vdW  Elec       q    Type
REMARK                         _______ _______ _______ _____ _____    ______ ____
ROOT
ATOM      1  C   UNL     1       1.433  13.515  20.495  0.00  0.00    +0.000 A 
ATOM      2  N   UNL     1       1.011  13.857  21.708  0.00  0.00    +0.000 NA
ATOM      3  C   UNL     1      -0.242  13.330  21.801  0.00  0.00    +0.000 A 
ATOM      4  C   UNL     1      -1.145  13.355  22.854  0.00  0.00    +0.000 A 
ATOM      5  C   UNL     1      -2.444  12.984  22.540  0.00  0.00    +0.000 A 
ATOM      6  C   UNL     1      -2.794  12.625  21.228  0.00  0.00    +0.000 A 
ATOM      7  N   UNL     1      -4.189  12.784  20.985  0.00  0.00    +0.000 N 
ATOM      8  N   UNL     1      -1.874  12.308  20.272  0.00  0.00    +0.000 NA
ATOM      9  C   UNL     1      -0.610  12.687  20.627  0.00  0.00    +0.000 A 
ATOM     10  N   UNL     1       0.655  12.415  20.083  0.00  0.00    +0.000 N 
ATOM     11  H   UNL     1      -4.453  13.729  21.240  0.00  0.00    +0.000 HD
ENDROOT
BRANCH   1  17
ATOM     12  C   UNL     1       3.861  14.331  20.612  0.00  0.00    +0.000 A 
ATOM     13  N   UNL     1       4.966  14.823  20.003  0.00  0.00    +0.000 NA
ATOM     14  C   UNL     1       4.919  15.027  18.667  0.00  0.00    +0.000 A 
ATOM     15  C   UNL     1       3.812  14.763  17.891  0.00  0.00    +0.000 A 
ATOM     16  C   UNL     1       2.686  14.261  18.526  0.00  0.00    +0.000 A 
ATOM     17  C   UNL     1       2.679  14.045  19.915  0.00  0.00    +0.000 A 
BRANCH  12  18
ATOM     18  N   UNL     1       4.032  14.112  21.975  0.00  0.00    +0.000 N 
ATOM     19  H   UNL     1       3.408  13.345  22.223  0.00  0.00    +0.000 HD
ATOM     20  H   UNL     1       4.990  13.889  22.224  0.00  0.00    +0.000 HD
ENDBRANCH  12  18
ENDBRANCH   1  17
BRANCH   7  21
ATOM     21  C   UNL     1      -5.115  12.209  20.102  0.00  0.00    +0.000 A 
ATOM     22  C   UNL     1      -4.797  11.874  18.790  0.00  0.00    +0.000 A 
ATOM     23  C   UNL     1      -5.672  11.098  18.025  0.00  0.00    +0.000 A 
ATOM     24  C   UNL     1      -6.881  10.650  18.562  0.00  0.00    +0.000 A 
ATOM     25  C   UNL     1      -7.232  11.001  19.860  0.00  0.00    +0.000 A 
ATOM     26  C   UNL     1      -6.351  11.768  20.625  0.00  0.00    +0.000 A 
ENDBRANCH   7  21
BRANCH  10  27
ATOM     27  C   UNL     1       1.161  11.124  19.699  0.00  0.00    +0.000 A 
ATOM     28  C   UNL     1       1.608  10.888  18.395  0.00  0.00    +0.000 A 
ATOM     29  C   UNL     1       1.982   9.590  17.990  0.00  0.00    +0.000 A 
ATOM     30  C   UNL     1       1.954   8.482  18.862  0.00  0.00    +0.000 A 
ATOM     31  C   UNL     1       1.440   8.743  20.142  0.00  0.00    +0.000 A 
ATOM     32  C   UNL     1       1.045  10.021  20.550  0.00  0.00    +0.000 A 
BRANCH  30  33
ATOM     33  C   UNL     1       2.561   7.069  18.508  0.00  0.00    +0.000 C 
ATOM     34  C   UNL     1       3.079   6.100  19.610  0.00  0.00    +0.000 C 
ATOM     35  C   UNL     1       1.862   5.201  19.330  0.00  0.00    +0.000 C 
ATOM     36  C   UNL     1       1.713   5.893  17.963  0.00  0.00    +0.000 C 
BRANCH  33  37
ATOM     37  N   UNL     1       3.672   7.278  17.570  0.00  0.00    +0.000 NA
ATOM     38  H   UNL     1       4.480   7.711  18.019  0.00  0.00    +0.000 HD
ATOM     39  H   UNL     1       3.429   7.912  16.809  0.00  0.00    +0.000 HD
ENDBRANCH  33  37
ENDBRANCH  30  33
ENDBRANCH  10  27
TORSDOF 6
ENDMDL
MODEL 7
REMARK VINA RESULT:      -7.6      0.928      1.354
REMARK  Name = 
REMARK  6 active torsions:
REMARK  status: ('A' for Active; 'I' for Inactive)
REMARK    1  A    between atoms: N_1  and  C_2
REMARK    2  A    between atoms: C_7  and  C_8
REMARK    3  A    between atoms: N_14  and  C_15
REMARK    4  A    between atoms: N_23  and  C_24
REMARK    5  A    between atoms: C_27  and  C_28
REMARK    6  A    between atoms: C_28  and  N_29
REMARK                            x       y       z     vdW  Elec       q    Type
REMARK                         _______ _______ _______ _____ _____    ______ ____
ROOT
ATOM      1  C   UNL     1      -0.401  12.428  18.915  0.00  0.00    +0.000 A 
ATOM      2  N   UNL     1       0.116  13.382  18.150  0.00  0.00    +0.000 NA
ATOM      3  C   UNL     1       1.324  13.665  18.715  0.00  0.00    +0.000 A 
ATOM      4  C   UNL     1       2.305  14.563  18.322  0.00  0.00    +0.000 A 
ATOM      5  C   UNL     1       3.288  14.828  19.264  0.00  0.00    +0.000 A 
ATOM      6  C   UNL     1       3.255  14.222  20.531  0.00  0.00    +0.000 A 
ATOM      7  N   UNL     1       3.986  14.967  21.499  0.00  0.00    +0.000 N 
ATOM      8  N   UNL     1       2.487  13.130  20.813  0.00  0.00    +0.000 NA
ATOM      9  C   UNL     1       1.538  12.905  19.857  0.00  0.00    +0.000 A 
ATOM     10  N   UNL     1       0.669  11.831  19.610  0.00  0.00    +0.000 N 
ATOM     11  H   UNL     1       3.648  15.924  21.490  0.00  0.00    +0.000 HD
ENDROOT
BRANCH   1  17
ATOM     12  C   UNL     1      -2.246  11.008  17.841  0.00  0.00    +0.000 A 
ATOM     13  N   UNL     1      -3.545  10.634  17.760  0.00  0.00    +0.000 NA
ATOM     14  C   UNL     1      -4.424  11.198  18.619  0.00  0.00    +0.000 A 
ATOM     15  C   UNL     1      -4.074  12.131  19.571  0.00  0.00    +0.000 A 
ATOM     16  C   UNL     1      -2.740  12.506  19.642  0.00  0.00    +0.000 A 
ATOM     17  C   UNL     1      -1.790  11.960  18.762  0.00  0.00    +0.000 A 
BRANCH  12  18
ATOM     18  N   UNL     1      -1.420  10.331  16.948  0.00  0.00    +0.000 N 
ATOM     19  H   UNL     1      -0.481  10.369  17.342  0.00  0.00    +0.000 HD
ATOM     20  H   UNL     1      -1.706   9.370  16.793  0.00  0.00    +0.000 HD
ENDBRANCH  12  18
ENDBRANCH   1  17
BRANCH   7  21
ATOM     21  C   UNL     1       4.638  14.662  22.704  0.00  0.00    +0.000 A 
ATOM     22  C   UNL     1       5.465  13.554  22.851  0.00  0.00    +0.000 A 
ATOM     23  C   UNL     1       6.271  13.417  23.986  0.00  0.00    +0.000 A 
ATOM     24  C   UNL     1       6.255  14.388  24.991  0.00  0.00    +0.000 A 
ATOM     25  C   UNL     1       5.412  15.487  24.876  0.00  0.00    +0.000 A 
ATOM     26  C   UNL     1       4.616  15.624  23.738  0.00  0.00    +0.000 A 
ENDBRANCH   7  21
BRANCH  10  27
ATOM     27  C   UNL     1       1.021  10.437  19.575  0.00  0.00    +0.000 A 
ATOM     28  C   UNL     1       0.928   9.644  20.723  0.00  0.00    +0.000 A 
ATOM     29  C   UNL     1       1.394   8.313  20.715  0.00  0.00    +0.000 A 
ATOM     30  C   UNL     1       1.945   7.706  19.568  0.00  0.00    +0.000 A 
ATOM     31  C   UNL     1       2.082   8.549  18.455  0.00  0.00    +0.000 A 
ATOM     32  C   UNL     1       1.645   9.877  18.455  0.00  0.00    +0.000 A 
BRANCH  30  33
ATOM     33  C   UNL     1       2.280   6.168  19.463  0.00  0.00    +0.000 C 
ATOM     34  C   UNL     1       1.965   5.347  18.178  0.00  0.00    +0.000 C 
ATOM     35  C   UNL     1       3.477   5.284  17.900  0.00  0.00    +0.000 C 
ATOM     36  C   UNL     1       3.726   5.616  19.382  0.00  0.00    +0.000 C 
BRANCH  33  37
ATOM     37  N   UNL     1       1.613   5.484  20.577  0.00  0.00    +0.000 NA
ATOM     38  H   UNL     1       0.793   4.958  20.273  0.00  0.00    +0.000 HD
ATOM     39  H   UNL     1       1.257   6.133  21.279  0.00  0.00    +0.000 HD
ENDBRANCH  33  37
ENDBRANCH  30  33
ENDBRANCH  10  27
TORSDOF 6
ENDMDL
MODEL 8
REMARK VINA RESULT:      -7.6      0.764      1.332
REMARK  Name = 
REMARK  6 active torsions:
REMARK  status: ('A' for Active; 'I' for Inactive)
REMARK    1  A    between atoms: N_1  and  C_2
REMARK    2  A    between atoms: C_7  and  C_8
REMARK    3  A    between atoms: N_14  and  C_15
REMARK    4  A    between atoms: N_23  and  C_24
REMARK    5  A    between atoms: C_27  and  C_28
REMARK    6  A    between atoms: C_28  and  N_29
REMARK                            x       y       z     vdW  Elec       q    Type
REMARK                         _______ _______ _______ _____ _____    ______ ____
ROOT
ATOM      1  C   UNL     1      -0.210  12.179  18.734  0.00  0.00    +0.000 A 
ATOM      2  N   UNL     1       0.195  13.260  18.077  0.00  0.00    +0.000 NA
ATOM      3  C   UNL     1       1.369  13.610  18.674  0.00  0.00    +0.000 A 
ATOM      4  C   UNL     1       2.244  14.647  18.382  0.00  0.00    +0.000 A 
ATOM      5  C   UNL     1       3.200  14.915  19.351  0.00  0.00    +0.000 A 
ATOM      6  C   UNL     1       3.243  14.177  20.545  0.00  0.00    +0.000 A 
ATOM      7  N   UNL     1       3.897  14.891  21.591  0.00  0.00    +0.000 N 
ATOM      8  N   UNL     1       2.601  12.984  20.707  0.00  0.00    +0.000 NA
ATOM      9  C   UNL     1       1.674  12.761  19.729  0.00  0.00    +0.000 A 
ATOM     10  N   UNL     1       0.924  11.632  19.366  0.00  0.00    +0.000 N 
ATOM     11  H   UNL     1       3.457  15.800  21.682  0.00  0.00    +0.000 HD
ENDROOT
BRANCH   1  17
ATOM     12  C   UNL     1      -2.754  12.068  19.036  0.00  0.00    +0.000 A 
ATOM     13  N   UNL     1      -3.939  11.456  18.803  0.00  0.00    +0.000 NA
ATOM     14  C   UNL     1      -3.941  10.344  18.034  0.00  0.00    +0.000 A 
ATOM     15  C   UNL     1      -2.807   9.797  17.476  0.00  0.00    +0.000 A 
ATOM     16  C   UNL     1      -1.599  10.432  17.723  0.00  0.00    +0.000 A 
ATOM     17  C   UNL     1      -1.541  11.583  18.527  0.00  0.00    +0.000 A 
BRANCH  12  18
ATOM     18  N   UNL     1      -2.870  13.229  19.793  0.00  0.00    +0.000 N 
ATOM     19  H   UNL     1      -2.861  14.005  19.133  0.00  0.00    +0.000 HD
ATOM     20  H   UNL     1      -3.711  13.251  20.361  0.00  0.00    +0.000 HD
ENDBRANCH  12  18
ENDBRANCH   1  17
BRANCH   7  21
ATOM     21  C   UNL     1       4.588  14.532  22.758  0.00  0.00    +0.000 A 
ATOM     22  C   UNL     1       5.411  13.414  22.831  0.00  0.00    +0.000 A 
ATOM     23  C   UNL     1       6.255  13.225  23.930  0.00  0.00    +0.000 A 
ATOM     24  C   UNL     1       6.281  14.153  24.974  0.00  0.00    +0.000 A 
ATOM     25  C   UNL     1       5.441  15.260  24.935  0.00  0.00    +0.000 A 
ATOM     26  C   UNL     1       4.608  15.450  23.832  0.00  0.00    +0.000 A 
ENDBRANCH   7  21
BRANCH  10  27
ATOM     27  C   UNL     1       1.425  10.296  19.184  0.00  0.00    +0.000 A 
ATOM     28  C   UNL     1       1.929   9.881  17.947  0.00  0.00    +0.000 A 
ATOM     29  C   UNL     1       2.300   8.537  17.738  0.00  0.00    +0.000 A 
ATOM     30  C   UNL     1       2.212   7.557  18.748  0.00  0.00    +0.000 A 
ATOM     31  C   UNL     1       1.643   7.993  19.954  0.00  0.00    +0.000 A 
ATOM     32  C   UNL     1       1.251   9.318  20.168  0.00  0.00    +0.000 A 
BRANCH  30  33
ATOM     33  C   UNL     1       2.811   6.103  18.616  0.00  0.00    +0.000 C 
ATOM     34  C   UNL     1       4.189   5.843  17.941  0.00  0.00    +0.000 C 
ATOM     35  C   UNL     1       4.759   5.517  19.332  0.00  0.00    +0.000 C 
ATOM     36  C   UNL     1       3.321   5.280  19.826  0.00  0.00    +0.000 C 
BRANCH  33  37
ATOM     37  N   UNL     1       1.828   5.273  17.906  0.00  0.00    +0.000 NA
ATOM     38  H   UNL     1       1.758   5.518  16.918  0.00  0.00    +0.000 HD
ATOM     39  H   UNL     1       0.882   5.390  18.269  0.00  0.00    +0.000 HD
ENDBRANCH  33  37
ENDBRANCH  30  33
ENDBRANCH  10  27
TORSDOF 6
ENDMDL
MODEL 9
REMARK VINA RESULT:      -7.5      2.204      7.101
REMARK  Name = 
REMARK  6 active torsions:
REMARK  status: ('A' for Active; 'I' for Inactive)
REMARK    1  A    between atoms: N_1  and  C_2
REMARK    2  A    between atoms: C_7  and  C_8
REMARK    3  A    between atoms: N_14  and  C_15
REMARK    4  A    between atoms: N_23  and  C_24
REMARK    5  A    between atoms: C_27  and  C_28
REMARK    6  A    between atoms: C_28  and  N_29
REMARK                            x       y       z     vdW  Elec       q    Type
REMARK                         _______ _______ _______ _____ _____    ______ ____
ROOT
ATOM      1  C   UNL     1       1.273  13.456  20.700  0.00  0.00    +0.000 A 
ATOM      2  N   UNL     1       0.819  13.935  21.853  0.00  0.00    +0.000 NA
ATOM      3  C   UNL     1      -0.448  13.444  21.959  0.00  0.00    +0.000 A 
ATOM      4  C   UNL     1      -1.384  13.599  22.971  0.00  0.00    +0.000 A 
ATOM      5  C   UNL     1      -2.679  13.220  22.654  0.00  0.00    +0.000 A 
ATOM      6  C   UNL     1      -2.994  12.730  21.376  0.00  0.00    +0.000 A 
ATOM      7  N   UNL     1      -4.377  12.887  21.069  0.00  0.00    +0.000 N 
ATOM      8  N   UNL     1      -2.051  12.294  20.492  0.00  0.00    +0.000 NA
ATOM      9  C   UNL     1      -0.791  12.686  20.848  0.00  0.00    +0.000 A 
ATOM     10  N   UNL     1       0.484  12.334  20.380  0.00  0.00    +0.000 N 
ATOM     11  H   UNL     1      -4.628  13.860  21.213  0.00  0.00    +0.000 HD
ENDROOT
BRANCH   1  17
ATOM     12  C   UNL     1       3.663  14.378  20.811  0.00  0.00    +0.000 A 
ATOM     13  N   UNL     1       4.801  14.770  20.191  0.00  0.00    +0.000 NA
ATOM     14  C   UNL     1       4.858  14.675  18.844  0.00  0.00    +0.000 A 
ATOM     15  C   UNL     1       3.824  14.202  18.066  0.00  0.00    +0.000 A 
ATOM     16  C   UNL     1       2.663  13.805  18.712  0.00  0.00    +0.000 A 
ATOM     17  C   UNL     1       2.549  13.898  20.110  0.00  0.00    +0.000 A 
BRANCH  12  18
ATOM     18  N   UNL     1       3.728  14.469  22.198  0.00  0.00    +0.000 N 
ATOM     19  H   UNL     1       4.357  15.244  22.405  0.00  0.00    +0.000 HD
ATOM     20  H   UNL     1       2.822  14.618  22.629  0.00  0.00    +0.000 HD
ENDBRANCH  12  18
ENDBRANCH   1  17
BRANCH   7  21
ATOM     21  C   UNL     1      -5.287  12.238  20.221  0.00  0.00    +0.000 A 
ATOM     22  C   UNL     1      -4.983  11.907  18.905  0.00  0.00    +0.000 A 
ATOM     23  C   UNL     1      -5.825  11.061  18.175  0.00  0.00    +0.000 A 
ATOM     24  C   UNL     1      -6.985  10.541  18.753  0.00  0.00    +0.000 A 
ATOM     25  C   UNL     1      -7.322  10.887  20.056  0.00  0.00    +0.000 A 
ATOM     26  C   UNL     1      -6.475  11.723  20.785  0.00  0.00    +0.000 A 
ENDBRANCH   7  21
BRANCH  10  27
ATOM     27  C   UNL     1       0.973  11.000  20.154  0.00  0.00    +0.000 A 
ATOM     28  C   UNL     1       1.260  10.551  18.861  0.00  0.00    +0.000 A 
ATOM     29  C   UNL     1       1.617   9.206  18.632  0.00  0.00    +0.000 A 
ATOM     30  C   UNL     1       1.728   8.260  19.673  0.00  0.00    +0.000 A 
ATOM     31  C   UNL     1       1.372   8.729  20.946  0.00  0.00    +0.000 A 
ATOM     32  C   UNL     1       0.995  10.054  21.184  0.00  0.00    +0.000 A 
BRANCH  30  33
ATOM     33  C   UNL     1       2.325   6.811  19.482  0.00  0.00    +0.000 C 
ATOM     34  C   UNL     1       1.983   5.942  18.237  0.00  0.00    +0.000 C 
ATOM     35  C   UNL     1       3.422   6.163  17.742  0.00  0.00    +0.000 C 
ATOM     36  C   UNL     1       3.820   6.540  19.180  0.00  0.00    +0.000 C 
BRANCH  33  37
ATOM     37  N   UNL     1       1.967   6.017  20.665  0.00  0.00    +0.000 NA
ATOM     38  H   UNL     1       1.167   5.407  20.494  0.00  0.00    +0.000 HD
ATOM     39  H   UNL     1       1.685   6.597  21.455  0.00  0.00    +0.000 HD
ENDBRANCH  33  37
ENDBRANCH  30  33
ENDBRANCH  10  27
TORSDOF 6
ENDMDL
