MODEL 1
REMARK VINA RESULT:      -7.5      0.000      0.000
REMARK  Name = 
REMARK  5 active torsions:
REMARK  status: ('A' for Active; 'I' for Inactive)
REMARK    1  A    between atoms: C_1  and  C_2
REMARK    2  A    between atoms: C_2  and  C_3
REMARK    3  A    between atoms: C_6  and  N_7
REMARK    4  A    between atoms: C_8  and  C_10
REMARK    5  A    between atoms: N_18  and  C_19
REMARK                            x       y       z     vdW  Elec       q    Type
REMARK                         _______ _______ _______ _____ _____    ______ ____
ROOT
ATOM      1  N   UNL     1       2.856   6.918  18.804  0.00  0.00    +0.000 N 
ATOM      2  C   UNL     1       2.240   8.124  18.498  0.00  0.00    +0.000 C 
ATOM      3  O   UNL     1       2.284   8.661  17.401  0.00  0.00    +0.000 OA
ATOM      4  H   UNL     1       2.617   6.477  19.681  0.00  0.00    +0.000 HD
ENDROOT
BRANCH   2   5
ATOM      5  C   UNL     1       1.449   8.705  19.576  0.00  0.00    +0.000 A 
ATOM      6  C   UNL     1       1.366   8.344  20.912  0.00  0.00    +0.000 A 
ATOM      7  C   UNL     1       0.488   9.279  21.527  0.00  0.00    +0.000 A 
ATOM      8  S   UNL     1      -0.171   9.622  23.092  0.00  0.00    +0.000 S 
ATOM      9  C   UNL     1      -1.035  10.923  22.423  0.00  0.00    +0.000 A 
ATOM     10 CL   UNL     1      -2.061  11.848  23.451  0.00  0.00    +0.000 Cl
ATOM     11  C   UNL     1      -0.841  11.142  21.081  0.00  0.00    +0.000 A 
ATOM     12  C   UNL     1       0.062  10.163  20.579  0.00  0.00    +0.000 A 
ATOM     13  N   UNL     1       0.658   9.827  19.384  0.00  0.00    +0.000 N 
ATOM     14  C   UNL     1       0.475  10.555  18.149  0.00  0.00    +0.000 C 
ENDBRANCH   2   5
BRANCH   1  18
ATOM     15  C   UNL     1       5.165   4.623  16.107  0.00  0.00    +0.000 A 
ATOM     16  C   UNL     1       5.420   5.986  16.250  0.00  0.00    +0.000 A 
ATOM     17  C   UNL     1       4.662   6.746  17.140  0.00  0.00    +0.000 A 
ATOM     18  C   UNL     1       3.634   6.170  17.892  0.00  0.00    +0.000 A 
ATOM     19  C   UNL     1       3.374   4.805  17.745  0.00  0.00    +0.000 A 
ATOM     20  C   UNL     1       4.125   4.044  16.845  0.00  0.00    +0.000 A 
BRANCH  15  22
ATOM     21  C   UNL     1       5.898   4.088  13.812  0.00  0.00    +0.000 C 
ATOM     22  C   UNL     1       6.076   3.752  15.287  0.00  0.00    +0.000 C 
ENDBRANCH  15  22
ENDBRANCH   1  18
TORSDOF 3
ENDMDL
MODEL 2
REMARK VINA RESULT:      -7.3      0.976      1.449
REMARK  Name = 
REMARK  5 active torsions:
REMARK  status: ('A' for Active; 'I' for Inactive)
REMARK    1  A    between atoms: C_1  and  C_2
REMARK    2  A    between atoms: C_2  and  C_3
REMARK    3  A    between atoms: C_6  and  N_7
REMARK    4  A    between atoms: C_8  and  C_10
REMARK    5  A    between atoms: N_18  and  C_19
REMARK                            x       y       z     vdW  Elec       q    Type
REMARK                         _______ _______ _______ _____ _____    ______ ____
ROOT
ATOM      1  N   UNL     1       2.579   7.477  18.971  0.00  0.00    +0.000 N 
ATOM      2  C   UNL     1       1.919   8.614  18.525  0.00  0.00    +0.000 C 
ATOM      3  O   UNL     1       1.867   8.965  17.356  0.00  0.00    +0.000 OA
ATOM      4  H   UNL     1       2.418   7.184  19.924  0.00  0.00    +0.000 HD
ENDROOT
BRANCH   2   5
ATOM      5  C   UNL     1       1.206   9.360  19.555  0.00  0.00    +0.000 A 
ATOM      6  C   UNL     1       0.570   8.906  20.700  0.00  0.00    +0.000 A 
ATOM      7  C   UNL     1       0.085  10.061  21.374  0.00  0.00    +0.000 A 
ATOM      8  S   UNL     1      -0.774  10.469  22.822  0.00  0.00    +0.000 S 
ATOM      9  C   UNL     1      -0.693  12.109  22.388  0.00  0.00    +0.000 A 
ATOM     10 CL   UNL     1      -1.429  13.273  23.421  0.00  0.00    +0.000 Cl
ATOM     11  C   UNL     1      -0.029  12.385  21.218  0.00  0.00    +0.000 A 
ATOM     12  C   UNL     1       0.423  11.164  20.643  0.00  0.00    +0.000 A 
ATOM     13  N   UNL     1       1.122  10.743  19.534  0.00  0.00    +0.000 N 
ATOM     14  C   UNL     1       1.675  11.628  18.535  0.00  0.00    +0.000 C 
ENDBRANCH   2   5
BRANCH   1  18
ATOM     15  C   UNL     1       4.748   4.891  16.426  0.00  0.00    +0.000 A 
ATOM     16  C   UNL     1       3.714   4.382  17.210  0.00  0.00    +0.000 A 
ATOM     17  C   UNL     1       2.995   5.232  18.049  0.00  0.00    +0.000 A 
ATOM     18  C   UNL     1       3.296   6.594  18.132  0.00  0.00    +0.000 A 
ATOM     19  C   UNL     1       4.337   7.104  17.350  0.00  0.00    +0.000 A 
ATOM     20  C   UNL     1       5.066   6.252  16.517  0.00  0.00    +0.000 A 
BRANCH  15  22
ATOM     21  C   UNL     1       6.812   4.586  15.107  0.00  0.00    +0.000 C 
ATOM     22  C   UNL     1       5.421   4.033  15.390  0.00  0.00    +0.000 C 
ENDBRANCH  15  22
ENDBRANCH   1  18
TORSDOF 3
ENDMDL
MODEL 3
REMARK VINA RESULT:      -7.3      0.362      1.084
REMARK  Name = 
REMARK  5 active torsions:
REMARK  status: ('A' for Active; 'I' for Inactive)
REMARK    1  A    between atoms: C_1  and  C_2
REMARK    2  A    between atoms: C_2  and  C_3
REMARK    3  A    between atoms: C_6  and  N_7
REMARK    4  A    between atoms: C_8  and  C_10
REMARK    5  A    between atoms: N_18  and  C_19
REMARK                            x       y       z     vdW  Elec       q    Type
REMARK                         _______ _______ _______ _____ _____    ______ ____
ROOT
ATOM      1  N   UNL     1       2.944   6.750  19.032  0.00  0.00    +0.000 N 
ATOM      2  C   UNL     1       2.301   7.916  18.641  0.00  0.00    +0.000 C 
ATOM      3  O   UNL     1       2.321   8.366  17.505  0.00  0.00    +0.000 OA
ATOM      4  H   UNL     1       2.725   6.375  19.943  0.00  0.00    +0.000 HD
ENDROOT
BRANCH   2   5
ATOM      5  C   UNL     1       1.512   8.566  19.680  0.00  0.00    +0.000 A 
ATOM      6  C   UNL     1       1.251   8.162  20.981  0.00  0.00    +0.000 A 
ATOM      7  C   UNL     1       0.474   9.195  21.574  0.00  0.00    +0.000 A 
ATOM      8  S   UNL     1      -0.267   9.567  23.095  0.00  0.00    +0.000 S 
ATOM      9  C   UNL     1      -0.855  11.017  22.433  0.00  0.00    +0.000 A 
ATOM     10 CL   UNL     1      -1.818  12.045  23.424  0.00  0.00    +0.000 Cl
ATOM     11  C   UNL     1      -0.507  11.263  21.128  0.00  0.00    +0.000 A 
ATOM     12  C   UNL     1       0.279  10.177  20.647  0.00  0.00    +0.000 A 
ATOM     13  N   UNL     1       0.924   9.806  19.489  0.00  0.00    +0.000 N 
ATOM     14  C   UNL     1       0.970  10.609  18.288  0.00  0.00    +0.000 C 
ENDBRANCH   2   5
BRANCH   1  18
ATOM     15  C   UNL     1       5.320   4.405  16.438  0.00  0.00    +0.000 A 
ATOM     16  C   UNL     1       4.076   3.932  16.853  0.00  0.00    +0.000 A 
ATOM     17  C   UNL     1       3.288   4.704  17.706  0.00  0.00    +0.000 A 
ATOM     18  C   UNL     1       3.726   5.947  18.170  0.00  0.00    +0.000 A 
ATOM     19  C   UNL     1       4.975   6.419  17.759  0.00  0.00    +0.000 A 
ATOM     20  C   UNL     1       5.772   5.642  16.913  0.00  0.00    +0.000 A 
BRANCH  15  22
ATOM     21  C   UNL     1       5.705   4.185  14.010  0.00  0.00    +0.000 C 
ATOM     22  C   UNL     1       6.109   3.673  15.387  0.00  0.00    +0.000 C 
ENDBRANCH  15  22
ENDBRANCH   1  18
TORSDOF 3
ENDMDL
MODEL 4
REMARK VINA RESULT:      -7.2      1.412      1.700
REMARK  Name = 
REMARK  5 active torsions:
REMARK  status: ('A' for Active; 'I' for Inactive)
REMARK    1  A    between atoms: C_1  and  C_2
REMARK    2  A    between atoms: C_2  and  C_3
REMARK    3  A    between atoms: C_6  and  N_7
REMARK    4  A    between atoms: C_8  and  C_10
REMARK    5  A    between atoms: N_18  and  C_19
REMARK                            x       y       z     vdW  Elec       q    Type
REMARK                         _______ _______ _______ _____ _____    ______ ____
ROOT
ATOM      1  N   UNL     1       2.104   8.055  19.343  0.00  0.00    +0.000 N 
ATOM      2  C   UNL     1       1.309   9.075  18.839  0.00  0.00    +0.000 C 
ATOM      3  O   UNL     1       1.088   9.253  17.651  0.00  0.00    +0.000 OA
ATOM      4  H   UNL     1       2.084   7.891  20.339  0.00  0.00    +0.000 HD
ENDROOT
BRANCH   2   5
ATOM      5  C   UNL     1       0.670   9.915  19.845  0.00  0.00    +0.000 A 
ATOM      6  C   UNL     1      -0.164   9.565  20.895  0.00  0.00    +0.000 A 
ATOM      7  C   UNL     1      -0.456  10.769  21.595  0.00  0.00    +0.000 A 
ATOM      8  S   UNL     1      -1.353  11.294  22.981  0.00  0.00    +0.000 S 
ATOM      9  C   UNL     1      -0.874  12.893  22.663  0.00  0.00    +0.000 A 
ATOM     10 CL   UNL     1      -1.445  14.146  23.697  0.00  0.00    +0.000 Cl
ATOM     11  C   UNL     1      -0.048  13.066  21.580  0.00  0.00    +0.000 A 
ATOM     12  C   UNL     1       0.186  11.800  20.971  0.00  0.00    +0.000 A 
ATOM     13  N   UNL     1       0.890  11.283  19.907  0.00  0.00    +0.000 N 
ATOM     14  C   UNL     1       1.722  12.066  19.022  0.00  0.00    +0.000 C 
ENDBRANCH   2   5
BRANCH   1  18
ATOM     15  C   UNL     1       4.107   5.168  16.992  0.00  0.00    +0.000 A 
ATOM     16  C   UNL     1       4.439   6.516  16.863  0.00  0.00    +0.000 A 
ATOM     17  C   UNL     1       3.782   7.471  17.638  0.00  0.00    +0.000 A 
ATOM     18  C   UNL     1       2.780   7.107  18.542  0.00  0.00    +0.000 A 
ATOM     19  C   UNL     1       2.444   5.756  18.668  0.00  0.00    +0.000 A 
ATOM     20  C   UNL     1       3.093   4.798  17.884  0.00  0.00    +0.000 A 
BRANCH  15  22
ATOM     21  C   UNL     1       5.628   4.724  15.100  0.00  0.00    +0.000 C 
ATOM     22  C   UNL     1       4.916   4.108  16.297  0.00  0.00    +0.000 C 
ENDBRANCH  15  22
ENDBRANCH   1  18
TORSDOF 3
ENDMDL
MODEL 5
REMARK VINA RESULT:      -7.1      2.874      4.726
REMARK  Name = 
REMARK  5 active torsions:
REMARK  status: ('A' for Active; 'I' for Inactive)
REMARK    1  A    between atoms: C_1  and  C_2
REMARK    2  A    between atoms: C_2  and  C_3
REMARK    3  A    between atoms: C_6  and  N_7
REMARK    4  A    between atoms: C_8  and  C_10
REMARK    5  A    between atoms: N_18  and  C_19
REMARK                            x       y       z     vdW  Elec       q    Type
REMARK                         _______ _______ _______ _____ _____    ______ ____
ROOT
ATOM      1  N   UNL     1      -0.260   9.829  20.521  0.00  0.00    +0.000 N 
ATOM      2  C   UNL     1      -0.031  10.935  21.328  0.00  0.00    +0.000 C 
ATOM      3  O   UNL     1       1.064  11.451  21.495  0.00  0.00    +0.000 OA
ATOM      4  H   UNL     1      -1.219   9.588  20.315  0.00  0.00    +0.000 HD
ENDROOT
BRANCH   2   5
ATOM      5  C   UNL     1      -1.223  11.514  21.936  0.00  0.00    +0.000 A 
ATOM      6  C   UNL     1      -1.725  11.367  23.220  0.00  0.00    +0.000 A 
ATOM      7  C   UNL     1      -2.881  12.193  23.296  0.00  0.00    +0.000 A 
ATOM      8  S   UNL     1      -4.092  12.648  24.448  0.00  0.00    +0.000 S 
ATOM      9  C   UNL     1      -4.827  13.620  23.265  0.00  0.00    +0.000 A 
ATOM     10 CL   UNL     1      -6.265  14.474  23.675  0.00  0.00    +0.000 Cl
ATOM     11  C   UNL     1      -4.201  13.651  22.043  0.00  0.00    +0.000 A 
ATOM     12  C   UNL     1      -3.056  12.805  22.089  0.00  0.00    +0.000 A 
ATOM     13  N   UNL     1      -2.036  12.406  21.255  0.00  0.00    +0.000 N 
ATOM     14  C   UNL     1      -1.865  12.869  19.897  0.00  0.00    +0.000 C 
ENDBRANCH   2   5
BRANCH   1  18
ATOM     15  C   UNL     1       2.738   7.807  18.332  0.00  0.00    +0.000 A 
ATOM     16  C   UNL     1       2.407   7.373  19.615  0.00  0.00    +0.000 A 
ATOM     17  C   UNL     1       1.418   8.036  20.339  0.00  0.00    +0.000 A 
ATOM     18  C   UNL     1       0.750   9.144  19.808  0.00  0.00    +0.000 A 
ATOM     19  C   UNL     1       1.086   9.582  18.524  0.00  0.00    +0.000 A 
ATOM     20  C   UNL     1       2.085   8.926  17.801  0.00  0.00    +0.000 A 
BRANCH  15  22
ATOM     21  C   UNL     1       4.257   5.862  18.286  0.00  0.00    +0.000 C 
ATOM     22  C   UNL     1       3.675   7.007  17.468  0.00  0.00    +0.000 C 
ENDBRANCH  15  22
ENDBRANCH   1  18
TORSDOF 3
ENDMDL
MODEL 6
REMARK VINA RESULT:      -7.1      1.278      1.584
REMARK  Name = 
REMARK  5 active torsions:
REMARK  status: ('A' for Active; 'I' for Inactive)
REMARK    1  A    between atoms: C_1  and  C_2
REMARK    2  A    between atoms: C_2  and  C_3
REMARK    3  A    between atoms: C_6  and  N_7
REMARK    4  A    between atoms: C_8  and  C_10
REMARK    5  A    between atoms: N_18  and  C_19
REMARK                            x       y       z     vdW  Elec       q    Type
REMARK                         _______ _______ _______ _____ _____    ______ ____
ROOT
ATOM      1  N   UNL     1       3.733   7.102  18.231  0.00  0.00    +0.000 N 
ATOM      2  C   UNL     1       2.441   6.750  18.598  0.00  0.00    +0.000 C 
ATOM      3  O   UNL     1       1.869   5.739  18.220  0.00  0.00    +0.000 OA
ATOM      4  H   UNL     1       4.173   7.861  18.731  0.00  0.00    +0.000 HD
ENDROOT
BRANCH   2   5
ATOM      5  C   UNL     1       1.802   7.650  19.550  0.00  0.00    +0.000 A 
ATOM      6  C   UNL     1       1.586   7.497  20.911  0.00  0.00    +0.000 A 
ATOM      7  C   UNL     1       0.970   8.698  21.358  0.00  0.00    +0.000 A 
ATOM      8  S   UNL     1       0.379   9.399  22.829  0.00  0.00    +0.000 S 
ATOM      9  C   UNL     1      -0.087  10.783  21.961  0.00  0.00    +0.000 A 
ATOM     10 CL   UNL     1      -0.860  12.067  22.809  0.00  0.00    +0.000 Cl
ATOM     11  C   UNL     1       0.198  10.771  20.618  0.00  0.00    +0.000 A 
ATOM     12  C   UNL     1       0.823   9.534  20.289  0.00  0.00    +0.000 A 
ATOM     13  N   UNL     1       1.344   8.905  19.181  0.00  0.00    +0.000 N 
ATOM     14  C   UNL     1       1.398   9.492  17.861  0.00  0.00    +0.000 C 
ENDBRANCH   2   5
BRANCH   1  18
ATOM     15  C   UNL     1       6.126   4.878  15.549  0.00  0.00    +0.000 A 
ATOM     16  C   UNL     1       5.904   4.397  16.838  0.00  0.00    +0.000 A 
ATOM     17  C   UNL     1       5.113   5.127  17.725  0.00  0.00    +0.000 A 
ATOM     18  C   UNL     1       4.542   6.347  17.352  0.00  0.00    +0.000 A 
ATOM     19  C   UNL     1       4.770   6.832  16.062  0.00  0.00    +0.000 A 
ATOM     20  C   UNL     1       5.571   6.108  15.174  0.00  0.00    +0.000 A 
BRANCH  15  22
ATOM     21  C   UNL     1       5.933   3.876  13.301  0.00  0.00    +0.000 C 
ATOM     22  C   UNL     1       6.829   4.032  14.523  0.00  0.00    +0.000 C 
ENDBRANCH  15  22
ENDBRANCH   1  18
TORSDOF 3
ENDMDL
MODEL 7
REMARK VINA RESULT:      -7.1      2.888      4.714
REMARK  Name = 
REMARK  5 active torsions:
REMARK  status: ('A' for Active; 'I' for Inactive)
REMARK    1  A    between atoms: C_1  and  C_2
REMARK    2  A    between atoms: C_2  and  C_3
REMARK    3  A    between atoms: C_6  and  N_7
REMARK    4  A    between atoms: C_8  and  C_10
REMARK    5  A    between atoms: N_18  and  C_19
REMARK                            x       y       z     vdW  Elec       q    Type
REMARK                         _______ _______ _______ _____ _____    ______ ____
ROOT
ATOM      1  N   UNL     1      -0.321   9.930  20.464  0.00  0.00    +0.000 N 
ATOM      2  C   UNL     1      -0.058  11.016  21.287  0.00  0.00    +0.000 C 
ATOM      3  O   UNL     1       1.050  11.506  21.446  0.00  0.00    +0.000 OA
ATOM      4  H   UNL     1      -1.288   9.712  20.269  0.00  0.00    +0.000 HD
ENDROOT
BRANCH   2   5
ATOM      5  C   UNL     1      -1.228  11.609  21.923  0.00  0.00    +0.000 A 
ATOM      6  C   UNL     1      -1.747  11.407  23.192  0.00  0.00    +0.000 A 
ATOM      7  C   UNL     1      -2.866  12.277  23.312  0.00  0.00    +0.000 A 
ATOM      8  S   UNL     1      -4.065  12.714  24.484  0.00  0.00    +0.000 S 
ATOM      9  C   UNL     1      -4.747  13.788  23.358  0.00  0.00    +0.000 A 
ATOM     10 CL   UNL     1      -6.149  14.679  23.812  0.00  0.00    +0.000 Cl
ATOM     11  C   UNL     1      -4.110  13.865  22.144  0.00  0.00    +0.000 A 
ATOM     12  C   UNL     1      -3.004  12.969  22.144  0.00  0.00    +0.000 A 
ATOM     13  N   UNL     1      -1.996  12.576  21.293  0.00  0.00    +0.000 N 
ATOM     14  C   UNL     1      -1.793  13.113  19.967  0.00  0.00    +0.000 C 
ENDBRANCH   2   5
BRANCH   1  18
ATOM     15  C   UNL     1       2.650   7.828  18.314  0.00  0.00    +0.000 A 
ATOM     16  C   UNL     1       1.979   8.890  17.709  0.00  0.00    +0.000 A 
ATOM     17  C   UNL     1       1.000   9.587  18.415  0.00  0.00    +0.000 A 
ATOM     18  C   UNL     1       0.663   9.236  19.725  0.00  0.00    +0.000 A 
ATOM     19  C   UNL     1       1.332   8.168  20.330  0.00  0.00    +0.000 A 
ATOM     20  C   UNL     1       2.305   7.460  19.620  0.00  0.00    +0.000 A 
BRANCH  15  22
ATOM     21  C   UNL     1       4.067   5.808  18.264  0.00  0.00    +0.000 C 
ATOM     22  C   UNL     1       3.823   7.175  17.637  0.00  0.00    +0.000 C 
ENDBRANCH  15  22
ENDBRANCH   1  18
TORSDOF 3
ENDMDL
MODEL 8
REMARK VINA RESULT:      -7.0      4.143      8.566
REMARK  Name = 
REMARK  5 active torsions:
REMARK  status: ('A' for Active; 'I' for Inactive)
REMARK    1  A    between atoms: C_1  and  C_2
REMARK    2  A    between atoms: C_2  and  C_3
REMARK    3  A    between atoms: C_6  and  N_7
REMARK    4  A    between atoms: C_8  and  C_10
REMARK    5  A    between atoms: N_18  and  C_19
REMARK                            x       y       z     vdW  Elec       q    Type
REMARK                         _______ _______ _______ _____ _____    ______ ____
ROOT
ATOM      1  N   UNL     1       1.781   8.410  19.628  0.00  0.00    +0.000 N 
ATOM      2  C   UNL     1       2.148   7.077  19.737  0.00  0.00    +0.000 C 
ATOM      3  O   UNL     1       1.779   6.332  20.633  0.00  0.00    +0.000 OA
ATOM      4  H   UNL     1       1.997   8.889  18.765  0.00  0.00    +0.000 HD
ENDROOT
BRANCH   2   5
ATOM      5  C   UNL     1       2.975   6.571  18.648  0.00  0.00    +0.000 A 
ATOM      6  C   UNL     1       3.773   7.258  17.747  0.00  0.00    +0.000 A 
ATOM      7  C   UNL     1       4.399   6.273  16.933  0.00  0.00    +0.000 A 
ATOM      8  S   UNL     1       5.523   6.182  15.617  0.00  0.00    +0.000 S 
ATOM      9  C   UNL     1       5.365   4.491  15.623  0.00  0.00    +0.000 A 
ATOM     10 CL   UNL     1       6.244   3.576  14.458  0.00  0.00    +0.000 Cl
ATOM     11  C   UNL     1       4.529   3.971  16.581  0.00  0.00    +0.000 A 
ATOM     12  C   UNL     1       3.977   5.041  17.341  0.00  0.00    +0.000 A 
ATOM     13  N   UNL     1       3.115   5.215  18.401  0.00  0.00    +0.000 N 
ATOM     14  C   UNL     1       2.484   4.134  19.124  0.00  0.00    +0.000 C 
ENDBRANCH   2   5
BRANCH   1  18
ATOM     15  C   UNL     1      -0.709  10.475  22.349  0.00  0.00    +0.000 A 
ATOM     16  C   UNL     1       0.201   9.532  22.824  0.00  0.00    +0.000 A 
ATOM     17  C   UNL     1       1.025   8.851  21.929  0.00  0.00    +0.000 A 
ATOM     18  C   UNL     1       0.952   9.085  20.554  0.00  0.00    +0.000 A 
ATOM     19  C   UNL     1       0.036  10.026  20.077  0.00  0.00    +0.000 A 
ATOM     20  C   UNL     1      -0.799  10.703  20.970  0.00  0.00    +0.000 A 
BRANCH  15  22
ATOM     21  C   UNL     1      -2.377  12.288  22.509  0.00  0.00    +0.000 C 
ATOM     22  C   UNL     1      -1.484  11.344  23.302  0.00  0.00    +0.000 C 
ENDBRANCH  15  22
ENDBRANCH   1  18
TORSDOF 3
ENDMDL
MODEL 9
REMARK VINA RESULT:      -6.9      1.547      2.108
REMARK  Name = 
REMARK  5 active torsions:
REMARK  status: ('A' for Active; 'I' for Inactive)
REMARK    1  A    between atoms: C_1  and  C_2
REMARK    2  A    between atoms: C_2  and  C_3
REMARK    3  A    between atoms: C_6  and  N_7
REMARK    4  A    between atoms: C_8  and  C_10
REMARK    5  A    between atoms: N_18  and  C_19
REMARK                            x       y       z     vdW  Elec       q    Type
REMARK                         _______ _______ _______ _____ _____    ______ ____
ROOT
ATOM      1  N   UNL     1       1.892   8.011  19.023  0.00  0.00    +0.000 N 
ATOM      2  C   UNL     1       1.583   9.242  18.461  0.00  0.00    +0.000 C 
ATOM      3  O   UNL     1       1.919   9.591  17.339  0.00  0.00    +0.000 OA
ATOM      4  H   UNL     1       1.424   7.755  19.880  0.00  0.00    +0.000 HD
ENDROOT
BRANCH   2   5
ATOM      5  C   UNL     1       0.745  10.105  19.285  0.00  0.00    +0.000 A 
ATOM      6  C   UNL     1       1.021  10.717  20.497  0.00  0.00    +0.000 A 
ATOM      7  C   UNL     1      -0.128  11.487  20.830  0.00  0.00    +0.000 A 
ATOM      8  S   UNL     1      -0.673  12.551  22.084  0.00  0.00    +0.000 S 
ATOM      9  C   UNL     1      -2.153  12.724  21.268  0.00  0.00    +0.000 A 
ATOM     10 CL   UNL     1      -3.373  13.715  21.973  0.00  0.00    +0.000 Cl
ATOM     11  C   UNL     1      -2.264  12.046  20.079  0.00  0.00    +0.000 A 
ATOM     12  C   UNL     1      -1.056  11.329  19.843  0.00  0.00    +0.000 A 
ATOM     13  N   UNL     1      -0.524  10.495  18.885  0.00  0.00    +0.000 N 
ATOM     14  C   UNL     1      -1.202  10.116  17.666  0.00  0.00    +0.000 C 
ENDBRANCH   2   5
BRANCH   1  18
ATOM     15  C   UNL     1       4.214   5.077  17.056  0.00  0.00    +0.000 A 
ATOM     16  C   UNL     1       3.047   4.704  17.719  0.00  0.00    +0.000 A 
ATOM     17  C   UNL     1       2.277   5.669  18.367  0.00  0.00    +0.000 A 
ATOM     18  C   UNL     1       2.658   7.013  18.377  0.00  0.00    +0.000 A 
ATOM     19  C   UNL     1       3.831   7.387  17.717  0.00  0.00    +0.000 A 
ATOM     20  C   UNL     1       4.611   6.420  17.076  0.00  0.00    +0.000 A 
BRANCH  15  22
ATOM     21  C   UNL     1       5.643   4.824  15.059  0.00  0.00    +0.000 C 
ATOM     22  C   UNL     1       4.966   4.088  16.208  0.00  0.00    +0.000 C 
ENDBRANCH  15  22
ENDBRANCH   1  18
TORSDOF 3
ENDMDL
