MODEL 1
REMARK VINA RESULT:      -5.7      0.000      0.000
REMARK  Name = 
REMARK  4 active torsions:
REMARK  status: ('A' for Active; 'I' for Inactive)
REMARK    1  A    between atoms: C_1  and  C_2
REMARK    2  A    between atoms: C_12  and  S_13
REMARK    3  A    between atoms: S_13  and  N_16
REMARK    4  A    between atoms: C_20  and  C_21
REMARK                            x       y       z     vdW  Elec       q    Type
REMARK                         _______ _______ _______ _____ _____    ______ ____
ROOT
ATOM      1  C   UNL     1       1.636   9.050  17.860  0.00  0.00    +0.000 C 
ATOM      2  C   UNL     1       1.614  10.336  18.665  0.00  0.00    +0.000 C 
ATOM      3  O   UNL     1       2.234  11.301  18.233  0.00  0.00    +0.000 OA
ATOM      4  N   UNL     1       0.923  10.294  19.863  0.00  0.00    +0.000 N 
ATOM      5  C   UNL     1       0.621   9.011  20.519  0.00  0.00    +0.000 C 
ATOM      6  C   UNL     1       0.038   9.305  21.885  0.00  0.00    +0.000 C 
ATOM      7  C   UNL     1      -0.178  10.781  21.803  0.00  0.00    +0.000 A 
ATOM      8  C   UNL     1      -0.874  11.500  22.769  0.00  0.00    +0.000 A 
ATOM      9  C   UNL     1      -1.046  12.854  22.565  0.00  0.00    +0.000 A 
ATOM     10 BR   UNL     1      -2.052  13.873  23.798  0.00  0.00    +0.000 Br
ATOM     11  C   UNL     1      -0.475  13.476  21.455  0.00  0.00    +0.000 A 
ATOM     12  C   UNL     1       0.292  12.756  20.506  0.00  0.00    +0.000 A 
ATOM     13  C   UNL     1       0.404  11.365  20.654  0.00  0.00    +0.000 A 
ENDROOT
BRANCH  12  14
ATOM     14  S   UNL     1       1.074  13.721  19.228  0.00  0.00    +0.000 S 
ATOM     15  O   UNL     1       2.503  13.556  19.384  0.00  0.00    +0.000 OA
ATOM     16  O   UNL     1       0.340  13.471  18.002  0.00  0.00    +0.000 OA
BRANCH  14  17
ATOM     17  N   UNL     1       0.758  15.335  19.625  0.00  0.00    +0.000 NA
ATOM     18  C   UNL     1       1.575  16.095  20.581  0.00  0.00    +0.000 C 
ATOM     19  C   UNL     1       2.285  17.229  19.840  0.00  0.00    +0.000 C 
ATOM     20  C   UNL     1       1.326  18.056  18.973  0.00  0.00    +0.000 C 
ATOM     21  C   UNL     1       0.452  17.166  18.073  0.00  0.00    +0.000 C 
ATOM     22  C   UNL     1      -0.554  17.994  17.282  0.00  0.00    +0.000 C 
ATOM     23  C   UNL     1      -0.265  16.109  18.918  0.00  0.00    +0.000 C 
ENDBRANCH  14  17
ENDBRANCH  12  14
TORSDOF 2
ENDMDL
MODEL 2
REMARK VINA RESULT:      -5.4      3.736      6.569
REMARK  Name = 
REMARK  4 active torsions:
REMARK  status: ('A' for Active; 'I' for Inactive)
REMARK    1  A    between atoms: C_1  and  C_2
REMARK    2  A    between atoms: C_12  and  S_13
REMARK    3  A    between atoms: S_13  and  N_16
REMARK    4  A    between atoms: C_20  and  C_21
REMARK                            x       y       z     vdW  Elec       q    Type
REMARK                         _______ _______ _______ _____ _____    ______ ____
ROOT
ATOM      1  C   UNL     1      -1.407  15.731  26.091  0.00  0.00    +0.000 C 
ATOM      2  C   UNL     1      -1.522  15.221  24.666  0.00  0.00    +0.000 C 
ATOM      3  O   UNL     1      -0.490  14.997  24.046  0.00  0.00    +0.000 OA
ATOM      4  N   UNL     1      -2.806  15.097  24.165  0.00  0.00    +0.000 N 
ATOM      5  C   UNL     1      -3.933  15.816  24.782  0.00  0.00    +0.000 C 
ATOM      6  C   UNL     1      -5.150  15.632  23.900  0.00  0.00    +0.000 C 
ATOM      7  C   UNL     1      -4.668  14.589  22.945  0.00  0.00    +0.000 A 
ATOM      8  C   UNL     1      -5.503  13.948  22.036  0.00  0.00    +0.000 A 
ATOM      9  C   UNL     1      -4.952  12.973  21.231  0.00  0.00    +0.000 A 
ATOM     10 BR   UNL     1      -6.051  12.009  20.033  0.00  0.00    +0.000 Br
ATOM     11  C   UNL     1      -3.586  12.698  21.294  0.00  0.00    +0.000 A 
ATOM     12  C   UNL     1      -2.722  13.398  22.171  0.00  0.00    +0.000 A 
ATOM     13  C   UNL     1      -3.281  14.333  23.055  0.00  0.00    +0.000 A 
ENDROOT
BRANCH  12  14
ATOM     14  S   UNL     1      -0.984  13.031  22.024  0.00  0.00    +0.000 S 
ATOM     15  O   UNL     1      -0.329  14.244  21.585  0.00  0.00    +0.000 OA
ATOM     16  O   UNL     1      -0.613  12.268  23.201  0.00  0.00    +0.000 OA
BRANCH  14  17
ATOM     17  N   UNL     1      -0.859  11.953  20.727  0.00  0.00    +0.000 NA
ATOM     18  C   UNL     1      -0.806  12.395  19.326  0.00  0.00    +0.000 C 
ATOM     19  C   UNL     1       0.563  12.040  18.742  0.00  0.00    +0.000 C 
ATOM     20  C   UNL     1       0.950  10.578  18.998  0.00  0.00    +0.000 C 
ATOM     21  C   UNL     1       0.774  10.186  20.476  0.00  0.00    +0.000 C 
ATOM     22  C   UNL     1       1.080   8.709  20.699  0.00  0.00    +0.000 C 
ATOM     23  C   UNL     1      -0.645  10.520  20.942  0.00  0.00    +0.000 C 
ENDBRANCH  14  17
ENDBRANCH  12  14
TORSDOF 2
ENDMDL
MODEL 3
REMARK VINA RESULT:      -5.4      8.079     10.296
REMARK  Name = 
REMARK  4 active torsions:
REMARK  status: ('A' for Active; 'I' for Inactive)
REMARK    1  A    between atoms: C_1  and  C_2
REMARK    2  A    between atoms: C_12  and  S_13
REMARK    3  A    between atoms: S_13  and  N_16
REMARK    4  A    between atoms: C_20  and  C_21
REMARK                            x       y       z     vdW  Elec       q    Type
REMARK                         _______ _______ _______ _____ _____    ______ ____
ROOT
ATOM      1  C   UNL     1       2.507   1.449  20.757  0.00  0.00    +0.000 C 
ATOM      2  C   UNL     1       3.301   2.574  20.120  0.00  0.00    +0.000 C 
ATOM      3  O   UNL     1       4.383   2.304  19.613  0.00  0.00    +0.000 OA
ATOM      4  N   UNL     1       2.747   3.839  20.210  0.00  0.00    +0.000 N 
ATOM      5  C   UNL     1       1.717   4.145  21.216  0.00  0.00    +0.000 C 
ATOM      6  C   UNL     1       1.459   5.636  21.190  0.00  0.00    +0.000 C 
ATOM      7  C   UNL     1       2.211   6.044  19.965  0.00  0.00    +0.000 A 
ATOM      8  C   UNL     1       2.126   7.318  19.412  0.00  0.00    +0.000 A 
ATOM      9  C   UNL     1       2.836   7.567  18.255  0.00  0.00    +0.000 A 
ATOM     10 BR   UNL     1       2.698   9.251  17.410  0.00  0.00    +0.000 Br
ATOM     11  C   UNL     1       3.658   6.582  17.709  0.00  0.00    +0.000 A 
ATOM     12  C   UNL     1       3.799   5.307  18.310  0.00  0.00    +0.000 A 
ATOM     13  C   UNL     1       3.019   5.010  19.438  0.00  0.00    +0.000 A 
ENDROOT
BRANCH  12  14
ATOM     14  S   UNL     1       4.999   4.215  17.572  0.00  0.00    +0.000 S 
ATOM     15  O   UNL     1       6.155   4.204  18.442  0.00  0.00    +0.000 OA
ATOM     16  O   UNL     1       4.280   3.033  17.132  0.00  0.00    +0.000 OA
BRANCH  14  17
ATOM     17  N   UNL     1       5.504   4.991  16.157  0.00  0.00    +0.000 NA
ATOM     18  C   UNL     1       6.660   5.898  16.115  0.00  0.00    +0.000 C 
ATOM     19  C   UNL     1       7.749   5.278  15.237  0.00  0.00    +0.000 C 
ATOM     20  C   UNL     1       7.213   4.813  13.877  0.00  0.00    +0.000 C 
ATOM     21  C   UNL     1       5.951   3.945  14.022  0.00  0.00    +0.000 C 
ATOM     22  C   UNL     1       5.382   3.562  12.660  0.00  0.00    +0.000 C 
ATOM     23  C   UNL     1       4.902   4.681  14.859  0.00  0.00    +0.000 C 
ENDBRANCH  14  17
ENDBRANCH  12  14
TORSDOF 2
ENDMDL
MODEL 4
REMARK VINA RESULT:      -5.3      4.381      5.342
REMARK  Name = 
REMARK  4 active torsions:
REMARK  status: ('A' for Active; 'I' for Inactive)
REMARK    1  A    between atoms: C_1  and  C_2
REMARK    2  A    between atoms: C_12  and  S_13
REMARK    3  A    between atoms: S_13  and  N_16
REMARK    4  A    between atoms: C_20  and  C_21
REMARK                            x       y       z     vdW  Elec       q    Type
REMARK                         _______ _______ _______ _____ _____    ______ ____
ROOT
ATOM      1  C   UNL     1       1.041  10.739  18.562  0.00  0.00    +0.000 C 
ATOM      2  C   UNL     1      -0.259  11.057  19.277  0.00  0.00    +0.000 C 
ATOM      3  O   UNL     1      -0.203  11.434  20.442  0.00  0.00    +0.000 OA
ATOM      4  N   UNL     1      -1.421  10.846  18.555  0.00  0.00    +0.000 N 
ATOM      5  C   UNL     1      -1.428   9.969  17.372  0.00  0.00    +0.000 C 
ATOM      6  C   UNL     1      -2.864   9.789  16.926  0.00  0.00    +0.000 C 
ATOM      7  C   UNL     1      -3.564  10.804  17.769  0.00  0.00    +0.000 A 
ATOM      8  C   UNL     1      -4.900  11.148  17.591  0.00  0.00    +0.000 A 
ATOM      9  C   UNL     1      -5.428  12.129  18.404  0.00  0.00    +0.000 A 
ATOM     10 BR   UNL     1      -7.213  12.698  18.157  0.00  0.00    +0.000 Br
ATOM     11  C   UNL     1      -4.652  12.699  19.413  0.00  0.00    +0.000 A 
ATOM     12  C   UNL     1      -3.312  12.301  19.640  0.00  0.00    +0.000 A 
ATOM     13  C   UNL     1      -2.734  11.366  18.767  0.00  0.00    +0.000 A 
ENDROOT
BRANCH  12  14
ATOM     14  S   UNL     1      -2.506  13.019  21.059  0.00  0.00    +0.000 S 
ATOM     15  O   UNL     1      -2.240  11.942  21.988  0.00  0.00    +0.000 OA
ATOM     16  O   UNL     1      -1.507  13.943  20.554  0.00  0.00    +0.000 OA
BRANCH  14  17
ATOM     17  N   UNL     1      -3.679  13.983  21.804  0.00  0.00    +0.000 NA
ATOM     18  C   UNL     1      -4.605  13.466  22.823  0.00  0.00    +0.000 C 
ATOM     19  C   UNL     1      -4.311  14.152  24.158  0.00  0.00    +0.000 C 
ATOM     20  C   UNL     1      -4.240  15.679  24.031  0.00  0.00    +0.000 C 
ATOM     21  C   UNL     1      -3.318  16.119  22.880  0.00  0.00    +0.000 C 
ATOM     22  C   UNL     1      -3.324  17.634  22.711  0.00  0.00    +0.000 C 
ATOM     23  C   UNL     1      -3.736  15.428  21.579  0.00  0.00    +0.000 C 
ENDBRANCH  14  17
ENDBRANCH  12  14
TORSDOF 2
ENDMDL
MODEL 5
REMARK VINA RESULT:      -5.3      5.088      6.693
REMARK  Name = 
REMARK  4 active torsions:
REMARK  status: ('A' for Active; 'I' for Inactive)
REMARK    1  A    between atoms: C_1  and  C_2
REMARK    2  A    between atoms: C_12  and  S_13
REMARK    3  A    between atoms: S_13  and  N_16
REMARK    4  A    between atoms: C_20  and  C_21
REMARK                            x       y       z     vdW  Elec       q    Type
REMARK                         _______ _______ _______ _____ _____    ______ ____
ROOT
ATOM      1  C   UNL     1       0.219  14.582  22.649  0.00  0.00    +0.000 C 
ATOM      2  C   UNL     1      -0.944  13.753  22.134  0.00  0.00    +0.000 C 
ATOM      3  O   UNL     1      -2.017  13.834  22.720  0.00  0.00    +0.000 OA
ATOM      4  N   UNL     1      -0.675  12.927  21.057  0.00  0.00    +0.000 N 
ATOM      5  C   UNL     1       0.706  12.542  20.725  0.00  0.00    +0.000 C 
ATOM      6  C   UNL     1       0.655  11.493  19.633  0.00  0.00    +0.000 C 
ATOM      7  C   UNL     1      -0.787  11.541  19.246  0.00  0.00    +0.000 A 
ATOM      8  C   UNL     1      -1.298  10.872  18.139  0.00  0.00    +0.000 A 
ATOM      9  C   UNL     1      -2.641  11.023  17.858  0.00  0.00    +0.000 A 
ATOM     10 BR   UNL     1      -3.378  10.207  16.321  0.00  0.00    +0.000 Br
ATOM     11  C   UNL     1      -3.457  11.771  18.705  0.00  0.00    +0.000 A 
ATOM     12  C   UNL     1      -2.952  12.396  19.871  0.00  0.00    +0.000 A 
ATOM     13  C   UNL     1      -1.573  12.323  20.125  0.00  0.00    +0.000 A 
ENDROOT
BRANCH  12  14
ATOM     14  S   UNL     1      -4.151  13.189  20.924  0.00  0.00    +0.000 S 
ATOM     15  O   UNL     1      -4.179  12.452  22.168  0.00  0.00    +0.000 OA
ATOM     16  O   UNL     1      -3.930  14.619  20.813  0.00  0.00    +0.000 OA
BRANCH  14  17
ATOM     17  N   UNL     1      -5.650  12.904  20.194  0.00  0.00    +0.000 NA
ATOM     18  C   UNL     1      -6.199  13.767  19.138  0.00  0.00    +0.000 C 
ATOM     19  C   UNL     1      -6.288  12.968  17.837  0.00  0.00    +0.000 C 
ATOM     20  C   UNL     1      -6.986  11.614  18.025  0.00  0.00    +0.000 C 
ATOM     21  C   UNL     1      -6.401  10.826  19.210  0.00  0.00    +0.000 C 
ATOM     22  C   UNL     1      -7.160   9.523  19.438  0.00  0.00    +0.000 C 
ATOM     23  C   UNL     1      -6.418  11.689  20.474  0.00  0.00    +0.000 C 
ENDBRANCH  14  17
ENDBRANCH  12  14
TORSDOF 2
ENDMDL
MODEL 6
REMARK VINA RESULT:      -5.3      3.743      4.907
REMARK  Name = 
REMARK  4 active torsions:
REMARK  status: ('A' for Active; 'I' for Inactive)
REMARK    1  A    between atoms: C_1  and  C_2
REMARK    2  A    between atoms: C_12  and  S_13
REMARK    3  A    between atoms: S_13  and  N_16
REMARK    4  A    between atoms: C_20  and  C_21
REMARK                            x       y       z     vdW  Elec       q    Type
REMARK                         _______ _______ _______ _____ _____    ______ ____
ROOT
ATOM      1  C   UNL     1       1.630   9.622  18.272  0.00  0.00    +0.000 C 
ATOM      2  C   UNL     1       0.604  10.063  19.299  0.00  0.00    +0.000 C 
ATOM      3  O   UNL     1       0.927  10.055  20.481  0.00  0.00    +0.000 OA
ATOM      4  N   UNL     1      -0.647  10.395  18.808  0.00  0.00    +0.000 N 
ATOM      5  C   UNL     1      -1.086   9.936  17.481  0.00  0.00    +0.000 C 
ATOM      6  C   UNL     1      -2.548  10.293  17.317  0.00  0.00    +0.000 C 
ATOM      7  C   UNL     1      -2.772  11.171  18.505  0.00  0.00    +0.000 A 
ATOM      8  C   UNL     1      -3.939  11.903  18.698  0.00  0.00    +0.000 A 
ATOM      9  C   UNL     1      -4.016  12.712  19.814  0.00  0.00    +0.000 A 
ATOM     10 BR   UNL     1      -5.540  13.794  20.090  0.00  0.00    +0.000 Br
ATOM     11  C   UNL     1      -2.975  12.730  20.742  0.00  0.00    +0.000 A 
ATOM     12  C   UNL     1      -1.815  11.933  20.581  0.00  0.00    +0.000 A 
ATOM     13  C   UNL     1      -1.685  11.171  19.410  0.00  0.00    +0.000 A 
ENDROOT
BRANCH  12  14
ATOM     14  S   UNL     1      -0.647  11.959  21.926  0.00  0.00    +0.000 S 
ATOM     15  O   UNL     1      -0.588  10.618  22.466  0.00  0.00    +0.000 OA
ATOM     16  O   UNL     1       0.502  12.722  21.473  0.00  0.00    +0.000 OA
BRANCH  14  17
ATOM     17  N   UNL     1      -1.369  12.902  23.132  0.00  0.00    +0.000 NA
ATOM     18  C   UNL     1      -1.054  14.324  23.327  0.00  0.00    +0.000 C 
ATOM     19  C   UNL     1      -2.298  15.158  23.017  0.00  0.00    +0.000 C 
ATOM     20  C   UNL     1      -3.547  14.643  23.746  0.00  0.00    +0.000 C 
ATOM     21  C   UNL     1      -3.740  13.128  23.556  0.00  0.00    +0.000 C 
ATOM     22  C   UNL     1      -4.934  12.617  24.354  0.00  0.00    +0.000 C 
ATOM     23  C   UNL     1      -2.464  12.382  23.954  0.00  0.00    +0.000 C 
ENDBRANCH  14  17
ENDBRANCH  12  14
TORSDOF 2
ENDMDL
MODEL 7
REMARK VINA RESULT:      -5.2      4.952      6.500
REMARK  Name = 
REMARK  4 active torsions:
REMARK  status: ('A' for Active; 'I' for Inactive)
REMARK    1  A    between atoms: C_1  and  C_2
REMARK    2  A    between atoms: C_12  and  S_13
REMARK    3  A    between atoms: S_13  and  N_16
REMARK    4  A    between atoms: C_20  and  C_21
REMARK                            x       y       z     vdW  Elec       q    Type
REMARK                         _______ _______ _______ _____ _____    ______ ____
ROOT
ATOM      1  C   UNL     1      -6.208  12.784  23.608  0.00  0.00    +0.000 C 
ATOM      2  C   UNL     1      -5.341  13.046  22.391  0.00  0.00    +0.000 C 
ATOM      3  O   UNL     1      -4.328  13.719  22.535  0.00  0.00    +0.000 OA
ATOM      4  N   UNL     1      -5.803  12.533  21.191  0.00  0.00    +0.000 N 
ATOM      5  C   UNL     1      -7.218  12.163  21.020  0.00  0.00    +0.000 C 
ATOM      6  C   UNL     1      -7.445  11.824  19.562  0.00  0.00    +0.000 C 
ATOM      7  C   UNL     1      -6.043  11.794  19.044  0.00  0.00    +0.000 A 
ATOM      8  C   UNL     1      -5.715  11.343  17.770  0.00  0.00    +0.000 A 
ATOM      9  C   UNL     1      -4.381  11.323  17.417  0.00  0.00    +0.000 A 
ATOM     10 BR   UNL     1      -3.863  10.646  15.731  0.00  0.00    +0.000 Br
ATOM     11  C   UNL     1      -3.413  11.806  18.298  0.00  0.00    +0.000 A 
ATOM     12  C   UNL     1      -3.754  12.329  19.569  0.00  0.00    +0.000 A 
ATOM     13  C   UNL     1      -5.096  12.277  19.976  0.00  0.00    +0.000 A 
ENDROOT
BRANCH  12  14
ATOM     14  S   UNL     1      -2.419  13.040  20.512  0.00  0.00    +0.000 S 
ATOM     15  O   UNL     1      -2.702  14.452  20.653  0.00  0.00    +0.000 OA
ATOM     16  O   UNL     1      -2.151  12.134  21.614  0.00  0.00    +0.000 OA
BRANCH  14  17
ATOM     17  N   UNL     1      -1.059  12.948  19.510  0.00  0.00    +0.000 NA
ATOM     18  C   UNL     1      -0.195  14.103  19.231  0.00  0.00    +0.000 C 
ATOM     19  C   UNL     1       1.190  13.846  19.826  0.00  0.00    +0.000 C 
ATOM     20  C   UNL     1       1.755  12.476  19.427  0.00  0.00    +0.000 C 
ATOM     21  C   UNL     1       0.744  11.343  19.673  0.00  0.00    +0.000 C 
ATOM     22  C   UNL     1       1.286  10.001  19.193  0.00  0.00    +0.000 C 
ATOM     23  C   UNL     1      -0.584  11.667  18.983  0.00  0.00    +0.000 C 
ENDBRANCH  14  17
ENDBRANCH  12  14
TORSDOF 2
ENDMDL
MODEL 8
REMARK VINA RESULT:      -5.1      3.100      5.314
REMARK  Name = 
REMARK  4 active torsions:
REMARK  status: ('A' for Active; 'I' for Inactive)
REMARK    1  A    between atoms: C_1  and  C_2
REMARK    2  A    between atoms: C_12  and  S_13
REMARK    3  A    between atoms: S_13  and  N_16
REMARK    4  A    between atoms: C_20  and  C_21
REMARK                            x       y       z     vdW  Elec       q    Type
REMARK                         _______ _______ _______ _____ _____    ______ ____
ROOT
ATOM      1  C   UNL     1       1.482   9.446  18.451  0.00  0.00    +0.000 C 
ATOM      2  C   UNL     1       0.527  10.600  18.693  0.00  0.00    +0.000 C 
ATOM      3  O   UNL     1      -0.667  10.348  18.814  0.00  0.00    +0.000 OA
ATOM      4  N   UNL     1       1.088  11.865  18.709  0.00  0.00    +0.000 N 
ATOM      5  C   UNL     1       2.405  12.116  18.101  0.00  0.00    +0.000 C 
ATOM      6  C   UNL     1       2.650  13.610  18.107  0.00  0.00    +0.000 C 
ATOM      7  C   UNL     1       1.526  14.090  18.966  0.00  0.00    +0.000 A 
ATOM      8  C   UNL     1       1.425  15.400  19.421  0.00  0.00    +0.000 A 
ATOM      9  C   UNL     1       0.362  15.718  20.242  0.00  0.00    +0.000 A 
ATOM     10 BR   UNL     1       0.214  17.460  20.960  0.00  0.00    +0.000 Br
ATOM     11  C   UNL     1      -0.606  14.760  20.540  0.00  0.00    +0.000 A 
ATOM     12  C   UNL     1      -0.542  13.444  20.021  0.00  0.00    +0.000 A 
ATOM     13  C   UNL     1       0.577  13.082  19.255  0.00  0.00    +0.000 A 
ENDROOT
BRANCH  12  14
ATOM     14  S   UNL     1      -1.932  12.387  20.375  0.00  0.00    +0.000 S 
ATOM     15  O   UNL     1      -2.614  12.146  19.122  0.00  0.00    +0.000 OA
ATOM     16  O   UNL     1      -1.456  11.351  21.273  0.00  0.00    +0.000 OA
BRANCH  14  17
ATOM     17  N   UNL     1      -2.993  13.331  21.295  0.00  0.00    +0.000 NA
ATOM     18  C   UNL     1      -4.092  14.103  20.699  0.00  0.00    +0.000 C 
ATOM     19  C   UNL     1      -5.425  13.526  21.179  0.00  0.00    +0.000 C 
ATOM     20  C   UNL     1      -5.476  13.355  22.703  0.00  0.00    +0.000 C 
ATOM     21  C   UNL     1      -4.239  12.615  23.241  0.00  0.00    +0.000 C 
ATOM     22  C   UNL     1      -4.263  12.529  24.763  0.00  0.00    +0.000 C 
ATOM     23  C   UNL     1      -2.962  13.309  22.758  0.00  0.00    +0.000 C 
ENDBRANCH  14  17
ENDBRANCH  12  14
TORSDOF 2
ENDMDL
MODEL 9
REMARK VINA RESULT:      -5.1      8.430     10.333
REMARK  Name = 
REMARK  4 active torsions:
REMARK  status: ('A' for Active; 'I' for Inactive)
REMARK    1  A    between atoms: C_1  and  C_2
REMARK    2  A    between atoms: C_12  and  S_13
REMARK    3  A    between atoms: S_13  and  N_16
REMARK    4  A    between atoms: C_20  and  C_21
REMARK                            x       y       z     vdW  Elec       q    Type
REMARK                         _______ _______ _______ _____ _____    ______ ____
ROOT
ATOM      1  C   UNL     1      10.823  18.138  17.535  0.00  0.00    +0.000 C 
ATOM      2  C   UNL     1      10.666  16.998  18.523  0.00  0.00    +0.000 C 
ATOM      3  O   UNL     1      10.485  17.274  19.703  0.00  0.00    +0.000 OA
ATOM      4  N   UNL     1      10.792  15.720  18.006  0.00  0.00    +0.000 N 
ATOM      5  C   UNL     1      11.462  15.488  16.716  0.00  0.00    +0.000 C 
ATOM      6  C   UNL     1      11.609  13.994  16.522  0.00  0.00    +0.000 C 
ATOM      7  C   UNL     1      10.769  13.467  17.639  0.00  0.00    +0.000 A 
ATOM      8  C   UNL     1      10.441  12.122  17.774  0.00  0.00    +0.000 A 
ATOM      9  C   UNL     1       9.624  11.758  18.825  0.00  0.00    +0.000 A 
ATOM     10 BR   UNL     1       9.077   9.960  19.014  0.00  0.00    +0.000 Br
ATOM     11  C   UNL     1       9.205  12.713  19.751  0.00  0.00    +0.000 A 
ATOM     12  C   UNL     1       9.593  14.071  19.654  0.00  0.00    +0.000 A 
ATOM     13  C   UNL     1      10.354  14.471  18.545  0.00  0.00    +0.000 A 
ENDROOT
BRANCH  12  14
ATOM     14  S   UNL     1       9.095  15.132  20.997  0.00  0.00    +0.000 S 
ATOM     15  O   UNL     1      10.285  15.445  21.757  0.00  0.00    +0.000 OA
ATOM     16  O   UNL     1       8.184  16.116  20.441  0.00  0.00    +0.000 OA
BRANCH  14  17
ATOM     17  N   UNL     1       8.151  14.161  22.011  0.00  0.00    +0.000 NA
ATOM     18  C   UNL     1       8.720  13.364  23.106  0.00  0.00    +0.000 C 
ATOM     19  C   UNL     1       8.205  13.908  24.440  0.00  0.00    +0.000 C 
ATOM     20  C   UNL     1       6.680  14.075  24.457  0.00  0.00    +0.000 C 
ATOM     21  C   UNL     1       6.172  14.844  23.224  0.00  0.00    +0.000 C 
ATOM     22  C   UNL     1       4.650  14.929  23.211  0.00  0.00    +0.000 C 
ATOM     23  C   UNL     1       6.688  14.183  21.944  0.00  0.00    +0.000 C 
ENDBRANCH  14  17
ENDBRANCH  12  14
TORSDOF 2
ENDMDL
