MODEL 1
REMARK VINA RESULT:      -6.7      0.000      0.000
REMARK  Name = 
REMARK  5 active torsions:
REMARK  status: ('A' for Active; 'I' for Inactive)
REMARK    1  A    between atoms: C_1  and  C_2
REMARK    2  A    between atoms: C_2  and  S_3
REMARK    3  A    between atoms: S_3  and  C_4
REMARK    4  A    between atoms: C_9  and  C_10
REMARK    5  A    between atoms: C_12  and  C_13
REMARK                            x       y       z     vdW  Elec       q    Type
REMARK                         _______ _______ _______ _____ _____    ______ ____
ROOT
ATOM      1  C   UNL     1       4.314   3.982  17.926  0.00  0.00    +0.000 C 
ATOM      2  N   UNL     1       5.498   3.851  18.442  0.00  0.00    +0.000 NA
ATOM      3  C   UNL     1       6.394   4.351  17.377  0.00  0.00    +0.000 C 
ATOM      4  C   UNL     1       5.499   4.427  16.146  0.00  0.00    +0.000 C 
ATOM      5  O   UNL     1       4.186   4.509  16.686  0.00  0.00    +0.000 OA
ENDROOT
BRANCH   1  11
ATOM      6  C   UNL     1       2.363   4.574  19.458  0.00  0.00    +0.000 A 
ATOM      7  C   UNL     1       1.132   4.174  20.009  0.00  0.00    +0.000 A 
ATOM      8  C   UNL     1       0.597   2.912  19.750  0.00  0.00    +0.000 A 
ATOM      9  C   UNL     1       1.278   2.027  18.923  0.00  0.00    +0.000 A 
ATOM     10  C   UNL     1       2.493   2.409  18.351  0.00  0.00    +0.000 A 
ATOM     11  C   UNL     1       3.045   3.677  18.613  0.00  0.00    +0.000 A 
BRANCH   6  12
ATOM     12  S   UNL     1       2.887   6.258  19.801  0.00  0.00    +0.000 S 
BRANCH  12  14
ATOM     13  C   UNL     1       3.396   7.820  17.604  0.00  0.00    +0.000 C 
ATOM     14  C   UNL     1       2.264   7.084  18.299  0.00  0.00    +0.000 C 
ENDBRANCH  12  14
ENDBRANCH   6  12
ENDBRANCH   1  11
BRANCH   3  15
ATOM     15  C   UNL     1       7.034   5.680  17.736  0.00  0.00    +0.000 A 
ATOM     16  C   UNL     1       7.814   5.793  18.894  0.00  0.00    +0.000 A 
ATOM     17  C   UNL     1       8.436   7.002  19.219  0.00  0.00    +0.000 A 
ATOM     18  C   UNL     1       8.279   8.113  18.392  0.00  0.00    +0.000 A 
ATOM     19  C   UNL     1       7.499   8.019  17.244  0.00  0.00    +0.000 A 
ATOM     20  C   UNL     1       6.879   6.812  16.918  0.00  0.00    +0.000 A 
ENDBRANCH   3  15
TORSDOF 4
ENDMDL
MODEL 2
REMARK VINA RESULT:      -6.7      2.235      3.535
REMARK  Name = 
REMARK  5 active torsions:
REMARK  status: ('A' for Active; 'I' for Inactive)
REMARK    1  A    between atoms: C_1  and  C_2
REMARK    2  A    between atoms: C_2  and  S_3
REMARK    3  A    between atoms: S_3  and  C_4
REMARK    4  A    between atoms: C_9  and  C_10
REMARK    5  A    between atoms: C_12  and  C_13
REMARK                            x       y       z     vdW  Elec       q    Type
REMARK                         _______ _______ _______ _____ _____    ______ ____
ROOT
ATOM      1  C   UNL     1       4.656   4.534  17.286  0.00  0.00    +0.000 C 
ATOM      2  N   UNL     1       4.658   5.425  16.342  0.00  0.00    +0.000 NA
ATOM      3  C   UNL     1       6.088   5.548  15.987  0.00  0.00    +0.000 C 
ATOM      4  C   UNL     1       6.813   4.837  17.124  0.00  0.00    +0.000 C 
ATOM      5  O   UNL     1       5.827   3.969  17.665  0.00  0.00    +0.000 OA
ENDROOT
BRANCH   1  11
ATOM      6  C   UNL     1       2.614   4.753  18.796  0.00  0.00    +0.000 A 
ATOM      7  C   UNL     1       1.468   4.133  19.328  0.00  0.00    +0.000 A 
ATOM      8  C   UNL     1       1.171   2.798  19.054  0.00  0.00    +0.000 A 
ATOM      9  C   UNL     1       2.010   2.057  18.230  0.00  0.00    +0.000 A 
ATOM     10  C   UNL     1       3.143   2.656  17.677  0.00  0.00    +0.000 A 
ATOM     11  C   UNL     1       3.455   4.000  17.954  0.00  0.00    +0.000 A 
BRANCH   6  12
ATOM     12  S   UNL     1       2.823   6.500  19.157  0.00  0.00    +0.000 S 
BRANCH  12  14
ATOM     13  C   UNL     1       1.390   8.104  20.861  0.00  0.00    +0.000 C 
ATOM     14  C   UNL     1       1.725   6.645  20.608  0.00  0.00    +0.000 C 
ENDBRANCH  12  14
ENDBRANCH   6  12
ENDBRANCH   1  11
BRANCH   3  15
ATOM     15  C   UNL     1       6.396   4.963  14.621  0.00  0.00    +0.000 A 
ATOM     16  C   UNL     1       5.554   3.990  14.068  0.00  0.00    +0.000 A 
ATOM     17  C   UNL     1       5.808   3.466  12.796  0.00  0.00    +0.000 A 
ATOM     18  C   UNL     1       6.910   3.908  12.067  0.00  0.00    +0.000 A 
ATOM     19  C   UNL     1       7.761   4.866  12.607  0.00  0.00    +0.000 A 
ATOM     20  C   UNL     1       7.508   5.390  13.875  0.00  0.00    +0.000 A 
ENDBRANCH   3  15
TORSDOF 4
ENDMDL
MODEL 3
REMARK VINA RESULT:      -6.7      0.464      1.163
REMARK  Name = 
REMARK  5 active torsions:
REMARK  status: ('A' for Active; 'I' for Inactive)
REMARK    1  A    between atoms: C_1  and  C_2
REMARK    2  A    between atoms: C_2  and  S_3
REMARK    3  A    between atoms: S_3  and  C_4
REMARK    4  A    between atoms: C_9  and  C_10
REMARK    5  A    between atoms: C_12  and  C_13
REMARK                            x       y       z     vdW  Elec       q    Type
REMARK                         _______ _______ _______ _____ _____    ______ ____
ROOT
ATOM      1  C   UNL     1       4.455   3.957  18.286  0.00  0.00    +0.000 C 
ATOM      2  N   UNL     1       5.621   3.990  18.855  0.00  0.00    +0.000 NA
ATOM      3  C   UNL     1       6.536   4.332  17.745  0.00  0.00    +0.000 C 
ATOM      4  C   UNL     1       5.692   4.128  16.494  0.00  0.00    +0.000 C 
ATOM      5  O   UNL     1       4.355   4.236  16.965  0.00  0.00    +0.000 OA
ENDROOT
BRANCH   1  11
ATOM      6  C   UNL     1       2.422   4.711  19.627  0.00  0.00    +0.000 A 
ATOM      7  C   UNL     1       1.188   4.353  20.201  0.00  0.00    +0.000 A 
ATOM      8  C   UNL     1       0.718   3.040  20.152  0.00  0.00    +0.000 A 
ATOM      9  C   UNL     1       1.470   2.059  19.516  0.00  0.00    +0.000 A 
ATOM     10  C   UNL     1       2.688   2.394  18.924  0.00  0.00    +0.000 A 
ATOM     11  C   UNL     1       3.175   3.714  18.975  0.00  0.00    +0.000 A 
BRANCH   6  12
ATOM     12  S   UNL     1       2.859   6.452  19.684  0.00  0.00    +0.000 S 
BRANCH  12  14
ATOM     13  C   UNL     1       2.479   8.451  17.843  0.00  0.00    +0.000 C 
ATOM     14  C   UNL     1       2.375   6.944  17.995  0.00  0.00    +0.000 C 
ENDBRANCH  12  14
ENDBRANCH   6  12
ENDBRANCH   1  11
BRANCH   3  15
ATOM     15  C   UNL     1       7.095   5.737  17.870  0.00  0.00    +0.000 A 
ATOM     16  C   UNL     1       6.704   6.731  16.962  0.00  0.00    +0.000 A 
ATOM     17  C   UNL     1       7.186   8.038  17.084  0.00  0.00    +0.000 A 
ATOM     18  C   UNL     1       8.068   8.363  18.112  0.00  0.00    +0.000 A 
ATOM     19  C   UNL     1       8.473   7.386  19.015  0.00  0.00    +0.000 A 
ATOM     20  C   UNL     1       7.992   6.082  18.895  0.00  0.00    +0.000 A 
ENDBRANCH   3  15
TORSDOF 4
ENDMDL
MODEL 4
REMARK VINA RESULT:      -6.6      2.087      3.400
REMARK  Name = 
REMARK  5 active torsions:
REMARK  status: ('A' for Active; 'I' for Inactive)
REMARK    1  A    between atoms: C_1  and  C_2
REMARK    2  A    between atoms: C_2  and  S_3
REMARK    3  A    between atoms: S_3  and  C_4
REMARK    4  A    between atoms: C_9  and  C_10
REMARK    5  A    between atoms: C_12  and  C_13
REMARK                            x       y       z     vdW  Elec       q    Type
REMARK                         _______ _______ _______ _____ _____    ______ ____
ROOT
ATOM      1  C   UNL     1       4.625   4.572  17.316  0.00  0.00    +0.000 C 
ATOM      2  N   UNL     1       4.630   5.466  16.374  0.00  0.00    +0.000 NA
ATOM      3  C   UNL     1       6.058   5.565  16.003  0.00  0.00    +0.000 C 
ATOM      4  C   UNL     1       6.785   4.840  17.129  0.00  0.00    +0.000 C 
ATOM      5  O   UNL     1       5.790   3.987  17.680  0.00  0.00    +0.000 OA
ENDROOT
BRANCH   1  11
ATOM      6  C   UNL     1       2.668   4.784  18.936  0.00  0.00    +0.000 A 
ATOM      7  C   UNL     1       1.510   4.191  19.472  0.00  0.00    +0.000 A 
ATOM      8  C   UNL     1       1.117   2.904  19.105  0.00  0.00    +0.000 A 
ATOM      9  C   UNL     1       1.871   2.186  18.183  0.00  0.00    +0.000 A 
ATOM     10  C   UNL     1       3.014   2.761  17.626  0.00  0.00    +0.000 A 
ATOM     11  C   UNL     1       3.423   4.056  17.996  0.00  0.00    +0.000 A 
BRANCH   6  12
ATOM     12  S   UNL     1       3.003   6.479  19.428  0.00  0.00    +0.000 S 
BRANCH  12  14
ATOM     13  C   UNL     1       1.874   8.764  18.411  0.00  0.00    +0.000 C 
ATOM     14  C   UNL     1       2.280   7.359  18.002  0.00  0.00    +0.000 C 
ENDBRANCH  12  14
ENDBRANCH   6  12
ENDBRANCH   1  11
BRANCH   3  15
ATOM     15  C   UNL     1       6.342   4.979  14.632  0.00  0.00    +0.000 A 
ATOM     16  C   UNL     1       7.466   5.398  13.908  0.00  0.00    +0.000 A 
ATOM     17  C   UNL     1       7.757   4.843  12.659  0.00  0.00    +0.000 A 
ATOM     18  C   UNL     1       6.924   3.866  12.117  0.00  0.00    +0.000 A 
ATOM     19  C   UNL     1       5.798   3.448  12.819  0.00  0.00    +0.000 A 
ATOM     20  C   UNL     1       5.507   4.000  14.067  0.00  0.00    +0.000 A 
ENDBRANCH   3  15
TORSDOF 4
ENDMDL
MODEL 5
REMARK VINA RESULT:      -6.6      1.842      6.029
REMARK  Name = 
REMARK  5 active torsions:
REMARK  status: ('A' for Active; 'I' for Inactive)
REMARK    1  A    between atoms: C_1  and  C_2
REMARK    2  A    between atoms: C_2  and  S_3
REMARK    3  A    between atoms: S_3  and  C_4
REMARK    4  A    between atoms: C_9  and  C_10
REMARK    5  A    between atoms: C_12  and  C_13
REMARK                            x       y       z     vdW  Elec       q    Type
REMARK                         _______ _______ _______ _____ _____    ______ ____
ROOT
ATOM      1  C   UNL     1       4.465   5.661  17.848  0.00  0.00    +0.000 C 
ATOM      2  N   UNL     1       4.633   5.320  19.090  0.00  0.00    +0.000 NA
ATOM      3  C   UNL     1       3.398   5.797  19.747  0.00  0.00    +0.000 C 
ATOM      4  C   UNL     1       2.759   6.715  18.712  0.00  0.00    +0.000 C 
ATOM      5  O   UNL     1       3.319   6.279  17.481  0.00  0.00    +0.000 OA
ENDROOT
BRANCH   1  11
ATOM      6  C   UNL     1       6.761   5.712  16.741  0.00  0.00    +0.000 A 
ATOM      7  C   UNL     1       7.553   5.316  15.648  0.00  0.00    +0.000 A 
ATOM      8  C   UNL     1       7.009   4.606  14.576  0.00  0.00    +0.000 A 
ATOM      9  C   UNL     1       5.661   4.269  14.583  0.00  0.00    +0.000 A 
ATOM     10  C   UNL     1       4.860   4.636  15.665  0.00  0.00    +0.000 A 
ATOM     11  C   UNL     1       5.398   5.359  16.747  0.00  0.00    +0.000 A 
BRANCH   6  12
ATOM     12  S   UNL     1       7.612   6.538  18.090  0.00  0.00    +0.000 S 
BRANCH  12  14
ATOM     13  C   UNL     1       8.490   9.128  18.322  0.00  0.00    +0.000 C 
ATOM     14  C   UNL     1       7.613   8.246  17.449  0.00  0.00    +0.000 C 
ENDBRANCH  12  14
ENDBRANCH   6  12
ENDBRANCH   1  11
BRANCH   3  15
ATOM     15  C   UNL     1       2.494   4.656  20.176  0.00  0.00    +0.000 A 
ATOM     16  C   UNL     1       1.554   4.130  19.279  0.00  0.00    +0.000 A 
ATOM     17  C   UNL     1       0.738   3.057  19.650  0.00  0.00    +0.000 A 
ATOM     18  C   UNL     1       0.849   2.503  20.924  0.00  0.00    +0.000 A 
ATOM     19  C   UNL     1       1.770   3.021  21.828  0.00  0.00    +0.000 A 
ATOM     20  C   UNL     1       2.586   4.090  21.459  0.00  0.00    +0.000 A 
ENDBRANCH   3  15
TORSDOF 4
ENDMDL
MODEL 6
REMARK VINA RESULT:      -6.5      1.009      1.021
REMARK  Name = 
REMARK  5 active torsions:
REMARK  status: ('A' for Active; 'I' for Inactive)
REMARK    1  A    between atoms: C_1  and  C_2
REMARK    2  A    between atoms: C_2  and  S_3
REMARK    3  A    between atoms: S_3  and  C_4
REMARK    4  A    between atoms: C_9  and  C_10
REMARK    5  A    between atoms: C_12  and  C_13
REMARK                            x       y       z     vdW  Elec       q    Type
REMARK                         _______ _______ _______ _____ _____    ______ ____
ROOT
ATOM      1  C   UNL     1       4.398   4.002  17.915  0.00  0.00    +0.000 C 
ATOM      2  N   UNL     1       5.572   3.905  18.462  0.00  0.00    +0.000 NA
ATOM      3  C   UNL     1       6.484   4.394  17.407  0.00  0.00    +0.000 C 
ATOM      4  C   UNL     1       5.618   4.422  16.153  0.00  0.00    +0.000 C 
ATOM      5  O   UNL     1       4.292   4.495  16.659  0.00  0.00    +0.000 OA
ENDROOT
BRANCH   1  11
ATOM      6  C   UNL     1       2.388   4.606  19.362  0.00  0.00    +0.000 A 
ATOM      7  C   UNL     1       1.152   4.196  19.896  0.00  0.00    +0.000 A 
ATOM      8  C   UNL     1       0.660   2.908  19.680  0.00  0.00    +0.000 A 
ATOM      9  C   UNL     1       1.390   2.007  18.915  0.00  0.00    +0.000 A 
ATOM     10  C   UNL     1       2.610   2.397  18.360  0.00  0.00    +0.000 A 
ATOM     11  C   UNL     1       3.119   3.691  18.579  0.00  0.00    +0.000 A 
BRANCH   6  12
ATOM     12  S   UNL     1       2.854   6.318  19.642  0.00  0.00    +0.000 S 
BRANCH  12  14
ATOM     13  C   UNL     1       1.362   8.353  20.720  0.00  0.00    +0.000 C 
ATOM     14  C   UNL     1       1.473   6.838  20.715  0.00  0.00    +0.000 C 
ENDBRANCH  12  14
ENDBRANCH   6  12
ENDBRANCH   1  11
BRANCH   3  15
ATOM     15  C   UNL     1       7.092   5.742  17.747  0.00  0.00    +0.000 A 
ATOM     16  C   UNL     1       7.883   5.886  18.894  0.00  0.00    +0.000 A 
ATOM     17  C   UNL     1       8.476   7.114  19.202  0.00  0.00    +0.000 A 
ATOM     18  C   UNL     1       8.280   8.213  18.368  0.00  0.00    +0.000 A 
ATOM     19  C   UNL     1       7.489   8.088  17.230  0.00  0.00    +0.000 A 
ATOM     20  C   UNL     1       6.898   6.862  16.922  0.00  0.00    +0.000 A 
ENDBRANCH   3  15
TORSDOF 4
ENDMDL
MODEL 7
REMARK VINA RESULT:      -6.5      1.855      5.950
REMARK  Name = 
REMARK  5 active torsions:
REMARK  status: ('A' for Active; 'I' for Inactive)
REMARK    1  A    between atoms: C_1  and  C_2
REMARK    2  A    between atoms: C_2  and  S_3
REMARK    3  A    between atoms: S_3  and  C_4
REMARK    4  A    between atoms: C_9  and  C_10
REMARK    5  A    between atoms: C_12  and  C_13
REMARK                            x       y       z     vdW  Elec       q    Type
REMARK                         _______ _______ _______ _____ _____    ______ ____
ROOT
ATOM      1  C   UNL     1       4.541   5.662  17.839  0.00  0.00    +0.000 C 
ATOM      2  N   UNL     1       4.716   5.264  19.062  0.00  0.00    +0.000 NA
ATOM      3  C   UNL     1       3.499   5.740  19.755  0.00  0.00    +0.000 C 
ATOM      4  C   UNL     1       2.870   6.717  18.769  0.00  0.00    +0.000 C 
ATOM      5  O   UNL     1       3.406   6.322  17.513  0.00  0.00    +0.000 OA
ENDROOT
BRANCH   1  11
ATOM      6  C   UNL     1       6.812   5.760  16.683  0.00  0.00    +0.000 A 
ATOM      7  C   UNL     1       7.585   5.388  15.567  0.00  0.00    +0.000 A 
ATOM      8  C   UNL     1       7.027   4.685  14.499  0.00  0.00    +0.000 A 
ATOM      9  C   UNL     1       5.684   4.329  14.530  0.00  0.00    +0.000 A 
ATOM     10  C   UNL     1       4.902   4.671  15.635  0.00  0.00    +0.000 A 
ATOM     11  C   UNL     1       5.454   5.387  16.713  0.00  0.00    +0.000 A 
BRANCH   6  12
ATOM     12  S   UNL     1       7.680   6.580  18.024  0.00  0.00    +0.000 S 
BRANCH  12  14
ATOM     13  C   UNL     1       8.474   9.193  18.292  0.00  0.00    +0.000 C 
ATOM     14  C   UNL     1       7.586   8.305  17.438  0.00  0.00    +0.000 C 
ENDBRANCH  12  14
ENDBRANCH   6  12
ENDBRANCH   1  11
BRANCH   3  15
ATOM     15  C   UNL     1       2.574   4.602  20.145  0.00  0.00    +0.000 A 
ATOM     16  C   UNL     1       2.601   4.091  21.450  0.00  0.00    +0.000 A 
ATOM     17  C   UNL     1       1.732   3.065  21.832  0.00  0.00    +0.000 A 
ATOM     18  C   UNL     1       0.828   2.536  20.912  0.00  0.00    +0.000 A 
ATOM     19  C   UNL     1       0.796   3.027  19.610  0.00  0.00    +0.000 A 
ATOM     20  C   UNL     1       1.663   4.051  19.228  0.00  0.00    +0.000 A 
ENDBRANCH   3  15
TORSDOF 4
ENDMDL
MODEL 8
REMARK VINA RESULT:      -6.4      2.160      4.161
REMARK  Name = 
REMARK  5 active torsions:
REMARK  status: ('A' for Active; 'I' for Inactive)
REMARK    1  A    between atoms: C_1  and  C_2
REMARK    2  A    between atoms: C_2  and  S_3
REMARK    3  A    between atoms: S_3  and  C_4
REMARK    4  A    between atoms: C_9  and  C_10
REMARK    5  A    between atoms: C_12  and  C_13
REMARK                            x       y       z     vdW  Elec       q    Type
REMARK                         _______ _______ _______ _____ _____    ______ ____
ROOT
ATOM      1  C   UNL     1       3.724   5.470  17.948  0.00  0.00    +0.000 C 
ATOM      2  N   UNL     1       5.020   5.408  17.912  0.00  0.00    +0.000 NA
ATOM      3  C   UNL     1       5.285   4.116  17.244  0.00  0.00    +0.000 C 
ATOM      4  C   UNL     1       3.936   3.406  17.265  0.00  0.00    +0.000 C 
ATOM      5  O   UNL     1       2.998   4.464  17.405  0.00  0.00    +0.000 OA
ENDROOT
BRANCH   1  11
ATOM      6  C   UNL     1       2.275   6.605  19.712  0.00  0.00    +0.000 A 
ATOM      7  C   UNL     1       1.602   7.774  20.112  0.00  0.00    +0.000 A 
ATOM      8  C   UNL     1       1.564   8.906  19.296  0.00  0.00    +0.000 A 
ATOM      9  C   UNL     1       2.211   8.894  18.066  0.00  0.00    +0.000 A 
ATOM     10  C   UNL     1       2.900   7.752  17.657  0.00  0.00    +0.000 A 
ATOM     11  C   UNL     1       2.937   6.603  18.469  0.00  0.00    +0.000 A 
BRANCH   6  12
ATOM     12  S   UNL     1       2.320   5.258  20.899  0.00  0.00    +0.000 S 
BRANCH  12  14
ATOM     13  C   UNL     1       1.354   2.770  20.265  0.00  0.00    +0.000 C 
ATOM     14  C   UNL     1       0.955   4.235  20.251  0.00  0.00    +0.000 C 
ENDBRANCH  12  14
ENDBRANCH   6  12
ENDBRANCH   1  11
BRANCH   3  15
ATOM     15  C   UNL     1       5.847   4.293  15.845  0.00  0.00    +0.000 A 
ATOM     16  C   UNL     1       6.981   5.090  15.641  0.00  0.00    +0.000 A 
ATOM     17  C   UNL     1       7.529   5.235  14.363  0.00  0.00    +0.000 A 
ATOM     18  C   UNL     1       6.946   4.588  13.275  0.00  0.00    +0.000 A 
ATOM     19  C   UNL     1       5.814   3.802  13.461  0.00  0.00    +0.000 A 
ATOM     20  C   UNL     1       5.267   3.655  14.736  0.00  0.00    +0.000 A 
ENDBRANCH   3  15
TORSDOF 4
ENDMDL
MODEL 9
REMARK VINA RESULT:      -6.4      1.144      1.194
REMARK  Name = 
REMARK  5 active torsions:
REMARK  status: ('A' for Active; 'I' for Inactive)
REMARK    1  A    between atoms: C_1  and  C_2
REMARK    2  A    between atoms: C_2  and  S_3
REMARK    3  A    between atoms: S_3  and  C_4
REMARK    4  A    between atoms: C_9  and  C_10
REMARK    5  A    between atoms: C_12  and  C_13
REMARK                            x       y       z     vdW  Elec       q    Type
REMARK                         _______ _______ _______ _____ _____    ______ ____
ROOT
ATOM      1  C   UNL     1       4.556   3.971  18.786  0.00  0.00    +0.000 C 
ATOM      2  N   UNL     1       5.764   4.113  19.241  0.00  0.00    +0.000 NA
ATOM      3  C   UNL     1       6.555   4.413  18.029  0.00  0.00    +0.000 C 
ATOM      4  C   UNL     1       5.618   4.063  16.879  0.00  0.00    +0.000 C 
ATOM      5  O   UNL     1       4.324   4.137  17.463  0.00  0.00    +0.000 OA
ENDROOT
BRANCH   1  11
ATOM      6  C   UNL     1       2.123   4.370  19.434  0.00  0.00    +0.000 A 
ATOM      7  C   UNL     1       1.043   3.994  20.253  0.00  0.00    +0.000 A 
ATOM      8  C   UNL     1       1.184   3.012  21.235  0.00  0.00    +0.000 A 
ATOM      9  C   UNL     1       2.408   2.377  21.408  0.00  0.00    +0.000 A 
ATOM     10  C   UNL     1       3.488   2.722  20.594  0.00  0.00    +0.000 A 
ATOM     11  C   UNL     1       3.358   3.717  19.607  0.00  0.00    +0.000 A 
BRANCH   6  12
ATOM     12  S   UNL     1       1.775   5.581  18.153  0.00  0.00    +0.000 S 
BRANCH  12  14
ATOM     13  C   UNL     1       2.588   8.189  17.893  0.00  0.00    +0.000 C 
ATOM     14  C   UNL     1       2.572   7.046  18.893  0.00  0.00    +0.000 C 
ENDBRANCH  12  14
ENDBRANCH   6  12
ENDBRANCH   1  11
BRANCH   3  15
ATOM     15  C   UNL     1       7.036   5.852  17.994  0.00  0.00    +0.000 A 
ATOM     16  C   UNL     1       8.012   6.288  18.900  0.00  0.00    +0.000 A 
ATOM     17  C   UNL     1       8.488   7.602  18.857  0.00  0.00    +0.000 A 
ATOM     18  C   UNL     1       7.988   8.495  17.911  0.00  0.00    +0.000 A 
ATOM     19  C   UNL     1       7.012   8.080  17.012  0.00  0.00    +0.000 A 
ATOM     20  C   UNL     1       6.537   6.769  17.053  0.00  0.00    +0.000 A 
ENDBRANCH   3  15
TORSDOF 4
ENDMDL
