MODEL 1
REMARK VINA RESULT:      -7.2      0.000      0.000
REMARK  Name = 
REMARK  6 active torsions:
REMARK  status: ('A' for Active; 'I' for Inactive)
REMARK    1  A    between atoms: C_1  and  C_2
REMARK    2  A    between atoms: C_2  and  N_3
REMARK    3  A    between atoms: C_2  and  C_4
REMARK    4  A    between atoms: C_4  and  N_5
REMARK    5  A    between atoms: N_5  and  C_6
REMARK    6  A    between atoms: C_8  and  C_9
REMARK                            x       y       z     vdW  Elec       q    Type
REMARK                         _______ _______ _______ _____ _____    ______ ____
ROOT
ATOM      1  C   UNL     1       4.435   4.631  19.176  0.00  0.00    +0.000 A 
ATOM      2  N   UNL     1       3.965   5.896  19.193  0.00  0.00    +0.000 NA
ATOM      3  C   UNL     1       2.646   6.121  19.023  0.00  0.00    +0.000 A 
ATOM      4  N   UNL     1       1.708   5.192  18.828  0.00  0.00    +0.000 NA
ATOM      5  C   UNL     1       2.162   3.920  18.818  0.00  0.00    +0.000 A 
ATOM      6  C   UNL     1       1.346   2.768  18.619  0.00  0.00    +0.000 A 
ATOM      7  C   UNL     1       2.076   1.602  18.657  0.00  0.00    +0.000 A 
ATOM      8  S   UNL     1       3.737   1.896  18.921  0.00  0.00    +0.000 S 
ATOM      9  C   UNL     1       3.502   3.601  18.990  0.00  0.00    +0.000 A 
ENDROOT
BRANCH   3  10
ATOM     10  C   UNL     1       2.221   7.523  18.992  0.00  0.00    +0.000 A 
ATOM     11  C   UNL     1       2.436   8.325  17.861  0.00  0.00    +0.000 A 
ATOM     12  C   UNL     1       2.002   9.641  17.865  0.00  0.00    +0.000 A 
ATOM     13  N   UNL     1       1.376  10.221  18.910  0.00  0.00    +0.000 NA
ATOM     14  C   UNL     1       1.183   9.438  20.000  0.00  0.00    +0.000 A 
ATOM     15  C   UNL     1       1.579   8.118  20.082  0.00  0.00    +0.000 A 
ATOM     16  F   UNL     1       1.359   7.448  21.222  0.00  0.00    +0.000 F 
ENDBRANCH   3  10
BRANCH   1  17
ATOM     17  N   UNL     1       5.807   4.381  19.294  0.00  0.00    +0.000 N 
ATOM     18  H   UNL     1       5.997   3.766  20.082  0.00  0.00    +0.000 HD
BRANCH  17  19
ATOM     19  C   UNL     1       6.674   5.561  19.221  0.00  0.00    +0.000 C 
BRANCH  19  21
ATOM     20  C   UNL     1       6.762   5.994  16.714  0.00  0.00    +0.000 C 
ATOM     21  C   UNL     1       7.542   5.508  17.932  0.00  0.00    +0.000 C 
BRANCH  21  22
ATOM     22  N   UNL     1       8.055   4.157  17.646  0.00  0.00    +0.000 NA
ATOM     23  H   UNL     1       8.957   4.040  18.109  0.00  0.00    +0.000 HD
ATOM     24  H   UNL     1       8.272   4.106  16.649  0.00  0.00    +0.000 HD
ENDBRANCH  21  22
ENDBRANCH  19  21
ENDBRANCH  17  19
ENDBRANCH   1  17
TORSDOF 5
ENDMDL
MODEL 2
REMARK VINA RESULT:      -7.1      0.910      1.026
REMARK  Name = 
REMARK  6 active torsions:
REMARK  status: ('A' for Active; 'I' for Inactive)
REMARK    1  A    between atoms: C_1  and  C_2
REMARK    2  A    between atoms: C_2  and  N_3
REMARK    3  A    between atoms: C_2  and  C_4
REMARK    4  A    between atoms: C_4  and  N_5
REMARK    5  A    between atoms: N_5  and  C_6
REMARK    6  A    between atoms: C_8  and  C_9
REMARK                            x       y       z     vdW  Elec       q    Type
REMARK                         _______ _______ _______ _____ _____    ______ ____
ROOT
ATOM      1  C   UNL     1       4.592   4.851  19.123  0.00  0.00    +0.000 A 
ATOM      2  N   UNL     1       4.065   6.094  19.123  0.00  0.00    +0.000 NA
ATOM      3  C   UNL     1       2.725   6.253  19.129  0.00  0.00    +0.000 A 
ATOM      4  N   UNL     1       1.817   5.275  19.130  0.00  0.00    +0.000 NA
ATOM      5  C   UNL     1       2.330   4.024  19.139  0.00  0.00    +0.000 A 
ATOM      6  C   UNL     1       1.553   2.829  19.134  0.00  0.00    +0.000 A 
ATOM      7  C   UNL     1       2.339   1.699  19.144  0.00  0.00    +0.000 A 
ATOM      8  S   UNL     1       4.004   2.079  19.150  0.00  0.00    +0.000 S 
ATOM      9  C   UNL     1       3.694   3.774  19.139  0.00  0.00    +0.000 A 
ENDROOT
BRANCH   3  10
ATOM     10  C   UNL     1       2.231   7.630  19.066  0.00  0.00    +0.000 A 
ATOM     11  C   UNL     1       2.414   8.419  17.920  0.00  0.00    +0.000 A 
ATOM     12  C   UNL     1       1.914   9.712  17.895  0.00  0.00    +0.000 A 
ATOM     13  N   UNL     1       1.250  10.279  18.923  0.00  0.00    +0.000 NA
ATOM     14  C   UNL     1       1.087   9.509  20.027  0.00  0.00    +0.000 A 
ATOM     15  C   UNL     1       1.549   8.212  20.138  0.00  0.00    +0.000 A 
ATOM     16  F   UNL     1       1.353   7.555  21.290  0.00  0.00    +0.000 F 
ENDBRANCH   3  10
BRANCH   1  17
ATOM     17  N   UNL     1       5.977   4.667  19.062  0.00  0.00    +0.000 N 
ATOM     18  H   UNL     1       6.456   5.303  19.695  0.00  0.00    +0.000 HD
BRANCH  17  19
ATOM     19  C   UNL     1       6.550   4.607  17.714  0.00  0.00    +0.000 C 
BRANCH  19  21
ATOM     20  C   UNL     1       7.880   6.598  18.576  0.00  0.00    +0.000 C 
ATOM     21  C   UNL     1       7.221   5.962  17.356  0.00  0.00    +0.000 C 
BRANCH  21  22
ATOM     22  N   UNL     1       6.273   6.933  16.781  0.00  0.00    +0.000 NA
ATOM     23  H   UNL     1       6.441   7.848  17.199  0.00  0.00    +0.000 HD
ATOM     24  H   UNL     1       5.333   6.679  17.091  0.00  0.00    +0.000 HD
ENDBRANCH  21  22
ENDBRANCH  19  21
ENDBRANCH  17  19
ENDBRANCH   1  17
TORSDOF 5
ENDMDL
MODEL 3
REMARK VINA RESULT:      -7.0      2.801      5.915
REMARK  Name = 
REMARK  6 active torsions:
REMARK  status: ('A' for Active; 'I' for Inactive)
REMARK    1  A    between atoms: C_1  and  C_2
REMARK    2  A    between atoms: C_2  and  N_3
REMARK    3  A    between atoms: C_2  and  C_4
REMARK    4  A    between atoms: C_4  and  N_5
REMARK    5  A    between atoms: N_5  and  C_6
REMARK    6  A    between atoms: C_8  and  C_9
REMARK                            x       y       z     vdW  Elec       q    Type
REMARK                         _______ _______ _______ _____ _____    ______ ____
ROOT
ATOM      1  C   UNL     1       2.677   6.318  19.732  0.00  0.00    +0.000 A 
ATOM      2  N   UNL     1       3.584   5.718  18.932  0.00  0.00    +0.000 NA
ATOM      3  C   UNL     1       3.985   6.330  17.799  0.00  0.00    +0.000 A 
ATOM      4  N   UNL     1       3.564   7.516  17.354  0.00  0.00    +0.000 NA
ATOM      5  C   UNL     1       2.662   8.133  18.149  0.00  0.00    +0.000 A 
ATOM      6  C   UNL     1       2.069   9.400  17.873  0.00  0.00    +0.000 A 
ATOM      7  C   UNL     1       1.185   9.783  18.856  0.00  0.00    +0.000 A 
ATOM      8  S   UNL     1       1.064   8.618  20.098  0.00  0.00    +0.000 S 
ATOM      9  C   UNL     1       2.202   7.575  19.333  0.00  0.00    +0.000 A 
ENDROOT
BRANCH   3  10
ATOM     10  C   UNL     1       4.924   5.589  16.953  0.00  0.00    +0.000 A 
ATOM     11  C   UNL     1       6.174   6.124  16.609  0.00  0.00    +0.000 A 
ATOM     12  C   UNL     1       7.041   5.382  15.822  0.00  0.00    +0.000 A 
ATOM     13  N   UNL     1       6.755   4.152  15.347  0.00  0.00    +0.000 NA
ATOM     14  C   UNL     1       5.541   3.651  15.678  0.00  0.00    +0.000 A 
ATOM     15  C   UNL     1       4.617   4.318  16.459  0.00  0.00    +0.000 A 
ATOM     16  F   UNL     1       3.435   3.734  16.701  0.00  0.00    +0.000 F 
ENDBRANCH   3  10
BRANCH   1  17
ATOM     17  N   UNL     1       2.209   5.673  20.882  0.00  0.00    +0.000 N 
ATOM     18  H   UNL     1       2.976   5.465  21.518  0.00  0.00    +0.000 HD
BRANCH  17  19
ATOM     19  C   UNL     1       1.289   4.556  20.653  0.00  0.00    +0.000 C 
BRANCH  19  21
ATOM     20  C   UNL     1       1.710   2.257  19.646  0.00  0.00    +0.000 C 
ATOM     21  C   UNL     1       2.041   3.204  20.796  0.00  0.00    +0.000 C 
BRANCH  21  22
ATOM     22  N   UNL     1       1.743   2.516  22.064  0.00  0.00    +0.000 NA
ATOM     23  H   UNL     1       2.479   2.728  22.738  0.00  0.00    +0.000 HD
ATOM     24  H   UNL     1       1.824   1.510  21.905  0.00  0.00    +0.000 HD
ENDBRANCH  21  22
ENDBRANCH  19  21
ENDBRANCH  17  19
ENDBRANCH   1  17
TORSDOF 5
ENDMDL
MODEL 4
REMARK VINA RESULT:      -7.0      2.679      5.824
REMARK  Name = 
REMARK  6 active torsions:
REMARK  status: ('A' for Active; 'I' for Inactive)
REMARK    1  A    between atoms: C_1  and  C_2
REMARK    2  A    between atoms: C_2  and  N_3
REMARK    3  A    between atoms: C_2  and  C_4
REMARK    4  A    between atoms: C_4  and  N_5
REMARK    5  A    between atoms: N_5  and  C_6
REMARK    6  A    between atoms: C_8  and  C_9
REMARK                            x       y       z     vdW  Elec       q    Type
REMARK                         _______ _______ _______ _____ _____    ______ ____
ROOT
ATOM      1  C   UNL     1       2.733   6.163  19.742  0.00  0.00    +0.000 A 
ATOM      2  N   UNL     1       3.748   5.649  19.015  0.00  0.00    +0.000 NA
ATOM      3  C   UNL     1       4.220   6.331  17.951  0.00  0.00    +0.000 A 
ATOM      4  N   UNL     1       3.776   7.510  17.511  0.00  0.00    +0.000 NA
ATOM      5  C   UNL     1       2.766   8.041  18.235  0.00  0.00    +0.000 A 
ATOM      6  C   UNL     1       2.129   9.284  17.948  0.00  0.00    +0.000 A 
ATOM      7  C   UNL     1       1.131   9.576  18.851  0.00  0.00    +0.000 A 
ATOM      8  S   UNL     1       0.958   8.354  20.030  0.00  0.00    +0.000 S 
ATOM      9  C   UNL     1       2.225   7.409  19.345  0.00  0.00    +0.000 A 
ENDROOT
BRANCH   3  10
ATOM     10  C   UNL     1       5.280   5.680  17.176  0.00  0.00    +0.000 A 
ATOM     11  C   UNL     1       5.168   5.509  15.788  0.00  0.00    +0.000 A 
ATOM     12  C   UNL     1       6.202   4.905  15.090  0.00  0.00    +0.000 A 
ATOM     13  N   UNL     1       7.334   4.454  15.668  0.00  0.00    +0.000 NA
ATOM     14  C   UNL     1       7.425   4.616  17.011  0.00  0.00    +0.000 A 
ATOM     15  C   UNL     1       6.447   5.210  17.784  0.00  0.00    +0.000 A 
ATOM     16  F   UNL     1       6.635   5.293  19.109  0.00  0.00    +0.000 F 
ENDBRANCH   3  10
BRANCH   1  17
ATOM     17  N   UNL     1       2.194   5.445  20.815  0.00  0.00    +0.000 N 
ATOM     18  H   UNL     1       2.929   5.005  21.363  0.00  0.00    +0.000 HD
BRANCH  17  19
ATOM     19  C   UNL     1       1.069   4.565  20.487  0.00  0.00    +0.000 C 
BRANCH  19  21
ATOM     20  C   UNL     1       2.436   2.768  21.662  0.00  0.00    +0.000 C 
ATOM     21  C   UNL     1       1.537   3.083  20.470  0.00  0.00    +0.000 C 
BRANCH  21  22
ATOM     22  N   UNL     1       2.260   2.727  19.236  0.00  0.00    +0.000 NA
ATOM     23  H   UNL     1       3.243   2.570  19.461  0.00  0.00    +0.000 HD
ATOM     24  H   UNL     1       2.266   3.547  18.626  0.00  0.00    +0.000 HD
ENDBRANCH  21  22
ENDBRANCH  19  21
ENDBRANCH  17  19
ENDBRANCH   1  17
TORSDOF 5
ENDMDL
MODEL 5
REMARK VINA RESULT:      -7.0      1.399      1.526
REMARK  Name = 
REMARK  6 active torsions:
REMARK  status: ('A' for Active; 'I' for Inactive)
REMARK    1  A    between atoms: C_1  and  C_2
REMARK    2  A    between atoms: C_2  and  N_3
REMARK    3  A    between atoms: C_2  and  C_4
REMARK    4  A    between atoms: C_4  and  N_5
REMARK    5  A    between atoms: N_5  and  C_6
REMARK    6  A    between atoms: C_8  and  C_9
REMARK                            x       y       z     vdW  Elec       q    Type
REMARK                         _______ _______ _______ _____ _____    ______ ____
ROOT
ATOM      1  C   UNL     1       4.276   5.007  19.046  0.00  0.00    +0.000 A 
ATOM      2  N   UNL     1       3.740   6.239  18.916  0.00  0.00    +0.000 NA
ATOM      3  C   UNL     1       2.593   6.540  19.559  0.00  0.00    +0.000 A 
ATOM      4  N   UNL     1       1.891   5.720  20.343  0.00  0.00    +0.000 NA
ATOM      5  C   UNL     1       2.420   4.485  20.490  0.00  0.00    +0.000 A 
ATOM      6  C   UNL     1       1.842   3.442  21.273  0.00  0.00    +0.000 A 
ATOM      7  C   UNL     1       2.597   2.291  21.241  0.00  0.00    +0.000 A 
ATOM      8  S   UNL     1       3.988   2.465  20.266  0.00  0.00    +0.000 S 
ATOM      9  C   UNL     1       3.598   4.095  19.869  0.00  0.00    +0.000 A 
ENDROOT
BRANCH   3  10
ATOM     10  C   UNL     1       2.041   7.876  19.319  0.00  0.00    +0.000 A 
ATOM     11  C   UNL     1       2.174   8.507  18.073  0.00  0.00    +0.000 A 
ATOM     12  C   UNL     1       1.621   9.763  17.881  0.00  0.00    +0.000 A 
ATOM     13  N   UNL     1       0.951  10.441  18.836  0.00  0.00    +0.000 NA
ATOM     14  C   UNL     1       0.837   9.824  20.038  0.00  0.00    +0.000 A 
ATOM     15  C   UNL     1       1.353   8.574  20.316  0.00  0.00    +0.000 A 
ATOM     16  F   UNL     1       1.203   8.073  21.550  0.00  0.00    +0.000 F 
ENDBRANCH   3  10
BRANCH   1  17
ATOM     17  N   UNL     1       5.434   4.659  18.344  0.00  0.00    +0.000 N 
ATOM     18  H   UNL     1       6.214   5.255  18.612  0.00  0.00    +0.000 HD
BRANCH  17  19
ATOM     19  C   UNL     1       5.271   4.486  16.898  0.00  0.00    +0.000 C 
BRANCH  19  21
ATOM     20  C   UNL     1       6.603   4.215  14.745  0.00  0.00    +0.000 C 
ATOM     21  C   UNL     1       6.616   4.762  16.170  0.00  0.00    +0.000 C 
BRANCH  21  22
ATOM     22  N   UNL     1       7.775   4.187  16.876  0.00  0.00    +0.000 NA
ATOM     23  H   UNL     1       7.596   4.210  17.881  0.00  0.00    +0.000 HD
ATOM     24  H   UNL     1       8.569   4.817  16.745  0.00  0.00    +0.000 HD
ENDBRANCH  21  22
ENDBRANCH  19  21
ENDBRANCH  17  19
ENDBRANCH   1  17
TORSDOF 5
ENDMDL
MODEL 6
REMARK VINA RESULT:      -6.9      1.062      1.474
REMARK  Name = 
REMARK  6 active torsions:
REMARK  status: ('A' for Active; 'I' for Inactive)
REMARK    1  A    between atoms: C_1  and  C_2
REMARK    2  A    between atoms: C_2  and  N_3
REMARK    3  A    between atoms: C_2  and  C_4
REMARK    4  A    between atoms: C_4  and  N_5
REMARK    5  A    between atoms: N_5  and  C_6
REMARK    6  A    between atoms: C_8  and  C_9
REMARK                            x       y       z     vdW  Elec       q    Type
REMARK                         _______ _______ _______ _____ _____    ______ ____
ROOT
ATOM      1  C   UNL     1       4.352   4.631  19.129  0.00  0.00    +0.000 A 
ATOM      2  N   UNL     1       3.895   5.900  19.186  0.00  0.00    +0.000 NA
ATOM      3  C   UNL     1       2.567   6.134  19.129  0.00  0.00    +0.000 A 
ATOM      4  N   UNL     1       1.610   5.213  19.013  0.00  0.00    +0.000 NA
ATOM      5  C   UNL     1       2.052   3.937  18.964  0.00  0.00    +0.000 A 
ATOM      6  C   UNL     1       1.214   2.791  18.834  0.00  0.00    +0.000 A 
ATOM      7  C   UNL     1       1.936   1.620  18.810  0.00  0.00    +0.000 A 
ATOM      8  S   UNL     1       3.616   1.902  18.933  0.00  0.00    +0.000 S 
ATOM      9  C   UNL     1       3.399   3.608  19.022  0.00  0.00    +0.000 A 
ENDROOT
BRANCH   3  10
ATOM     10  C   UNL     1       2.152   7.539  19.134  0.00  0.00    +0.000 A 
ATOM     11  C   UNL     1       1.500   8.103  20.241  0.00  0.00    +0.000 A 
ATOM     12  C   UNL     1       1.140   9.442  20.212  0.00  0.00    +0.000 A 
ATOM     13  N   UNL     1       1.376  10.259  19.165  0.00  0.00    +0.000 NA
ATOM     14  C   UNL     1       1.998   9.700  18.099  0.00  0.00    +0.000 A 
ATOM     15  C   UNL     1       2.394   8.378  18.042  0.00  0.00    +0.000 A 
ATOM     16  F   UNL     1       2.979   7.927  16.923  0.00  0.00    +0.000 F 
ENDBRANCH   3  10
BRANCH   1  17
ATOM     17  N   UNL     1       5.727   4.372  19.131  0.00  0.00    +0.000 N 
ATOM     18  H   UNL     1       5.942   3.557  19.701  0.00  0.00    +0.000 HD
BRANCH  17  19
ATOM     19  C   UNL     1       6.590   5.531  19.377  0.00  0.00    +0.000 C 
BRANCH  19  21
ATOM     20  C   UNL     1       7.336   6.844  17.329  0.00  0.00    +0.000 C 
ATOM     21  C   UNL     1       7.645   5.663  18.244  0.00  0.00    +0.000 C 
BRANCH  21  22
ATOM     22  N   UNL     1       7.748   4.449  17.415  0.00  0.00    +0.000 NA
ATOM     23  H   UNL     1       8.614   4.486  16.878  0.00  0.00    +0.000 HD
ATOM     24  H   UNL     1       7.008   4.484  16.710  0.00  0.00    +0.000 HD
ENDBRANCH  21  22
ENDBRANCH  19  21
ENDBRANCH  17  19
ENDBRANCH   1  17
TORSDOF 5
ENDMDL
MODEL 7
REMARK VINA RESULT:      -6.9      1.666      2.101
REMARK  Name = 
REMARK  6 active torsions:
REMARK  status: ('A' for Active; 'I' for Inactive)
REMARK    1  A    between atoms: C_1  and  C_2
REMARK    2  A    between atoms: C_2  and  N_3
REMARK    3  A    between atoms: C_2  and  C_4
REMARK    4  A    between atoms: C_4  and  N_5
REMARK    5  A    between atoms: N_5  and  C_6
REMARK    6  A    between atoms: C_8  and  C_9
REMARK                            x       y       z     vdW  Elec       q    Type
REMARK                         _______ _______ _______ _____ _____    ______ ____
ROOT
ATOM      1  C   UNL     1       3.742   5.271  18.586  0.00  0.00    +0.000 A 
ATOM      2  N   UNL     1       3.216   6.513  18.649  0.00  0.00    +0.000 NA
ATOM      3  C   UNL     1       2.341   6.819  19.628  0.00  0.00    +0.000 A 
ATOM      4  N   UNL     1       1.911   5.995  20.585  0.00  0.00    +0.000 NA
ATOM      5  C   UNL     1       2.435   4.751  20.541  0.00  0.00    +0.000 A 
ATOM      6  C   UNL     1       2.118   3.703  21.454  0.00  0.00    +0.000 A 
ATOM      7  C   UNL     1       2.800   2.542  21.169  0.00  0.00    +0.000 A 
ATOM      8  S   UNL     1       3.810   2.713  19.803  0.00  0.00    +0.000 S 
ATOM      9  C   UNL     1       3.345   4.355  19.571  0.00  0.00    +0.000 A 
ENDROOT
BRANCH   3  10
ATOM     10  C   UNL     1       1.767   8.167  19.593  0.00  0.00    +0.000 A 
ATOM     11  C   UNL     1       1.202   8.749  20.737  0.00  0.00    +0.000 A 
ATOM     12  C   UNL     1       0.687  10.034  20.666  0.00  0.00    +0.000 A 
ATOM     13  N   UNL     1       0.687  10.780  19.543  0.00  0.00    +0.000 NA
ATOM     14  C   UNL     1       1.227  10.203  18.442  0.00  0.00    +0.000 A 
ATOM     15  C   UNL     1       1.766   8.931  18.423  0.00  0.00    +0.000 A 
ATOM     16  F   UNL     1       2.250   8.453  17.268  0.00  0.00    +0.000 F 
ENDBRANCH   3  10
BRANCH   1  17
ATOM     17  N   UNL     1       4.609   4.919  17.546  0.00  0.00    +0.000 N 
ATOM     18  H   UNL     1       4.720   3.909  17.493  0.00  0.00    +0.000 HD
BRANCH  17  19
ATOM     19  C   UNL     1       5.863   5.674  17.483  0.00  0.00    +0.000 C 
BRANCH  19  21
ATOM     20  C   UNL     1       7.804   5.799  19.125  0.00  0.00    +0.000 C 
ATOM     21  C   UNL     1       6.996   4.891  18.203  0.00  0.00    +0.000 C 
BRANCH  21  22
ATOM     22  N   UNL     1       7.926   4.240  17.262  0.00  0.00    +0.000 NA
ATOM     23  H   UNL     1       7.570   3.312  17.033  0.00  0.00    +0.000 HD
ATOM     24  H   UNL     1       8.802   4.063  17.756  0.00  0.00    +0.000 HD
ENDBRANCH  21  22
ENDBRANCH  19  21
ENDBRANCH  17  19
ENDBRANCH   1  17
TORSDOF 5
ENDMDL
MODEL 8
REMARK VINA RESULT:      -6.9      2.836      5.899
REMARK  Name = 
REMARK  6 active torsions:
REMARK  status: ('A' for Active; 'I' for Inactive)
REMARK    1  A    between atoms: C_1  and  C_2
REMARK    2  A    between atoms: C_2  and  N_3
REMARK    3  A    between atoms: C_2  and  C_4
REMARK    4  A    between atoms: C_4  and  N_5
REMARK    5  A    between atoms: N_5  and  C_6
REMARK    6  A    between atoms: C_8  and  C_9
REMARK                            x       y       z     vdW  Elec       q    Type
REMARK                         _______ _______ _______ _____ _____    ______ ____
ROOT
ATOM      1  C   UNL     1       2.737   6.385  19.774  0.00  0.00    +0.000 A 
ATOM      2  N   UNL     1       3.665   5.799  18.987  0.00  0.00    +0.000 NA
ATOM      3  C   UNL     1       4.037   6.394  17.836  0.00  0.00    +0.000 A 
ATOM      4  N   UNL     1       3.569   7.549  17.360  0.00  0.00    +0.000 NA
ATOM      5  C   UNL     1       2.646   8.152  18.141  0.00  0.00    +0.000 A 
ATOM      6  C   UNL     1       2.002   9.387  17.832  0.00  0.00    +0.000 A 
ATOM      7  C   UNL     1       1.106   9.763  18.807  0.00  0.00    +0.000 A 
ATOM      8  S   UNL     1       1.035   8.629  20.081  0.00  0.00    +0.000 S 
ATOM      9  C   UNL     1       2.211   7.611  19.342  0.00  0.00    +0.000 A 
ENDROOT
BRANCH   3  10
ATOM     10  C   UNL     1       5.002   5.667  17.007  0.00  0.00    +0.000 A 
ATOM     11  C   UNL     1       4.680   4.431  16.427  0.00  0.00    +0.000 A 
ATOM     12  C   UNL     1       5.616   3.785  15.634  0.00  0.00    +0.000 A 
ATOM     13  N   UNL     1       6.848   4.272  15.380  0.00  0.00    +0.000 NA
ATOM     14  C   UNL     1       7.149   5.463  15.954  0.00  0.00    +0.000 A 
ATOM     15  C   UNL     1       6.279   6.177  16.754  0.00  0.00    +0.000 A 
ATOM     16  F   UNL     1       6.696   7.332  17.290  0.00  0.00    +0.000 F 
ENDBRANCH   3  10
BRANCH   1  17
ATOM     17  N   UNL     1       2.298   5.755  20.944  0.00  0.00    +0.000 N 
ATOM     18  H   UNL     1       3.071   5.609  21.589  0.00  0.00    +0.000 HD
BRANCH  17  19
ATOM     19  C   UNL     1       1.439   4.584  20.749  0.00  0.00    +0.000 C 
BRANCH  19  21
ATOM     20  C   UNL     1       1.740   2.250  19.778  0.00  0.00    +0.000 C 
ATOM     21  C   UNL     1       2.294   3.286  20.752  0.00  0.00    +0.000 C 
BRANCH  21  22
ATOM     22  N   UNL     1       2.383   2.666  22.086  0.00  0.00    +0.000 NA
ATOM     23  H   UNL     1       2.724   1.709  21.986  0.00  0.00    +0.000 HD
ATOM     24  H   UNL     1       1.434   2.562  22.451  0.00  0.00    +0.000 HD
ENDBRANCH  21  22
ENDBRANCH  19  21
ENDBRANCH  17  19
ENDBRANCH   1  17
TORSDOF 5
ENDMDL
MODEL 9
REMARK VINA RESULT:      -6.9      2.269      4.195
REMARK  Name = 
REMARK  6 active torsions:
REMARK  status: ('A' for Active; 'I' for Inactive)
REMARK    1  A    between atoms: C_1  and  C_2
REMARK    2  A    between atoms: C_2  and  N_3
REMARK    3  A    between atoms: C_2  and  C_4
REMARK    4  A    between atoms: C_4  and  N_5
REMARK    5  A    between atoms: N_5  and  C_6
REMARK    6  A    between atoms: C_8  and  C_9
REMARK                            x       y       z     vdW  Elec       q    Type
REMARK                         _______ _______ _______ _____ _____    ______ ____
ROOT
ATOM      1  C   UNL     1       3.278   4.457  17.377  0.00  0.00    +0.000 A 
ATOM      2  N   UNL     1       2.569   5.390  18.048  0.00  0.00    +0.000 NA
ATOM      3  C   UNL     1       3.085   6.625  18.219  0.00  0.00    +0.000 A 
ATOM      4  N   UNL     1       4.272   7.050  17.784  0.00  0.00    +0.000 NA
ATOM      5  C   UNL     1       4.989   6.129  17.102  0.00  0.00    +0.000 A 
ATOM      6  C   UNL     1       6.285   6.354  16.552  0.00  0.00    +0.000 A 
ATOM      7  C   UNL     1       6.777   5.240  15.911  0.00  0.00    +0.000 A 
ATOM      8  S   UNL     1       5.686   3.928  15.981  0.00  0.00    +0.000 S 
ATOM      9  C   UNL     1       4.531   4.839  16.877  0.00  0.00    +0.000 A 
ENDROOT
BRANCH   3  10
ATOM     10  C   UNL     1       2.284   7.563  19.011  0.00  0.00    +0.000 A 
ATOM     11  C   UNL     1       1.960   7.296  20.349  0.00  0.00    +0.000 A 
ATOM     12  C   UNL     1       1.217   8.218  21.069  0.00  0.00    +0.000 A 
ATOM     13  N   UNL     1       0.767   9.382  20.556  0.00  0.00    +0.000 NA
ATOM     14  C   UNL     1       1.079   9.624  19.259  0.00  0.00    +0.000 A 
ATOM     15  C   UNL     1       1.817   8.764  18.470  0.00  0.00    +0.000 A 
ATOM     16  F   UNL     1       2.042   9.096  17.191  0.00  0.00    +0.000 F 
ENDBRANCH   3  10
BRANCH   1  17
ATOM     17  N   UNL     1       2.784   3.156  17.237  0.00  0.00    +0.000 N 
ATOM     18  H   UNL     1       1.784   3.166  17.047  0.00  0.00    +0.000 HD
BRANCH  17  19
ATOM     19  C   UNL     1       3.196   2.207  18.275  0.00  0.00    +0.000 C 
BRANCH  19  21
ATOM     20  C   UNL     1       0.716   2.336  18.834  0.00  0.00    +0.000 C 
ATOM     21  C   UNL     1       2.121   2.138  19.395  0.00  0.00    +0.000 C 
BRANCH  21  22
ATOM     22  N   UNL     1       2.341   3.134  20.458  0.00  0.00    +0.000 NA
ATOM     23  H   UNL     1       2.888   2.706  21.206  0.00  0.00    +0.000 HD
ATOM     24  H   UNL     1       1.438   3.340  20.890  0.00  0.00    +0.000 HD
ENDBRANCH  21  22
ENDBRANCH  19  21
ENDBRANCH  17  19
ENDBRANCH   1  17
TORSDOF 5
ENDMDL
