MODEL 1
REMARK VINA RESULT:      -7.2      0.000      0.000
REMARK  Name = 
REMARK  2 active torsions:
REMARK  status: ('A' for Active; 'I' for Inactive)
REMARK    1  A    between atoms: C_1  and  N_2
REMARK    2  A    between atoms: C_5  and  C_7
REMARK                            x       y       z     vdW  Elec       q    Type
REMARK                         _______ _______ _______ _____ _____    ______ ____
ROOT
ATOM      1  C   UNL     1       3.710   1.427  17.922  0.00  0.00    +0.000 C 
ATOM      2  N   UNL     1       3.637   2.843  18.186  0.00  0.00    +0.000 N 
ATOM      3  C   UNL     1       4.147   3.887  17.434  0.00  0.00    +0.000 A 
ATOM      4  N   UNL     1       4.873   3.733  16.264  0.00  0.00    +0.000 N 
ATOM      5  C   UNL     1       5.280   4.846  15.542  0.00  0.00    +0.000 C 
ATOM      6  O   UNL     1       5.016   6.021  15.774  0.00  0.00    +0.000 OA
ATOM      7  N   UNL     1       3.841   5.033  18.003  0.00  0.00    +0.000 NA
ATOM      8  C   UNL     1       3.123   4.744  19.124  0.00  0.00    +0.000 A 
ATOM      9  C   UNL     1       2.551   5.615  20.060  0.00  0.00    +0.000 A 
ATOM     10  C   UNL     1       1.848   5.072  21.141  0.00  0.00    +0.000 A 
ATOM     11  C   UNL     1       1.729   3.689  21.289  0.00  0.00    +0.000 A 
ATOM     12  C   UNL     1       2.299   2.805  20.363  0.00  0.00    +0.000 A 
ATOM     13  C   UNL     1       2.986   3.373  19.282  0.00  0.00    +0.000 A 
ATOM     14  H   UNL     1       5.053   2.808  15.910  0.00  0.00    +0.000 HD
ENDROOT
BRANCH   5  15
ATOM     15  C   UNL     1       6.105   4.589  14.331  0.00  0.00    +0.000 A 
ATOM     16  C   UNL     1       5.619   3.665  13.399  0.00  0.00    +0.000 A 
ATOM     17  C   UNL     1       6.324   3.481  12.226  0.00  0.00    +0.000 A 
ATOM     18  N   UNL     1       7.460   4.148  11.932  0.00  0.00    +0.000 NA
ATOM     19  C   UNL     1       7.899   5.047  12.840  0.00  0.00    +0.000 A 
ATOM     20  C   UNL     1       7.268   5.302  14.047  0.00  0.00    +0.000 A 
ENDBRANCH   5  15
TORSDOF 1
ENDMDL
MODEL 2
REMARK VINA RESULT:      -7.1      1.657      7.229
REMARK  Name = 
REMARK  2 active torsions:
REMARK  status: ('A' for Active; 'I' for Inactive)
REMARK    1  A    between atoms: C_1  and  N_2
REMARK    2  A    between atoms: C_5  and  C_7
REMARK                            x       y       z     vdW  Elec       q    Type
REMARK                         _______ _______ _______ _____ _____    ______ ____
ROOT
ATOM      1  C   UNL     1       7.157   6.177  16.908  0.00  0.00    +0.000 C 
ATOM      2  N   UNL     1       6.443   5.235  16.082  0.00  0.00    +0.000 N 
ATOM      3  C   UNL     1       5.342   4.464  16.410  0.00  0.00    +0.000 A 
ATOM      4  N   UNL     1       4.735   4.447  17.655  0.00  0.00    +0.000 N 
ATOM      5  C   UNL     1       3.588   3.694  17.864  0.00  0.00    +0.000 C 
ATOM      6  O   UNL     1       2.959   3.049  17.032  0.00  0.00    +0.000 OA
ATOM      7  N   UNL     1       4.972   3.755  15.366  0.00  0.00    +0.000 NA
ATOM      8  C   UNL     1       5.823   4.065  14.349  0.00  0.00    +0.000 A 
ATOM      9  C   UNL     1       5.839   3.593  13.029  0.00  0.00    +0.000 A 
ATOM     10  C   UNL     1       6.825   4.068  12.158  0.00  0.00    +0.000 A 
ATOM     11  C   UNL     1       7.781   4.986  12.598  0.00  0.00    +0.000 A 
ATOM     12  C   UNL     1       7.780   5.463  13.916  0.00  0.00    +0.000 A 
ATOM     13  C   UNL     1       6.775   4.984  14.766  0.00  0.00    +0.000 A 
ATOM     14  H   UNL     1       5.096   5.032  18.390  0.00  0.00    +0.000 HD
ENDROOT
BRANCH   5  15
ATOM     15  C   UNL     1       3.038   3.689  19.247  0.00  0.00    +0.000 A 
ATOM     16  C   UNL     1       3.216   2.530  20.010  0.00  0.00    +0.000 A 
ATOM     17  C   UNL     1       2.794   2.538  21.325  0.00  0.00    +0.000 A 
ATOM     18  N   UNL     1       2.217   3.607  21.912  0.00  0.00    +0.000 NA
ATOM     19  C   UNL     1       2.071   4.719  21.158  0.00  0.00    +0.000 A 
ATOM     20  C   UNL     1       2.458   4.812  19.830  0.00  0.00    +0.000 A 
ENDBRANCH   5  15
TORSDOF 1
ENDMDL
MODEL 3
REMARK VINA RESULT:      -7.1      1.698      7.268
REMARK  Name = 
REMARK  2 active torsions:
REMARK  status: ('A' for Active; 'I' for Inactive)
REMARK    1  A    between atoms: C_1  and  N_2
REMARK    2  A    between atoms: C_5  and  C_7
REMARK                            x       y       z     vdW  Elec       q    Type
REMARK                         _______ _______ _______ _____ _____    ______ ____
ROOT
ATOM      1  C   UNL     1       7.198   6.185  16.894  0.00  0.00    +0.000 C 
ATOM      2  N   UNL     1       6.501   5.221  16.078  0.00  0.00    +0.000 N 
ATOM      3  C   UNL     1       5.433   4.412  16.424  0.00  0.00    +0.000 A 
ATOM      4  N   UNL     1       4.850   4.371  17.680  0.00  0.00    +0.000 N 
ATOM      5  C   UNL     1       3.735   3.579  17.909  0.00  0.00    +0.000 C 
ATOM      6  O   UNL     1       3.112   2.915  17.087  0.00  0.00    +0.000 OA
ATOM      7  N   UNL     1       5.067   3.693  15.385  0.00  0.00    +0.000 NA
ATOM      8  C   UNL     1       5.888   4.035  14.353  0.00  0.00    +0.000 A 
ATOM      9  C   UNL     1       5.895   3.568  13.032  0.00  0.00    +0.000 A 
ATOM     10  C   UNL     1       6.847   4.079  12.144  0.00  0.00    +0.000 A 
ATOM     11  C   UNL     1       7.779   5.028  12.569  0.00  0.00    +0.000 A 
ATOM     12  C   UNL     1       7.788   5.501  13.888  0.00  0.00    +0.000 A 
ATOM     13  C   UNL     1       6.816   4.985  14.755  0.00  0.00    +0.000 A 
ATOM     14  H   UNL     1       5.205   4.965  18.411  0.00  0.00    +0.000 HD
ENDROOT
BRANCH   5  15
ATOM     15  C   UNL     1       3.211   3.550  19.302  0.00  0.00    +0.000 A 
ATOM     16  C   UNL     1       2.248   4.503  19.652  0.00  0.00    +0.000 A 
ATOM     17  C   UNL     1       1.684   4.435  20.910  0.00  0.00    +0.000 A 
ATOM     18  N   UNL     1       2.014   3.495  21.821  0.00  0.00    +0.000 NA
ATOM     19  C   UNL     1       2.934   2.578  21.453  0.00  0.00    +0.000 A 
ATOM     20  C   UNL     1       3.562   2.560  20.217  0.00  0.00    +0.000 A 
ENDBRANCH   5  15
TORSDOF 1
ENDMDL
MODEL 4
REMARK VINA RESULT:      -7.0      4.151      6.156
REMARK  Name = 
REMARK  2 active torsions:
REMARK  status: ('A' for Active; 'I' for Inactive)
REMARK    1  A    between atoms: C_1  and  N_2
REMARK    2  A    between atoms: C_5  and  C_7
REMARK                            x       y       z     vdW  Elec       q    Type
REMARK                         _______ _______ _______ _____ _____    ______ ____
ROOT
ATOM      1  C   UNL     1       1.438  10.544  18.445  0.00  0.00    +0.000 C 
ATOM      2  N   UNL     1       1.191   9.677  19.571  0.00  0.00    +0.000 N 
ATOM      3  C   UNL     1       1.614   8.373  19.763  0.00  0.00    +0.000 A 
ATOM      4  N   UNL     1       2.352   7.641  18.847  0.00  0.00    +0.000 N 
ATOM      5  C   UNL     1       2.791   6.364  19.163  0.00  0.00    +0.000 C 
ATOM      6  O   UNL     1       2.664   5.776  20.232  0.00  0.00    +0.000 OA
ATOM      7  N   UNL     1       1.203   7.943  20.937  0.00  0.00    +0.000 NA
ATOM      8  C   UNL     1       0.519   8.966  21.520  0.00  0.00    +0.000 A 
ATOM      9  C   UNL     1      -0.098   9.018  22.778  0.00  0.00    +0.000 A 
ATOM     10  C   UNL     1      -0.746  10.197  23.159  0.00  0.00    +0.000 A 
ATOM     11  C   UNL     1      -0.787  11.297  22.300  0.00  0.00    +0.000 A 
ATOM     12  C   UNL     1      -0.179  11.258  21.038  0.00  0.00    +0.000 A 
ATOM     13  C   UNL     1       0.476  10.072  20.684  0.00  0.00    +0.000 A 
ATOM     14  H   UNL     1       2.619   8.065  17.974  0.00  0.00    +0.000 HD
ENDROOT
BRANCH   5  15
ATOM     15  C   UNL     1       3.526   5.629  18.098  0.00  0.00    +0.000 A 
ATOM     16  C   UNL     1       4.362   6.371  17.258  0.00  0.00    +0.000 A 
ATOM     17  C   UNL     1       5.123   5.695  16.324  0.00  0.00    +0.000 A 
ATOM     18  N   UNL     1       5.099   4.354  16.179  0.00  0.00    +0.000 NA
ATOM     19  C   UNL     1       4.295   3.659  17.014  0.00  0.00    +0.000 A 
ATOM     20  C   UNL     1       3.491   4.241  17.981  0.00  0.00    +0.000 A 
ENDBRANCH   5  15
TORSDOF 1
ENDMDL
MODEL 5
REMARK VINA RESULT:      -7.0      4.308      6.296
REMARK  Name = 
REMARK  2 active torsions:
REMARK  status: ('A' for Active; 'I' for Inactive)
REMARK    1  A    between atoms: C_1  and  N_2
REMARK    2  A    between atoms: C_5  and  C_7
REMARK                            x       y       z     vdW  Elec       q    Type
REMARK                         _______ _______ _______ _____ _____    ______ ____
ROOT
ATOM      1  C   UNL     1       1.416  10.674  18.543  0.00  0.00    +0.000 C 
ATOM      2  N   UNL     1       1.111   9.818  19.663  0.00  0.00    +0.000 N 
ATOM      3  C   UNL     1       1.502   8.508  19.877  0.00  0.00    +0.000 A 
ATOM      4  N   UNL     1       2.259   7.758  18.992  0.00  0.00    +0.000 N 
ATOM      5  C   UNL     1       2.663   6.474  19.329  0.00  0.00    +0.000 C 
ATOM      6  O   UNL     1       2.485   5.894  20.395  0.00  0.00    +0.000 OA
ATOM      7  N   UNL     1       1.041   8.092  21.036  0.00  0.00    +0.000 NA
ATOM      8  C   UNL     1       0.354   9.130  21.589  0.00  0.00    +0.000 A 
ATOM      9  C   UNL     1      -0.307   9.199  22.823  0.00  0.00    +0.000 A 
ATOM     10  C   UNL     1      -0.947  10.392  23.175  0.00  0.00    +0.000 A 
ATOM     11  C   UNL     1      -0.935  11.488  22.310  0.00  0.00    +0.000 A 
ATOM     12  C   UNL     1      -0.282  11.432  21.071  0.00  0.00    +0.000 A 
ATOM     13  C   UNL     1       0.363  10.232  20.747  0.00  0.00    +0.000 A 
ATOM     14  H   UNL     1       2.566   8.172  18.127  0.00  0.00    +0.000 HD
ENDROOT
BRANCH   5  15
ATOM     15  C   UNL     1       3.423   5.720  18.295  0.00  0.00    +0.000 A 
ATOM     16  C   UNL     1       3.059   4.389  18.066  0.00  0.00    +0.000 A 
ATOM     17  C   UNL     1       3.690   3.701  17.048  0.00  0.00    +0.000 A 
ATOM     18  N   UNL     1       4.641   4.248  16.263  0.00  0.00    +0.000 NA
ATOM     19  C   UNL     1       4.963   5.540  16.494  0.00  0.00    +0.000 A 
ATOM     20  C   UNL     1       4.392   6.315  17.491  0.00  0.00    +0.000 A 
ENDBRANCH   5  15
TORSDOF 1
ENDMDL
MODEL 6
REMARK VINA RESULT:      -6.9      3.945      8.004
REMARK  Name = 
REMARK  2 active torsions:
REMARK  status: ('A' for Active; 'I' for Inactive)
REMARK    1  A    between atoms: C_1  and  N_2
REMARK    2  A    between atoms: C_5  and  C_7
REMARK                            x       y       z     vdW  Elec       q    Type
REMARK                         _______ _______ _______ _____ _____    ______ ____
ROOT
ATOM      1  C   UNL     1       2.207   4.223  21.529  0.00  0.00    +0.000 C 
ATOM      2  N   UNL     1       2.497   4.872  20.273  0.00  0.00    +0.000 N 
ATOM      3  C   UNL     1       2.241   6.180  19.901  0.00  0.00    +0.000 A 
ATOM      4  N   UNL     1       1.607   7.117  20.701  0.00  0.00    +0.000 N 
ATOM      5  C   UNL     1       1.463   8.426  20.266  0.00  0.00    +0.000 C 
ATOM      6  O   UNL     1       1.901   8.919  19.232  0.00  0.00    +0.000 OA
ATOM      7  N   UNL     1       2.686   6.388  18.681  0.00  0.00    +0.000 NA
ATOM      8  C   UNL     1       3.242   5.220  18.253  0.00  0.00    +0.000 A 
ATOM      9  C   UNL     1       3.868   4.930  17.034  0.00  0.00    +0.000 A 
ATOM     10  C   UNL     1       4.368   3.640  16.826  0.00  0.00    +0.000 A 
ATOM     11  C   UNL     1       4.237   2.659  17.811  0.00  0.00    +0.000 A 
ATOM     12  C   UNL     1       3.608   2.934  19.034  0.00  0.00    +0.000 A 
ATOM     13  C   UNL     1       3.128   4.236  19.224  0.00  0.00    +0.000 A 
ATOM     14  H   UNL     1       1.305   6.856  21.626  0.00  0.00    +0.000 HD
ENDROOT
BRANCH   5  15
ATOM     15  C   UNL     1       0.717   9.349  21.164  0.00  0.00    +0.000 A 
ATOM     16  C   UNL     1       0.318   8.858  22.411  0.00  0.00    +0.000 A 
ATOM     17  C   UNL     1      -0.293   9.726  23.295  0.00  0.00    +0.000 A 
ATOM     18  N   UNL     1      -0.526  11.025  23.015  0.00  0.00    +0.000 NA
ATOM     19  C   UNL     1      -0.117  11.479  21.810  0.00  0.00    +0.000 A 
ATOM     20  C   UNL     1       0.501  10.690  20.853  0.00  0.00    +0.000 A 
ENDBRANCH   5  15
TORSDOF 1
ENDMDL
MODEL 7
REMARK VINA RESULT:      -6.9      3.942      8.023
REMARK  Name = 
REMARK  2 active torsions:
REMARK  status: ('A' for Active; 'I' for Inactive)
REMARK    1  A    between atoms: C_1  and  N_2
REMARK    2  A    between atoms: C_5  and  C_7
REMARK                            x       y       z     vdW  Elec       q    Type
REMARK                         _______ _______ _______ _____ _____    ______ ____
ROOT
ATOM      1  C   UNL     1       2.208   4.139  21.623  0.00  0.00    +0.000 C 
ATOM      2  N   UNL     1       2.471   4.781  20.358  0.00  0.00    +0.000 N 
ATOM      3  C   UNL     1       2.237   6.096  19.995  0.00  0.00    +0.000 A 
ATOM      4  N   UNL     1       1.657   7.048  20.817  0.00  0.00    +0.000 N 
ATOM      5  C   UNL     1       1.532   8.361  20.386  0.00  0.00    +0.000 C 
ATOM      6  O   UNL     1       1.946   8.843  19.337  0.00  0.00    +0.000 OA
ATOM      7  N   UNL     1       2.644   6.293  18.760  0.00  0.00    +0.000 NA
ATOM      8  C   UNL     1       3.153   5.111  18.313  0.00  0.00    +0.000 A 
ATOM      9  C   UNL     1       3.728   4.804  17.073  0.00  0.00    +0.000 A 
ATOM     10  C   UNL     1       4.186   3.502  16.848  0.00  0.00    +0.000 A 
ATOM     11  C   UNL     1       4.063   2.524  17.837  0.00  0.00    +0.000 A 
ATOM     12  C   UNL     1       3.486   2.814  19.081  0.00  0.00    +0.000 A 
ATOM     13  C   UNL     1       3.048   4.129  19.287  0.00  0.00    +0.000 A 
ATOM     14  H   UNL     1       1.380   6.795  21.751  0.00  0.00    +0.000 HD
ENDROOT
BRANCH   5  15
ATOM     15  C   UNL     1       0.843   9.303  21.309  0.00  0.00    +0.000 A 
ATOM     16  C   UNL     1       0.727  10.637  20.905  0.00  0.00    +0.000 A 
ATOM     17  C   UNL     1       0.011  11.506  21.706  0.00  0.00    +0.000 A 
ATOM     18  N   UNL     1      -0.581  11.134  22.859  0.00  0.00    +0.000 NA
ATOM     19  C   UNL     1      -0.468   9.837  23.219  0.00  0.00    +0.000 A 
ATOM     20  C   UNL     1       0.230   8.887  22.489  0.00  0.00    +0.000 A 
ENDBRANCH   5  15
TORSDOF 1
ENDMDL
MODEL 8
REMARK VINA RESULT:      -6.8      6.150      7.544
REMARK  Name = 
REMARK  2 active torsions:
REMARK  status: ('A' for Active; 'I' for Inactive)
REMARK    1  A    between atoms: C_1  and  N_2
REMARK    2  A    between atoms: C_5  and  C_7
REMARK                            x       y       z     vdW  Elec       q    Type
REMARK                         _______ _______ _______ _____ _____    ______ ____
ROOT
ATOM      1  C   UNL     1       8.342   5.503  19.676  0.00  0.00    +0.000 C 
ATOM      2  N   UNL     1       7.656   6.206  18.620  0.00  0.00    +0.000 N 
ATOM      3  C   UNL     1       7.786   7.531  18.241  0.00  0.00    +0.000 A 
ATOM      4  N   UNL     1       8.614   8.450  18.864  0.00  0.00    +0.000 N 
ATOM      5  C   UNL     1       8.731   9.739  18.363  0.00  0.00    +0.000 C 
ATOM      6  O   UNL     1       8.220  10.190  17.343  0.00  0.00    +0.000 OA
ATOM      7  N   UNL     1       7.005   7.775  17.211  0.00  0.00    +0.000 NA
ATOM      8  C   UNL     1       6.367   6.610  16.908  0.00  0.00    +0.000 A 
ATOM      9  C   UNL     1       5.447   6.343  15.885  0.00  0.00    +0.000 A 
ATOM     10  C   UNL     1       4.925   5.050  15.773  0.00  0.00    +0.000 A 
ATOM     11  C   UNL     1       5.305   4.049  16.669  0.00  0.00    +0.000 A 
ATOM     12  C   UNL     1       6.220   4.303  17.700  0.00  0.00    +0.000 A 
ATOM     13  C   UNL     1       6.740   5.601  17.783  0.00  0.00    +0.000 A 
ATOM     14  H   UNL     1       9.176   8.161  19.647  0.00  0.00    +0.000 HD
ENDROOT
BRANCH   5  15
ATOM     15  C   UNL     1       9.596  10.676  19.129  0.00  0.00    +0.000 A 
ATOM     16  C   UNL     1      10.604  11.346  18.428  0.00  0.00    +0.000 A 
ATOM     17  C   UNL     1      11.358  12.288  19.101  0.00  0.00    +0.000 A 
ATOM     18  N   UNL     1      11.171  12.595  20.402  0.00  0.00    +0.000 NA
ATOM     19  C   UNL     1      10.180  11.946  21.051  0.00  0.00    +0.000 A 
ATOM     20  C   UNL     1       9.372  10.982  20.469  0.00  0.00    +0.000 A 
ENDBRANCH   5  15
TORSDOF 1
ENDMDL
MODEL 9
REMARK VINA RESULT:      -6.8      0.191      1.098
REMARK  Name = 
REMARK  2 active torsions:
REMARK  status: ('A' for Active; 'I' for Inactive)
REMARK    1  A    between atoms: C_1  and  N_2
REMARK    2  A    between atoms: C_5  and  C_7
REMARK                            x       y       z     vdW  Elec       q    Type
REMARK                         _______ _______ _______ _____ _____    ______ ____
ROOT
ATOM      1  C   UNL     1       3.725   1.344  17.916  0.00  0.00    +0.000 C 
ATOM      2  N   UNL     1       3.680   2.751  18.228  0.00  0.00    +0.000 N 
ATOM      3  C   UNL     1       4.151   3.815  17.478  0.00  0.00    +0.000 A 
ATOM      4  N   UNL     1       4.802   3.694  16.262  0.00  0.00    +0.000 N 
ATOM      5  C   UNL     1       5.172   4.826  15.550  0.00  0.00    +0.000 C 
ATOM      6  O   UNL     1       4.933   5.994  15.834  0.00  0.00    +0.000 OA
ATOM      7  N   UNL     1       3.890   4.944  18.100  0.00  0.00    +0.000 NA
ATOM      8  C   UNL     1       3.240   4.625  19.254  0.00  0.00    +0.000 A 
ATOM      9  C   UNL     1       2.734   5.470  20.251  0.00  0.00    +0.000 A 
ATOM     10  C   UNL     1       2.095   4.898  21.356  0.00  0.00    +0.000 A 
ATOM     11  C   UNL     1       1.974   3.511  21.468  0.00  0.00    +0.000 A 
ATOM     12  C   UNL     1       2.479   2.654  20.481  0.00  0.00    +0.000 A 
ATOM     13  C   UNL     1       3.102   3.250  19.378  0.00  0.00    +0.000 A 
ATOM     14  H   UNL     1       4.952   2.779  15.868  0.00  0.00    +0.000 HD
ENDROOT
BRANCH   5  15
ATOM     15  C   UNL     1       5.919   4.602  14.283  0.00  0.00    +0.000 A 
ATOM     16  C   UNL     1       7.130   5.282  14.116  0.00  0.00    +0.000 A 
ATOM     17  C   UNL     1       7.882   5.018  12.988  0.00  0.00    +0.000 A 
ATOM     18  N   UNL     1       7.507   4.136  12.037  0.00  0.00    +0.000 NA
ATOM     19  C   UNL     1       6.342   3.481  12.230  0.00  0.00    +0.000 A 
ATOM     20  C   UNL     1       5.514   3.676  13.324  0.00  0.00    +0.000 A 
ENDBRANCH   5  15
TORSDOF 1
ENDMDL
