MODEL 1
REMARK VINA RESULT:      -6.8      0.000      0.000
REMARK  Name = 
REMARK  3 active torsions:
REMARK  status: ('A' for Active; 'I' for Inactive)
REMARK    1  A    between atoms: C_2  and  C_3
REMARK    2  A    between atoms: N_6  and  C_7
REMARK    3  A    between atoms: C_7  and  C_8
REMARK                            x       y       z     vdW  Elec       q    Type
REMARK                         _______ _______ _______ _____ _____    ______ ____
ROOT
ATOM      1  C   UNL     1       5.071   5.010  19.010  0.00  0.00    +0.000 C 
ENDROOT
BRANCH   1   2
ATOM      2  C   UNL     1       3.771   4.253  18.931  0.00  0.00    +0.000 A 
ATOM      3  C   UNL     1       3.754   2.904  19.301  0.00  0.00    +0.000 A 
ATOM      4  F   UNL     1       4.877   2.334  19.763  0.00  0.00    +0.000 F 
ATOM      5  C   UNL     1       2.604   2.124  19.207  0.00  0.00    +0.000 A 
ATOM      6  C   UNL     1       1.426   2.691  18.733  0.00  0.00    +0.000 A 
ATOM      7  C   UNL     1       1.407   4.040  18.377  0.00  0.00    +0.000 A 
ATOM      8  C   UNL     1       2.571   4.816  18.475  0.00  0.00    +0.000 A 
ATOM      9 CL   UNL     1       2.447   6.482  18.039  0.00  0.00    +0.000 Cl
ENDBRANCH   1   2
BRANCH   1  13
ATOM     10  C   UNL     1       6.533   4.372  15.911  0.00  0.00    +0.000 A 
ATOM     11  N   UNL     1       7.707   4.469  16.615  0.00  0.00    +0.000 NA
ATOM     12  C   UNL     1       7.295   4.695  17.844  0.00  0.00    +0.000 A 
ATOM     13  N   UNL     1       5.934   4.722  17.874  0.00  0.00    +0.000 N 
ATOM     14  N   UNL     1       5.420   4.536  16.640  0.00  0.00    +0.000 NA
BRANCH  10  16
ATOM     15  N   UNL     1       6.453   3.932  13.351  0.00  0.00    +0.000 NA
ATOM     16  C   UNL     1       6.490   4.129  14.495  0.00  0.00    +0.000 C 
ENDBRANCH  10  16
ENDBRANCH   1  13
TORSDOF 3
ENDMDL
MODEL 2
REMARK VINA RESULT:      -6.7      1.820      2.173
REMARK  Name = 
REMARK  3 active torsions:
REMARK  status: ('A' for Active; 'I' for Inactive)
REMARK    1  A    between atoms: C_2  and  C_3
REMARK    2  A    between atoms: N_6  and  C_7
REMARK    3  A    between atoms: C_7  and  C_8
REMARK                            x       y       z     vdW  Elec       q    Type
REMARK                         _______ _______ _______ _____ _____    ______ ____
ROOT
ATOM      1  C   UNL     1       5.048   4.808  18.963  0.00  0.00    +0.000 C 
ENDROOT
BRANCH   1   2
ATOM      2  C   UNL     1       3.735   4.086  18.819  0.00  0.00    +0.000 A 
ATOM      3  C   UNL     1       2.679   4.730  18.164  0.00  0.00    +0.000 A 
ATOM      4  F   UNL     1       2.878   5.948  17.638  0.00  0.00    +0.000 F 
ATOM      5  C   UNL     1       1.421   4.149  18.036  0.00  0.00    +0.000 A 
ATOM      6  C   UNL     1       1.190   2.886  18.571  0.00  0.00    +0.000 A 
ATOM      7  C   UNL     1       2.229   2.210  19.210  0.00  0.00    +0.000 A 
ATOM      8  C   UNL     1       3.493   2.804  19.334  0.00  0.00    +0.000 A 
ATOM      9 CL   UNL     1       4.725   1.883  20.116  0.00  0.00    +0.000 Cl
ENDBRANCH   1   2
BRANCH   1  13
ATOM     10  C   UNL     1       6.504   4.290  15.839  0.00  0.00    +0.000 A 
ATOM     11  N   UNL     1       7.678   4.497  16.521  0.00  0.00    +0.000 NA
ATOM     12  C   UNL     1       7.270   4.692  17.756  0.00  0.00    +0.000 A 
ATOM     13  N   UNL     1       5.913   4.594  17.812  0.00  0.00    +0.000 N 
ATOM     14  N   UNL     1       5.395   4.356  16.589  0.00  0.00    +0.000 NA
BRANCH  10  16
ATOM     15  N   UNL     1       6.418   3.830  13.282  0.00  0.00    +0.000 NA
ATOM     16  C   UNL     1       6.457   4.037  14.425  0.00  0.00    +0.000 C 
ENDBRANCH  10  16
ENDBRANCH   1  13
TORSDOF 3
ENDMDL
MODEL 3
REMARK VINA RESULT:      -6.7      0.951      1.006
REMARK  Name = 
REMARK  3 active torsions:
REMARK  status: ('A' for Active; 'I' for Inactive)
REMARK    1  A    between atoms: C_2  and  C_3
REMARK    2  A    between atoms: N_6  and  C_7
REMARK    3  A    between atoms: C_7  and  C_8
REMARK                            x       y       z     vdW  Elec       q    Type
REMARK                         _______ _______ _______ _____ _____    ______ ____
ROOT
ATOM      1  C   UNL     1       5.545   4.273  18.458  0.00  0.00    +0.000 C 
ENDROOT
BRANCH   1   2
ATOM      2  C   UNL     1       4.050   4.103  18.386  0.00  0.00    +0.000 A 
ATOM      3  C   UNL     1       3.499   2.851  18.679  0.00  0.00    +0.000 A 
ATOM      4  F   UNL     1       4.307   1.852  19.066  0.00  0.00    +0.000 F 
ATOM      5  C   UNL     1       2.133   2.601  18.585  0.00  0.00    +0.000 A 
ATOM      6  C   UNL     1       1.274   3.621  18.188  0.00  0.00    +0.000 A 
ATOM      7  C   UNL     1       1.792   4.886  17.910  0.00  0.00    +0.000 A 
ATOM      8  C   UNL     1       3.170   5.127  18.008  0.00  0.00    +0.000 A 
ATOM      9 CL   UNL     1       3.717   6.729  17.671  0.00  0.00    +0.000 Cl
ENDBRANCH   1   2
BRANCH   1  13
ATOM     10  C   UNL     1       6.434   4.332  15.089  0.00  0.00    +0.000 A 
ATOM     11  N   UNL     1       7.274   5.343  15.485  0.00  0.00    +0.000 NA
ATOM     12  C   UNL     1       7.053   5.419  16.779  0.00  0.00    +0.000 A 
ATOM     13  N   UNL     1       6.129   4.487  17.143  0.00  0.00    +0.000 N 
ATOM     14  N   UNL     1       5.701   3.788  16.071  0.00  0.00    +0.000 NA
BRANCH  10  16
ATOM     15  N   UNL     1       6.245   3.539  12.621  0.00  0.00    +0.000 NA
ATOM     16  C   UNL     1       6.330   3.893  13.724  0.00  0.00    +0.000 C 
ENDBRANCH  10  16
ENDBRANCH   1  13
TORSDOF 3
ENDMDL
MODEL 4
REMARK VINA RESULT:      -6.6      1.903      2.777
REMARK  Name = 
REMARK  3 active torsions:
REMARK  status: ('A' for Active; 'I' for Inactive)
REMARK    1  A    between atoms: C_2  and  C_3
REMARK    2  A    between atoms: N_6  and  C_7
REMARK    3  A    between atoms: C_7  and  C_8
REMARK                            x       y       z     vdW  Elec       q    Type
REMARK                         _______ _______ _______ _____ _____    ______ ____
ROOT
ATOM      1  C   UNL     1       4.069   2.865  18.053  0.00  0.00    +0.000 C 
ENDROOT
BRANCH   1   2
ATOM      2  C   UNL     1       3.096   3.060  19.185  0.00  0.00    +0.000 A 
ATOM      3  C   UNL     1       3.442   2.598  20.460  0.00  0.00    +0.000 A 
ATOM      4  F   UNL     1       4.648   2.043  20.652  0.00  0.00    +0.000 F 
ATOM      5  C   UNL     1       2.576   2.696  21.545  0.00  0.00    +0.000 A 
ATOM      6  C   UNL     1       1.320   3.270  21.373  0.00  0.00    +0.000 A 
ATOM      7  C   UNL     1       0.955   3.759  20.118  0.00  0.00    +0.000 A 
ATOM      8  C   UNL     1       1.836   3.655  19.032  0.00  0.00    +0.000 A 
ATOM      9 CL   UNL     1       1.309   4.312  17.524  0.00  0.00    +0.000 Cl
ENDBRANCH   1   2
BRANCH   1  13
ATOM     10  C   UNL     1       6.262   5.568  17.874  0.00  0.00    +0.000 A 
ATOM     11  N   UNL     1       5.554   5.872  16.738  0.00  0.00    +0.000 NA
ATOM     12  C   UNL     1       4.652   4.916  16.690  0.00  0.00    +0.000 A 
ATOM     13  N   UNL     1       4.806   4.084  17.756  0.00  0.00    +0.000 N 
ATOM     14  N   UNL     1       5.847   4.471  18.523  0.00  0.00    +0.000 NA
BRANCH  10  16
ATOM     15  N   UNL     1       8.274   6.989  18.704  0.00  0.00    +0.000 NA
ATOM     16  C   UNL     1       7.375   6.353  18.334  0.00  0.00    +0.000 C 
ENDBRANCH  10  16
ENDBRANCH   1  13
TORSDOF 3
ENDMDL
MODEL 5
REMARK VINA RESULT:      -6.5      2.070      2.450
REMARK  Name = 
REMARK  3 active torsions:
REMARK  status: ('A' for Active; 'I' for Inactive)
REMARK    1  A    between atoms: C_2  and  C_3
REMARK    2  A    between atoms: N_6  and  C_7
REMARK    3  A    between atoms: C_7  and  C_8
REMARK                            x       y       z     vdW  Elec       q    Type
REMARK                         _______ _______ _______ _____ _____    ______ ____
ROOT
ATOM      1  C   UNL     1       5.629   4.079  18.045  0.00  0.00    +0.000 C 
ENDROOT
BRANCH   1   2
ATOM      2  C   UNL     1       4.127   4.183  18.015  0.00  0.00    +0.000 A 
ATOM      3  C   UNL     1       3.540   5.453  17.966  0.00  0.00    +0.000 A 
ATOM      4  F   UNL     1       4.326   6.537  17.894  0.00  0.00    +0.000 F 
ATOM      5  C   UNL     1       2.160   5.633  17.988  0.00  0.00    +0.000 A 
ATOM      6  C   UNL     1       1.323   4.524  18.060  0.00  0.00    +0.000 A 
ATOM      7  C   UNL     1       1.878   3.245  18.089  0.00  0.00    +0.000 A 
ATOM      8  C   UNL     1       3.270   3.074  18.066  0.00  0.00    +0.000 A 
ATOM      9 CL   UNL     1       3.866   1.454  18.078  0.00  0.00    +0.000 Cl
ENDBRANCH   1   2
BRANCH   1  13
ATOM     10  C   UNL     1       6.546   4.264  14.688  0.00  0.00    +0.000 A 
ATOM     11  N   UNL     1       7.341   5.296  15.119  0.00  0.00    +0.000 NA
ATOM     12  C   UNL     1       7.105   5.329  16.412  0.00  0.00    +0.000 A 
ATOM     13  N   UNL     1       6.216   4.351  16.742  0.00  0.00    +0.000 N 
ATOM     14  N   UNL     1       5.826   3.665  15.647  0.00  0.00    +0.000 NA
BRANCH  10  16
ATOM     15  N   UNL     1       6.413   3.527  12.199  0.00  0.00    +0.000 NA
ATOM     16  C   UNL     1       6.473   3.857  13.311  0.00  0.00    +0.000 C 
ENDBRANCH  10  16
ENDBRANCH   1  13
TORSDOF 3
ENDMDL
MODEL 6
REMARK VINA RESULT:      -6.5      2.392      2.979
REMARK  Name = 
REMARK  3 active torsions:
REMARK  status: ('A' for Active; 'I' for Inactive)
REMARK    1  A    between atoms: C_2  and  C_3
REMARK    2  A    between atoms: N_6  and  C_7
REMARK    3  A    between atoms: C_7  and  C_8
REMARK                            x       y       z     vdW  Elec       q    Type
REMARK                         _______ _______ _______ _____ _____    ______ ____
ROOT
ATOM      1  C   UNL     1       3.337   2.710  17.562  0.00  0.00    +0.000 C 
ENDROOT
BRANCH   1   2
ATOM      2  C   UNL     1       2.701   2.920  18.910  0.00  0.00    +0.000 A 
ATOM      3  C   UNL     1       1.453   3.549  18.977  0.00  0.00    +0.000 A 
ATOM      4  F   UNL     1       0.833   3.900  17.840  0.00  0.00    +0.000 F 
ATOM      5  C   UNL     1       0.824   3.824  20.188  0.00  0.00    +0.000 A 
ATOM      6  C   UNL     1       1.445   3.468  21.381  0.00  0.00    +0.000 A 
ATOM      7  C   UNL     1       2.680   2.821  21.346  0.00  0.00    +0.000 A 
ATOM      8  C   UNL     1       3.304   2.548  20.120  0.00  0.00    +0.000 A 
ATOM      9 CL   UNL     1       4.818   1.719  20.173  0.00  0.00    +0.000 Cl
ENDBRANCH   1   2
BRANCH   1  13
ATOM     10  C   UNL     1       5.739   4.861  16.238  0.00  0.00    +0.000 A 
ATOM     11  N   UNL     1       5.114   5.797  17.024  0.00  0.00    +0.000 NA
ATOM     12  C   UNL     1       4.170   5.100  17.616  0.00  0.00    +0.000 A 
ATOM     13  N   UNL     1       4.233   3.802  17.211  0.00  0.00    +0.000 N 
ATOM     14  N   UNL     1       5.222   3.627  16.309  0.00  0.00    +0.000 NA
BRANCH  10  16
ATOM     15  N   UNL     1       7.757   5.430  14.701  0.00  0.00    +0.000 NA
ATOM     16  C   UNL     1       6.854   5.175  15.387  0.00  0.00    +0.000 C 
ENDBRANCH  10  16
ENDBRANCH   1  13
TORSDOF 3
ENDMDL
MODEL 7
REMARK VINA RESULT:      -6.5      1.582      1.942
REMARK  Name = 
REMARK  3 active torsions:
REMARK  status: ('A' for Active; 'I' for Inactive)
REMARK    1  A    between atoms: C_2  and  C_3
REMARK    2  A    between atoms: N_6  and  C_7
REMARK    3  A    between atoms: C_7  and  C_8
REMARK                            x       y       z     vdW  Elec       q    Type
REMARK                         _______ _______ _______ _____ _____    ______ ____
ROOT
ATOM      1  C   UNL     1       3.817   2.529  17.966  0.00  0.00    +0.000 C 
ENDROOT
BRANCH   1   2
ATOM      2  C   UNL     1       2.966   2.950  19.136  0.00  0.00    +0.000 A 
ATOM      3  C   UNL     1       3.325   2.522  20.419  0.00  0.00    +0.000 A 
ATOM      4  F   UNL     1       4.441   1.795  20.581  0.00  0.00    +0.000 F 
ATOM      5  C   UNL     1       2.562   2.826  21.543  0.00  0.00    +0.000 A 
ATOM      6  C   UNL     1       1.401   3.579  21.402  0.00  0.00    +0.000 A 
ATOM      7  C   UNL     1       1.029   4.038  20.138  0.00  0.00    +0.000 A 
ATOM      8  C   UNL     1       1.805   3.726  19.013  0.00  0.00    +0.000 A 
ATOM      9 CL   UNL     1       1.283   4.360  17.494  0.00  0.00    +0.000 Cl
ENDBRANCH   1   2
BRANCH   1  13
ATOM     10  C   UNL     1       6.036   4.696  16.379  0.00  0.00    +0.000 A 
ATOM     11  N   UNL     1       5.868   5.455  17.510  0.00  0.00    +0.000 NA
ATOM     12  C   UNL     1       5.044   4.727  18.232  0.00  0.00    +0.000 A 
ATOM     13  N   UNL     1       4.742   3.579  17.565  0.00  0.00    +0.000 N 
ATOM     14  N   UNL     1       5.352   3.544  16.362  0.00  0.00    +0.000 NA
BRANCH  10  16
ATOM     15  N   UNL     1       7.542   5.436  14.393  0.00  0.00    +0.000 NA
ATOM     16  C   UNL     1       6.870   5.106  15.281  0.00  0.00    +0.000 C 
ENDBRANCH  10  16
ENDBRANCH   1  13
TORSDOF 3
ENDMDL
MODEL 8
REMARK VINA RESULT:      -6.5      1.561      1.856
REMARK  Name = 
REMARK  3 active torsions:
REMARK  status: ('A' for Active; 'I' for Inactive)
REMARK    1  A    between atoms: C_2  and  C_3
REMARK    2  A    between atoms: N_6  and  C_7
REMARK    3  A    between atoms: C_7  and  C_8
REMARK                            x       y       z     vdW  Elec       q    Type
REMARK                         _______ _______ _______ _____ _____    ______ ____
ROOT
ATOM      1  C   UNL     1       2.980   3.516  17.144  0.00  0.00    +0.000 C 
ENDROOT
BRANCH   1   2
ATOM      2  C   UNL     1       2.512   3.662  18.568  0.00  0.00    +0.000 A 
ATOM      3  C   UNL     1       2.389   2.513  19.358  0.00  0.00    +0.000 A 
ATOM      4  F   UNL     1       2.738   1.324  18.847  0.00  0.00    +0.000 F 
ATOM      5  C   UNL     1       1.914   2.560  20.666  0.00  0.00    +0.000 A 
ATOM      6  C   UNL     1       1.547   3.782  21.220  0.00  0.00    +0.000 A 
ATOM      7  C   UNL     1       1.680   4.947  20.464  0.00  0.00    +0.000 A 
ATOM      8  C   UNL     1       2.159   4.889  19.147  0.00  0.00    +0.000 A 
ATOM      9 CL   UNL     1       2.315   6.383  18.297  0.00  0.00    +0.000 Cl
ENDBRANCH   1   2
BRANCH   1  13
ATOM     10  C   UNL     1       6.119   4.604  16.091  0.00  0.00    +0.000 A 
ATOM     11  N   UNL     1       6.421   4.542  17.428  0.00  0.00    +0.000 NA
ATOM     12  C   UNL     1       5.299   4.113  17.963  0.00  0.00    +0.000 A 
ATOM     13  N   UNL     1       4.370   3.917  16.987  0.00  0.00    +0.000 N 
ATOM     14  N   UNL     1       4.867   4.244  15.776  0.00  0.00    +0.000 NA
BRANCH  10  16
ATOM     15  N   UNL     1       7.827   5.386  14.294  0.00  0.00    +0.000 NA
ATOM     16  C   UNL     1       7.063   5.036  15.096  0.00  0.00    +0.000 C 
ENDBRANCH  10  16
ENDBRANCH   1  13
TORSDOF 3
ENDMDL
MODEL 9
REMARK VINA RESULT:      -6.4      2.329      3.134
REMARK  Name = 
REMARK  3 active torsions:
REMARK  status: ('A' for Active; 'I' for Inactive)
REMARK    1  A    between atoms: C_2  and  C_3
REMARK    2  A    between atoms: N_6  and  C_7
REMARK    3  A    between atoms: C_7  and  C_8
REMARK                            x       y       z     vdW  Elec       q    Type
REMARK                         _______ _______ _______ _____ _____    ______ ____
ROOT
ATOM      1  C   UNL     1       2.565   5.916  17.848  0.00  0.00    +0.000 C 
ENDROOT
BRANCH   1   2
ATOM      2  C   UNL     1       2.074   4.721  18.620  0.00  0.00    +0.000 A 
ATOM      3  C   UNL     1       2.047   3.473  17.987  0.00  0.00    +0.000 A 
ATOM      4  F   UNL     1       2.506   3.364  16.731  0.00  0.00    +0.000 F 
ATOM      5  C   UNL     1       1.559   2.331  18.617  0.00  0.00    +0.000 A 
ATOM      6  C   UNL     1       1.080   2.418  19.920  0.00  0.00    +0.000 A 
ATOM      7  C   UNL     1       1.113   3.644  20.584  0.00  0.00    +0.000 A 
ATOM      8  C   UNL     1       1.606   4.787  19.940  0.00  0.00    +0.000 A 
ATOM      9 CL   UNL     1       1.634   6.255  20.850  0.00  0.00    +0.000 Cl
ENDBRANCH   1   2
BRANCH   1  13
ATOM     10  C   UNL     1       6.012   5.745  18.332  0.00  0.00    +0.000 A 
ATOM     11  N   UNL     1       6.062   6.044  16.994  0.00  0.00    +0.000 NA
ATOM     12  C   UNL     1       4.792   6.161  16.671  0.00  0.00    +0.000 A 
ATOM     13  N   UNL     1       4.018   5.952  17.771  0.00  0.00    +0.000 N 
ATOM     14  N   UNL     1       4.777   5.663  18.848  0.00  0.00    +0.000 NA
BRANCH  10  16
ATOM     15  N   UNL     1       8.141   5.338  19.767  0.00  0.00    +0.000 NA
ATOM     16  C   UNL     1       7.189   5.520  19.127  0.00  0.00    +0.000 C 
ENDBRANCH  10  16
ENDBRANCH   1  13
TORSDOF 3
ENDMDL
