MODEL 1
REMARK VINA RESULT:      -9.3      0.000      0.000
REMARK  Name = 
REMARK  7 active torsions:
REMARK  status: ('A' for Active; 'I' for Inactive)
REMARK    1  A    between atoms: C_2  and  C_5
REMARK    2  A    between atoms: N_3  and  O_4
REMARK    3  A    between atoms: C_10  and  C_11
REMARK    4  A    between atoms: N_13  and  C_14
REMARK    5  A    between atoms: C_17  and  C_18
REMARK    6  A    between atoms: C_18  and  O_19
REMARK    7  A    between atoms: O_19  and  C_20
REMARK                            x       y       z     vdW  Elec       q    Type
REMARK                         _______ _______ _______ _____ _____    ______ ____
ROOT
ATOM      1  C   UNL     1       1.828   8.024  19.497  0.00  0.00    +0.000 A 
ATOM      2  C   UNL     1       2.411   7.751  18.257  0.00  0.00    +0.000 A 
ATOM      3  C   UNL     1       2.845   6.461  17.939  0.00  0.00    +0.000 A 
ATOM      4  C   UNL     1       2.698   5.415  18.854  0.00  0.00    +0.000 A 
ATOM      5  C   UNL     1       2.166   5.696  20.118  0.00  0.00    +0.000 A 
ATOM      6  C   UNL     1       1.742   6.997  20.441  0.00  0.00    +0.000 A 
ENDROOT
BRANCH   1   9
ATOM      7  C   UNL     1       0.522  10.100  19.057  0.00  0.00    +0.000 C 
ATOM      8  O   UNL     1       0.009   9.756  17.992  0.00  0.00    +0.000 OA
ATOM      9  N   UNL     1       1.331   9.299  19.846  0.00  0.00    +0.000 N 
ATOM     10  H   UNL     1       1.485   9.591  20.805  0.00  0.00    +0.000 HD
BRANCH   7  16
ATOM     11  C   UNL     1      -0.415  12.434  18.599  0.00  0.00    +0.000 C 
ATOM     12  C   UNL     1      -0.428  13.895  19.108  0.00  0.00    +0.000 C 
ATOM     13  C   UNL     1       0.924  14.388  19.589  0.00  0.00    +0.000 C 
ATOM     14  C   UNL     1       1.474  13.475  20.669  0.00  0.00    +0.000 C 
ATOM     15  C   UNL     1       1.572  12.043  20.167  0.00  0.00    +0.000 C 
ATOM     16  C   UNL     1       0.229  11.483  19.651  0.00  0.00    +0.000 C 
BRANCH  11  18
ATOM     17  O   UNL     1      -2.789  12.071  19.030  0.00  0.00    +0.000 OA
ATOM     18  C   UNL     1      -1.869  12.109  18.207  0.00  0.00    +0.000 C 
ATOM     19  N   UNL     1      -2.148  11.927  16.878  0.00  0.00    +0.000 N 
ATOM     20  H   UNL     1      -1.608  12.432  16.169  0.00  0.00    +0.000 HD
BRANCH  19  21
ATOM     21  O   UNL     1      -3.537  11.793  16.598  0.00  0.00    +0.000 OA
ATOM     22  H   UNL     1      -3.660  12.440  15.863  0.00  0.00    +0.000 HD
ENDBRANCH  19  21
ENDBRANCH  11  18
ENDBRANCH   7  16
ENDBRANCH   1   9
BRANCH   4  23
ATOM     23  C   UNL     1       3.091   4.008  18.465  0.00  0.00    +0.000 C 
BRANCH  23  24
ATOM     24  O   UNL     1       4.420   3.750  18.879  0.00  0.00    +0.000 OA
BRANCH  24  25
ATOM     25  C   UNL     1       5.472   4.441  18.331  0.00  0.00    +0.000 A 
ATOM     26  C   UNL     1       6.135   5.179  19.325  0.00  0.00    +0.000 A 
ATOM     27  C   UNL     1       7.232   5.970  19.018  0.00  0.00    +0.000 A 
ATOM     28  C   UNL     1       7.644   6.069  17.695  0.00  0.00    +0.000 A 
ATOM     29  C   UNL     1       7.006   5.382  16.676  0.00  0.00    +0.000 A 
ATOM     30  N   UNL     1       7.473   5.603  15.434  0.00  0.00    +0.000 NA
ATOM     31  C   UNL     1       6.918   4.933  14.407  0.00  0.00    +0.000 A 
ATOM     32  C   UNL     1       5.938   3.986  14.571  0.00  0.00    +0.000 A 
ATOM     33  C   UNL     1       5.463   3.758  15.861  0.00  0.00    +0.000 A 
ATOM     34  C   UNL     1       5.935   4.500  16.977  0.00  0.00    +0.000 A 
ENDBRANCH  24  25
ENDBRANCH  23  24
ENDBRANCH   4  23
TORSDOF 7
ENDMDL
MODEL 2
REMARK VINA RESULT:      -9.2      0.592      1.043
REMARK  Name = 
REMARK  7 active torsions:
REMARK  status: ('A' for Active; 'I' for Inactive)
REMARK    1  A    between atoms: C_2  and  C_5
REMARK    2  A    between atoms: N_3  and  O_4
REMARK    3  A    between atoms: C_10  and  C_11
REMARK    4  A    between atoms: N_13  and  C_14
REMARK    5  A    between atoms: C_17  and  C_18
REMARK    6  A    between atoms: C_18  and  O_19
REMARK    7  A    between atoms: O_19  and  C_20
REMARK                            x       y       z     vdW  Elec       q    Type
REMARK                         _______ _______ _______ _____ _____    ______ ____
ROOT
ATOM      1  C   UNL     1       1.810   8.363  19.351  0.00  0.00    +0.000 A 
ATOM      2  C   UNL     1       1.796   7.403  20.366  0.00  0.00    +0.000 A 
ATOM      3  C   UNL     1       2.164   6.080  20.104  0.00  0.00    +0.000 A 
ATOM      4  C   UNL     1       2.561   5.693  18.822  0.00  0.00    +0.000 A 
ATOM      5  C   UNL     1       2.522   6.639  17.790  0.00  0.00    +0.000 A 
ATOM      6  C   UNL     1       2.138   7.965  18.052  0.00  0.00    +0.000 A 
ENDROOT
BRANCH   1   9
ATOM      7  C   UNL     1       0.273  10.207  20.021  0.00  0.00    +0.000 C 
ATOM      8  O   UNL     1      -0.665   9.513  20.412  0.00  0.00    +0.000 OA
ATOM      9  N   UNL     1       1.492   9.721  19.576  0.00  0.00    +0.000 N 
ATOM     10  H   UNL     1       2.264  10.375  19.522  0.00  0.00    +0.000 HD
BRANCH   7  16
ATOM     11  C   UNL     1      -0.255  12.327  18.693  0.00  0.00    +0.000 C 
ATOM     12  C   UNL     1      -0.055  13.860  18.659  0.00  0.00    +0.000 C 
ATOM     13  C   UNL     1       1.336  14.306  19.069  0.00  0.00    +0.000 C 
ATOM     14  C   UNL     1       1.685  13.774  20.447  0.00  0.00    +0.000 C 
ATOM     15  C   UNL     1       1.573  12.258  20.485  0.00  0.00    +0.000 C 
ATOM     16  C   UNL     1       0.181  11.738  20.066  0.00  0.00    +0.000 C 
BRANCH  11  18
ATOM     17  O   UNL     1      -2.648  12.113  19.115  0.00  0.00    +0.000 OA
ATOM     18  C   UNL     1      -1.723  12.083  18.297  0.00  0.00    +0.000 C 
ATOM     19  N   UNL     1      -2.006  11.895  16.969  0.00  0.00    +0.000 N 
ATOM     20  H   UNL     1      -1.433  12.354  16.256  0.00  0.00    +0.000 HD
BRANCH  19  21
ATOM     21  O   UNL     1      -3.399  11.839  16.683  0.00  0.00    +0.000 OA
ATOM     22  H   UNL     1      -3.757  11.408  17.495  0.00  0.00    +0.000 HD
ENDBRANCH  19  21
ENDBRANCH  11  18
ENDBRANCH   7  16
ENDBRANCH   1   9
BRANCH   4  23
ATOM     23  C   UNL     1       3.041   4.281  18.571  0.00  0.00    +0.000 C 
BRANCH  23  24
ATOM     24  O   UNL     1       4.346   4.118  19.095  0.00  0.00    +0.000 OA
BRANCH  24  25
ATOM     25  C   UNL     1       5.429   4.681  18.468  0.00  0.00    +0.000 A 
ATOM     26  C   UNL     1       6.223   5.370  19.400  0.00  0.00    +0.000 A 
ATOM     27  C   UNL     1       7.375   6.033  19.007  0.00  0.00    +0.000 A 
ATOM     28  C   UNL     1       7.716   6.055  17.661  0.00  0.00    +0.000 A 
ATOM     29  C   UNL     1       6.952   5.413  16.701  0.00  0.00    +0.000 A 
ATOM     30  N   UNL     1       7.365   5.552  15.429  0.00  0.00    +0.000 NA
ATOM     31  C   UNL     1       6.685   4.919  14.456  0.00  0.00    +0.000 A 
ATOM     32  C   UNL     1       5.624   4.084  14.704  0.00  0.00    +0.000 A 
ATOM     33  C   UNL     1       5.204   3.941  16.024  0.00  0.00    +0.000 A 
ATOM     34  C   UNL     1       5.815   4.656  17.089  0.00  0.00    +0.000 A 
ENDBRANCH  24  25
ENDBRANCH  23  24
ENDBRANCH   4  23
TORSDOF 7
ENDMDL
MODEL 3
REMARK VINA RESULT:      -9.1      2.177      9.685
REMARK  Name = 
REMARK  7 active torsions:
REMARK  status: ('A' for Active; 'I' for Inactive)
REMARK    1  A    between atoms: C_2  and  C_5
REMARK    2  A    between atoms: N_3  and  O_4
REMARK    3  A    between atoms: C_10  and  C_11
REMARK    4  A    between atoms: N_13  and  C_14
REMARK    5  A    between atoms: C_17  and  C_18
REMARK    6  A    between atoms: C_18  and  O_19
REMARK    7  A    between atoms: O_19  and  C_20
REMARK                            x       y       z     vdW  Elec       q    Type
REMARK                         _______ _______ _______ _____ _____    ______ ____
ROOT
ATOM      1  C   UNL     1       3.014   7.308  18.253  0.00  0.00    +0.000 A 
ATOM      2  C   UNL     1       2.396   8.429  17.692  0.00  0.00    +0.000 A 
ATOM      3  C   UNL     1       1.476   9.181  18.429  0.00  0.00    +0.000 A 
ATOM      4  C   UNL     1       1.161   8.830  19.745  0.00  0.00    +0.000 A 
ATOM      5  C   UNL     1       1.735   7.675  20.290  0.00  0.00    +0.000 A 
ATOM      6  C   UNL     1       2.650   6.913  19.543  0.00  0.00    +0.000 A 
ENDROOT
BRANCH   1   9
ATOM      7  C   UNL     1       4.120   5.167  17.621  0.00  0.00    +0.000 C 
ATOM      8  O   UNL     1       3.331   4.398  18.171  0.00  0.00    +0.000 OA
ATOM      9  N   UNL     1       3.984   6.544  17.566  0.00  0.00    +0.000 N 
ATOM     10  H   UNL     1       4.544   7.042  16.884  0.00  0.00    +0.000 HD
BRANCH   7  16
ATOM     11  C   UNL     1       6.479   5.673  16.775  0.00  0.00    +0.000 C 
ATOM     12  C   UNL     1       7.563   5.234  15.763  0.00  0.00    +0.000 C 
ATOM     13  C   UNL     1       7.011   4.863  14.398  0.00  0.00    +0.000 C 
ATOM     14  C   UNL     1       5.957   3.779  14.523  0.00  0.00    +0.000 C 
ATOM     15  C   UNL     1       4.838   4.218  15.454  0.00  0.00    +0.000 C 
ATOM     16  C   UNL     1       5.335   4.621  16.859  0.00  0.00    +0.000 C 
BRANCH  11  18
ATOM     17  O   UNL     1       7.788   7.032  18.323  0.00  0.00    +0.000 OA
ATOM     18  C   UNL     1       7.224   5.957  18.094  0.00  0.00    +0.000 C 
ATOM     19  N   UNL     1       7.188   4.995  19.069  0.00  0.00    +0.000 N 
ATOM     20  H   UNL     1       6.372   4.382  19.152  0.00  0.00    +0.000 HD
BRANCH  19  21
ATOM     21  O   UNL     1       7.762   5.409  20.304  0.00  0.00    +0.000 OA
ATOM     22  H   UNL     1       7.013   5.895  20.724  0.00  0.00    +0.000 HD
ENDBRANCH  19  21
ENDBRANCH  11  18
ENDBRANCH   7  16
ENDBRANCH   1   9
BRANCH   4  23
ATOM     23  C   UNL     1       0.232   9.702  20.559  0.00  0.00    +0.000 C 
BRANCH  23  24
ATOM     24  O   UNL     1       0.011  10.927  19.885  0.00  0.00    +0.000 OA
BRANCH  24  25
ATOM     25  C   UNL     1      -1.264  11.363  19.620  0.00  0.00    +0.000 A 
ATOM     26  C   UNL     1      -1.717  12.188  20.663  0.00  0.00    +0.000 A 
ATOM     27  C   UNL     1      -2.985  12.747  20.631  0.00  0.00    +0.000 A 
ATOM     28  C   UNL     1      -3.834  12.441  19.576  0.00  0.00    +0.000 A 
ATOM     29  C   UNL     1      -3.441  11.612  18.538  0.00  0.00    +0.000 A 
ATOM     30  N   UNL     1      -4.374  11.356  17.603  0.00  0.00    +0.000 NA
ATOM     31  C   UNL     1      -4.039  10.589  16.550  0.00  0.00    +0.000 A 
ATOM     32  C   UNL     1      -2.771  10.101  16.349  0.00  0.00    +0.000 A 
ATOM     33  C   UNL     1      -1.809  10.374  17.320  0.00  0.00    +0.000 A 
ATOM     34  C   UNL     1      -2.119  11.095  18.503  0.00  0.00    +0.000 A 
ENDBRANCH  24  25
ENDBRANCH  23  24
ENDBRANCH   4  23
TORSDOF 7
ENDMDL
MODEL 4
REMARK VINA RESULT:      -9.0      2.509     10.389
REMARK  Name = 
REMARK  7 active torsions:
REMARK  status: ('A' for Active; 'I' for Inactive)
REMARK    1  A    between atoms: C_2  and  C_5
REMARK    2  A    between atoms: N_3  and  O_4
REMARK    3  A    between atoms: C_10  and  C_11
REMARK    4  A    between atoms: N_13  and  C_14
REMARK    5  A    between atoms: C_17  and  C_18
REMARK    6  A    between atoms: C_18  and  O_19
REMARK    7  A    between atoms: O_19  and  C_20
REMARK                            x       y       z     vdW  Elec       q    Type
REMARK                         _______ _______ _______ _____ _____    ______ ____
ROOT
ATOM      1  C   UNL     1       2.321   7.722  18.594  0.00  0.00    +0.000 A 
ATOM      2  C   UNL     1       1.766   8.660  17.719  0.00  0.00    +0.000 A 
ATOM      3  C   UNL     1       0.920   9.667  18.193  0.00  0.00    +0.000 A 
ATOM      4  C   UNL     1       0.619   9.760  19.555  0.00  0.00    +0.000 A 
ATOM      5  C   UNL     1       1.127   8.788  20.426  0.00  0.00    +0.000 A 
ATOM      6  C   UNL     1       1.966   7.768  19.945  0.00  0.00    +0.000 A 
ENDROOT
BRANCH   1   9
ATOM      7  C   UNL     1       4.471   6.924  17.619  0.00  0.00    +0.000 C 
ATOM      8  O   UNL     1       5.039   8.014  17.544  0.00  0.00    +0.000 OA
ATOM      9  N   UNL     1       3.217   6.715  18.170  0.00  0.00    +0.000 N 
ATOM     10  H   UNL     1       2.963   5.763  18.407  0.00  0.00    +0.000 HD
BRANCH   7  16
ATOM     11  C   UNL     1       6.658   5.601  17.623  0.00  0.00    +0.000 C 
ATOM     12  C   UNL     1       7.436   4.475  16.903  0.00  0.00    +0.000 C 
ATOM     13  C   UNL     1       7.309   4.512  15.391  0.00  0.00    +0.000 C 
ATOM     14  C   UNL     1       5.850   4.473  14.976  0.00  0.00    +0.000 C 
ATOM     15  C   UNL     1       5.077   5.619  15.609  0.00  0.00    +0.000 C 
ATOM     16  C   UNL     1       5.176   5.645  17.149  0.00  0.00    +0.000 C 
BRANCH  11  18
ATOM     17  O   UNL     1       6.008   4.859  19.855  0.00  0.00    +0.000 OA
ATOM     18  C   UNL     1       6.871   5.365  19.130  0.00  0.00    +0.000 C 
ATOM     19  N   UNL     1       8.098   5.668  19.659  0.00  0.00    +0.000 N 
ATOM     20  H   UNL     1       8.939   5.579  19.081  0.00  0.00    +0.000 HD
BRANCH  19  21
ATOM     21  O   UNL     1       8.252   5.268  21.016  0.00  0.00    +0.000 OA
ATOM     22  H   UNL     1       8.961   5.878  21.330  0.00  0.00    +0.000 HD
ENDBRANCH  19  21
ENDBRANCH  11  18
ENDBRANCH   7  16
ENDBRANCH   1   9
BRANCH   4  23
ATOM     23  C   UNL     1      -0.226  10.905  20.067  0.00  0.00    +0.000 C 
BRANCH  23  24
ATOM     24  O   UNL     1      -0.795  11.605  18.976  0.00  0.00    +0.000 OA
BRANCH  24  25
ATOM     25  C   UNL     1      -2.143  11.541  18.727  0.00  0.00    +0.000 A 
ATOM     26  C   UNL     1      -2.388  10.736  17.602  0.00  0.00    +0.000 A 
ATOM     27  C   UNL     1      -3.679  10.522  17.143  0.00  0.00    +0.000 A 
ATOM     28  C   UNL     1      -4.736  11.159  17.778  0.00  0.00    +0.000 A 
ATOM     29  C   UNL     1      -4.543  11.983  18.875  0.00  0.00    +0.000 A 
ATOM     30  N   UNL     1      -5.645  12.577  19.367  0.00  0.00    +0.000 NA
ATOM     31  C   UNL     1      -5.525  13.359  20.455  0.00  0.00    +0.000 A 
ATOM     32  C   UNL     1      -4.341  13.532  21.129  0.00  0.00    +0.000 A 
ATOM     33  C   UNL     1      -3.205  12.909  20.616  0.00  0.00    +0.000 A 
ATOM     34  C   UNL     1      -3.242  12.150  19.416  0.00  0.00    +0.000 A 
ENDBRANCH  24  25
ENDBRANCH  23  24
ENDBRANCH   4  23
TORSDOF 7
ENDMDL
MODEL 5
REMARK VINA RESULT:      -8.9      1.783      2.768
REMARK  Name = 
REMARK  7 active torsions:
REMARK  status: ('A' for Active; 'I' for Inactive)
REMARK    1  A    between atoms: C_2  and  C_5
REMARK    2  A    between atoms: N_3  and  O_4
REMARK    3  A    between atoms: C_10  and  C_11
REMARK    4  A    between atoms: N_13  and  C_14
REMARK    5  A    between atoms: C_17  and  C_18
REMARK    6  A    between atoms: C_18  and  O_19
REMARK    7  A    between atoms: O_19  and  C_20
REMARK                            x       y       z     vdW  Elec       q    Type
REMARK                         _______ _______ _______ _____ _____    ______ ____
ROOT
ATOM      1  C   UNL     1       1.909   7.413  19.520  0.00  0.00    +0.000 A 
ATOM      2  C   UNL     1       1.755   6.311  20.365  0.00  0.00    +0.000 A 
ATOM      3  C   UNL     1       2.218   5.048  19.985  0.00  0.00    +0.000 A 
ATOM      4  C   UNL     1       2.851   4.864  18.753  0.00  0.00    +0.000 A 
ATOM      5  C   UNL     1       2.956   5.953  17.879  0.00  0.00    +0.000 A 
ATOM      6  C   UNL     1       2.478   7.220  18.258  0.00  0.00    +0.000 A 
ENDROOT
BRANCH   1   9
ATOM      7  C   UNL     1       0.898   9.639  19.040  0.00  0.00    +0.000 C 
ATOM      8  O   UNL     1       0.508   9.405  17.895  0.00  0.00    +0.000 OA
ATOM      9  N   UNL     1       1.502   8.717  19.879  0.00  0.00    +0.000 N 
ATOM     10  H   UNL     1       1.547   8.944  20.866  0.00  0.00    +0.000 HD
BRANCH   7  16
ATOM     11  C   UNL     1      -0.327  10.937  20.871  0.00  0.00    +0.000 C 
ATOM     12  C   UNL     1      -0.782  12.349  21.306  0.00  0.00    +0.000 C 
ATOM     13  C   UNL     1      -1.309  13.202  20.167  0.00  0.00    +0.000 C 
ATOM     14  C   UNL     1      -0.276  13.316  19.062  0.00  0.00    +0.000 C 
ATOM     15  C   UNL     1       0.131  11.940  18.559  0.00  0.00    +0.000 C 
ATOM     16  C   UNL     1       0.667  11.016  19.674  0.00  0.00    +0.000 C 
BRANCH  11  18
ATOM     17  O   UNL     1       1.419  10.105  22.358  0.00  0.00    +0.000 OA
ATOM     18  C   UNL     1       0.212  10.255  22.142  0.00  0.00    +0.000 C 
ATOM     19  N   UNL     1      -0.694   9.869  23.095  0.00  0.00    +0.000 N 
ATOM     20  H   UNL     1      -1.561  10.399  23.219  0.00  0.00    +0.000 HD
BRANCH  19  21
ATOM     21  O   UNL     1      -0.095   9.398  24.297  0.00  0.00    +0.000 OA
ATOM     22  H   UNL     1      -0.878   9.303  24.891  0.00  0.00    +0.000 HD
ENDBRANCH  19  21
ENDBRANCH  11  18
ENDBRANCH   7  16
ENDBRANCH   1   9
BRANCH   4  23
ATOM     23  C   UNL     1       3.424   3.512  18.390  0.00  0.00    +0.000 C 
BRANCH  23  24
ATOM     24  O   UNL     1       4.784   3.449  18.781  0.00  0.00    +0.000 OA
BRANCH  24  25
ATOM     25  C   UNL     1       5.716   4.285  18.217  0.00  0.00    +0.000 A 
ATOM     26  C   UNL     1       6.285   5.107  19.204  0.00  0.00    +0.000 A 
ATOM     27  C   UNL     1       7.251   6.047  18.880  0.00  0.00    +0.000 A 
ATOM     28  C   UNL     1       7.620   6.209  17.552  0.00  0.00    +0.000 A 
ATOM     29  C   UNL     1       7.068   5.440  16.540  0.00  0.00    +0.000 A 
ATOM     30  N   UNL     1       7.475   5.729  15.291  0.00  0.00    +0.000 NA
ATOM     31  C   UNL     1       7.003   4.991  14.271  0.00  0.00    +0.000 A 
ATOM     32  C   UNL     1       6.172   3.912  14.447  0.00  0.00    +0.000 A 
ATOM     33  C   UNL     1       5.758   3.615  15.744  0.00  0.00    +0.000 A 
ATOM     34  C   UNL     1       6.140   4.413  16.855  0.00  0.00    +0.000 A 
ENDBRANCH  24  25
ENDBRANCH  23  24
ENDBRANCH   4  23
TORSDOF 7
ENDMDL
MODEL 6
REMARK VINA RESULT:      -8.9      2.251      9.739
REMARK  Name = 
REMARK  7 active torsions:
REMARK  status: ('A' for Active; 'I' for Inactive)
REMARK    1  A    between atoms: C_2  and  C_5
REMARK    2  A    between atoms: N_3  and  O_4
REMARK    3  A    between atoms: C_10  and  C_11
REMARK    4  A    between atoms: N_13  and  C_14
REMARK    5  A    between atoms: C_17  and  C_18
REMARK    6  A    between atoms: C_18  and  O_19
REMARK    7  A    between atoms: O_19  and  C_20
REMARK                            x       y       z     vdW  Elec       q    Type
REMARK                         _______ _______ _______ _____ _____    ______ ____
ROOT
ATOM      1  C   UNL     1       2.644   7.605  18.488  0.00  0.00    +0.000 A 
ATOM      2  C   UNL     1       2.055   8.708  17.864  0.00  0.00    +0.000 A 
ATOM      3  C   UNL     1       1.184   9.546  18.566  0.00  0.00    +0.000 A 
ATOM      4  C   UNL     1       0.890   9.301  19.910  0.00  0.00    +0.000 A 
ATOM      5  C   UNL     1       1.433   8.165  20.522  0.00  0.00    +0.000 A 
ATOM      6  C   UNL     1       2.298   7.316  19.811  0.00  0.00    +0.000 A 
ENDROOT
BRANCH   1   9
ATOM      7  C   UNL     1       3.333   5.446  17.453  0.00  0.00    +0.000 C 
ATOM      8  O   UNL     1       2.244   4.875  17.508  0.00  0.00    +0.000 OA
ATOM      9  N   UNL     1       3.566   6.757  17.835  0.00  0.00    +0.000 N 
ATOM     10  H   UNL     1       4.423   7.192  17.513  0.00  0.00    +0.000 HD
BRANCH   7  16
ATOM     11  C   UNL     1       5.824   4.946  17.741  0.00  0.00    +0.000 C 
ATOM     12  C   UNL     1       7.098   4.487  16.995  0.00  0.00    +0.000 C 
ATOM     13  C   UNL     1       7.244   5.084  15.608  0.00  0.00    +0.000 C 
ATOM     14  C   UNL     1       6.020   4.781  14.764  0.00  0.00    +0.000 C 
ATOM     15  C   UNL     1       4.758   5.294  15.439  0.00  0.00    +0.000 C 
ATOM     16  C   UNL     1       4.556   4.733  16.863  0.00  0.00    +0.000 C 
BRANCH  11  18
ATOM     17  O   UNL     1       6.297   4.702  20.123  0.00  0.00    +0.000 OA
ATOM     18  C   UNL     1       5.833   4.204  19.091  0.00  0.00    +0.000 C 
ATOM     19  N   UNL     1       5.236   2.972  19.150  0.00  0.00    +0.000 N 
ATOM     20  H   UNL     1       4.438   2.763  18.543  0.00  0.00    +0.000 HD
BRANCH  19  21
ATOM     21  O   UNL     1       5.152   2.438  20.466  0.00  0.00    +0.000 OA
ATOM     22  H   UNL     1       5.729   1.640  20.399  0.00  0.00    +0.000 HD
ENDBRANCH  19  21
ENDBRANCH  11  18
ENDBRANCH   7  16
ENDBRANCH   1   9
BRANCH   4  23
ATOM     23  C   UNL     1       0.016  10.264  20.682  0.00  0.00    +0.000 C 
BRANCH  23  24
ATOM     24  O   UNL     1      -0.293  11.384  19.873  0.00  0.00    +0.000 OA
BRANCH  24  25
ATOM     25  C   UNL     1      -1.597  11.710  19.594  0.00  0.00    +0.000 A 
ATOM     26  C   UNL     1      -2.161  12.409  20.674  0.00  0.00    +0.000 A 
ATOM     27  C   UNL     1      -3.477  12.842  20.637  0.00  0.00    +0.000 A 
ATOM     28  C   UNL     1      -4.260  12.530  19.534  0.00  0.00    +0.000 A 
ATOM     29  C   UNL     1      -3.758  11.821  18.456  0.00  0.00    +0.000 A 
ATOM     30  N   UNL     1      -4.633  11.543  17.473  0.00  0.00    +0.000 NA
ATOM     31  C   UNL     1      -4.193  10.890  16.382  0.00  0.00    +0.000 A 
ATOM     32  C   UNL     1      -2.878  10.546  16.193  0.00  0.00    +0.000 A 
ATOM     33  C   UNL     1      -1.976  10.841  17.213  0.00  0.00    +0.000 A 
ATOM     34  C   UNL     1      -2.390  11.441  18.432  0.00  0.00    +0.000 A 
ENDBRANCH  24  25
ENDBRANCH  23  24
ENDBRANCH   4  23
TORSDOF 7
ENDMDL
MODEL 7
REMARK VINA RESULT:      -8.9      4.954      7.993
REMARK  Name = 
REMARK  7 active torsions:
REMARK  status: ('A' for Active; 'I' for Inactive)
REMARK    1  A    between atoms: C_2  and  C_5
REMARK    2  A    between atoms: N_3  and  O_4
REMARK    3  A    between atoms: C_10  and  C_11
REMARK    4  A    between atoms: N_13  and  C_14
REMARK    5  A    between atoms: C_17  and  C_18
REMARK    6  A    between atoms: C_18  and  O_19
REMARK    7  A    between atoms: O_19  and  C_20
REMARK                            x       y       z     vdW  Elec       q    Type
REMARK                         _______ _______ _______ _____ _____    ______ ____
ROOT
ATOM      1  C   UNL     1       8.217   7.935  18.478  0.00  0.00    +0.000 A 
ATOM      2  C   UNL     1       7.347   8.091  17.396  0.00  0.00    +0.000 A 
ATOM      3  C   UNL     1       6.484   7.058  17.018  0.00  0.00    +0.000 A 
ATOM      4  C   UNL     1       6.470   5.850  17.720  0.00  0.00    +0.000 A 
ATOM      5  C   UNL     1       7.380   5.669  18.769  0.00  0.00    +0.000 A 
ATOM      6  C   UNL     1       8.256   6.704  19.139  0.00  0.00    +0.000 A 
ENDROOT
BRANCH   1   9
ATOM      7  C   UNL     1       8.994  10.301  18.569  0.00  0.00    +0.000 C 
ATOM      8  O   UNL     1       8.084  10.805  17.911  0.00  0.00    +0.000 OA
ATOM      9  N   UNL     1       9.073   8.965  18.928  0.00  0.00    +0.000 N 
ATOM     10  H   UNL     1       9.718   8.718  19.669  0.00  0.00    +0.000 HD
BRANCH   7  16
ATOM     11  C   UNL     1       9.576  12.455  19.816  0.00  0.00    +0.000 C 
ATOM     12  C   UNL     1      10.715  13.462  20.102  0.00  0.00    +0.000 C 
ATOM     13  C   UNL     1      11.574  13.776  18.891  0.00  0.00    +0.000 C 
ATOM     14  C   UNL     1      12.153  12.503  18.301  0.00  0.00    +0.000 C 
ATOM     15  C   UNL     1      11.047  11.526  17.937  0.00  0.00    +0.000 C 
ATOM     16  C   UNL     1      10.127  11.173  19.125  0.00  0.00    +0.000 C 
BRANCH  11  18
ATOM     17  O   UNL     1       7.920  12.942  21.540  0.00  0.00    +0.000 OA
ATOM     18  C   UNL     1       8.859  12.234  21.161  0.00  0.00    +0.000 C 
ATOM     19  N   UNL     1       9.243  11.162  21.923  0.00  0.00    +0.000 N 
ATOM     20  H   UNL     1       9.592  10.313  21.470  0.00  0.00    +0.000 HD
BRANCH  19  21
ATOM     21  O   UNL     1       8.420  10.946  23.064  0.00  0.00    +0.000 OA
ATOM     22  H   UNL     1       7.534  10.807  22.652  0.00  0.00    +0.000 HD
ENDBRANCH  19  21
ENDBRANCH  11  18
ENDBRANCH   7  16
ENDBRANCH   1   9
BRANCH   4  23
ATOM     23  C   UNL     1       5.472   4.774  17.356  0.00  0.00    +0.000 C 
BRANCH  23  24
ATOM     24  O   UNL     1       4.193   5.351  17.168  0.00  0.00    +0.000 OA
BRANCH  24  25
ATOM     25  C   UNL     1       3.453   5.783  18.241  0.00  0.00    +0.000 A 
ATOM     26  C   UNL     1       3.358   4.764  19.203  0.00  0.00    +0.000 A 
ATOM     27  C   UNL     1       2.650   4.956  20.380  0.00  0.00    +0.000 A 
ATOM     28  C   UNL     1       1.985   6.158  20.581  0.00  0.00    +0.000 A 
ATOM     29  C   UNL     1       2.028   7.183  19.650  0.00  0.00    +0.000 A 
ATOM     30  N   UNL     1       1.302   8.276  19.944  0.00  0.00    +0.000 NA
ATOM     31  C   UNL     1       1.335   9.320  19.096  0.00  0.00    +0.000 A 
ATOM     32  C   UNL     1       2.125   9.351  17.973  0.00  0.00    +0.000 A 
ATOM     33  C   UNL     1       2.878   8.217  17.678  0.00  0.00    +0.000 A 
ATOM     34  C   UNL     1       2.815   7.044  18.477  0.00  0.00    +0.000 A 
ENDBRANCH  24  25
ENDBRANCH  23  24
ENDBRANCH   4  23
TORSDOF 7
ENDMDL
MODEL 8
REMARK VINA RESULT:      -8.9      2.451      9.751
REMARK  Name = 
REMARK  7 active torsions:
REMARK  status: ('A' for Active; 'I' for Inactive)
REMARK    1  A    between atoms: C_2  and  C_5
REMARK    2  A    between atoms: N_3  and  O_4
REMARK    3  A    between atoms: C_10  and  C_11
REMARK    4  A    between atoms: N_13  and  C_14
REMARK    5  A    between atoms: C_17  and  C_18
REMARK    6  A    between atoms: C_18  and  O_19
REMARK    7  A    between atoms: O_19  and  C_20
REMARK                            x       y       z     vdW  Elec       q    Type
REMARK                         _______ _______ _______ _____ _____    ______ ____
ROOT
ATOM      1  C   UNL     1       1.497   8.002  20.569  0.00  0.00    +0.000 A 
ATOM      2  C   UNL     1       1.241   8.698  21.753  0.00  0.00    +0.000 A 
ATOM      3  C   UNL     1       0.908  10.055  21.727  0.00  0.00    +0.000 A 
ATOM      4  C   UNL     1       0.817  10.742  20.513  0.00  0.00    +0.000 A 
ATOM      5  C   UNL     1       1.128  10.062  19.329  0.00  0.00    +0.000 A 
ATOM      6  C   UNL     1       1.476   8.701  19.359  0.00  0.00    +0.000 A 
ENDROOT
BRANCH   1   9
ATOM      7  C   UNL     1       2.762   6.013  19.760  0.00  0.00    +0.000 C 
ATOM      8  O   UNL     1       3.597   6.608  19.079  0.00  0.00    +0.000 OA
ATOM      9  N   UNL     1       1.791   6.620  20.540  0.00  0.00    +0.000 N 
ATOM     10  H   UNL     1       1.333   6.051  21.243  0.00  0.00    +0.000 HD
BRANCH   7  16
ATOM     11  C   UNL     1       3.051   3.826  18.467  0.00  0.00    +0.000 C 
ATOM     12  C   UNL     1       2.773   2.305  18.510  0.00  0.00    +0.000 C 
ATOM     13  C   UNL     1       1.407   1.948  19.067  0.00  0.00    +0.000 C 
ATOM     14  C   UNL     1       1.222   2.542  20.451  0.00  0.00    +0.000 C 
ATOM     15  C   UNL     1       1.412   4.050  20.422  0.00  0.00    +0.000 C 
ATOM     16  C   UNL     1       2.781   4.482  19.854  0.00  0.00    +0.000 C 
BRANCH  11  18
ATOM     17  O   UNL     1       4.725   4.289  16.753  0.00  0.00    +0.000 OA
ATOM     18  C   UNL     1       4.485   3.979  17.925  0.00  0.00    +0.000 C 
ATOM     19  N   UNL     1       5.523   3.830  18.806  0.00  0.00    +0.000 N 
ATOM     20  H   UNL     1       5.399   4.090  19.789  0.00  0.00    +0.000 HD
BRANCH  19  21
ATOM     21  O   UNL     1       6.795   4.146  18.252  0.00  0.00    +0.000 OA
ATOM     22  H   UNL     1       7.351   4.245  19.061  0.00  0.00    +0.000 HD
ENDBRANCH  19  21
ENDBRANCH  11  18
ENDBRANCH   7  16
ENDBRANCH   1   9
BRANCH   4  23
ATOM     23  C   UNL     1       0.370  12.186  20.491  0.00  0.00    +0.000 C 
BRANCH  23  24
ATOM     24  O   UNL     1      -0.290  12.465  19.270  0.00  0.00    +0.000 OA
BRANCH  24  25
ATOM     25  C   UNL     1      -1.651  12.328  19.161  0.00  0.00    +0.000 A 
ATOM     26  C   UNL     1      -2.282  12.847  20.304  0.00  0.00    +0.000 A 
ATOM     27  C   UNL     1      -3.662  12.817  20.435  0.00  0.00    +0.000 A 
ATOM     28  C   UNL     1      -4.422  12.215  19.442  0.00  0.00    +0.000 A 
ATOM     29  C   UNL     1      -3.845  11.666  18.309  0.00  0.00    +0.000 A 
ATOM     30  N   UNL     1      -4.689  11.071  17.447  0.00  0.00    +0.000 NA
ATOM     31  C   UNL     1      -4.191  10.553  16.310  0.00  0.00    +0.000 A 
ATOM     32  C   UNL     1      -2.869  10.656  15.954  0.00  0.00    +0.000 A 
ATOM     33  C   UNL     1      -2.001  11.278  16.849  0.00  0.00    +0.000 A 
ATOM     34  C   UNL     1      -2.443  11.760  18.110  0.00  0.00    +0.000 A 
ENDBRANCH  24  25
ENDBRANCH  23  24
ENDBRANCH   4  23
TORSDOF 7
ENDMDL
MODEL 9
REMARK VINA RESULT:      -8.8      2.869     10.267
REMARK  Name = 
REMARK  7 active torsions:
REMARK  status: ('A' for Active; 'I' for Inactive)
REMARK    1  A    between atoms: C_2  and  C_5
REMARK    2  A    between atoms: N_3  and  O_4
REMARK    3  A    between atoms: C_10  and  C_11
REMARK    4  A    between atoms: N_13  and  C_14
REMARK    5  A    between atoms: C_17  and  C_18
REMARK    6  A    between atoms: C_18  and  O_19
REMARK    7  A    between atoms: O_19  and  C_20
REMARK                            x       y       z     vdW  Elec       q    Type
REMARK                         _______ _______ _______ _____ _____    ______ ____
ROOT
ATOM      1  C   UNL     1       2.817   7.520  18.453  0.00  0.00    +0.000 A 
ATOM      2  C   UNL     1       2.300   7.362  19.741  0.00  0.00    +0.000 A 
ATOM      3  C   UNL     1       1.337   8.244  20.239  0.00  0.00    +0.000 A 
ATOM      4  C   UNL     1       0.867   9.300  19.454  0.00  0.00    +0.000 A 
ATOM      5  C   UNL     1       1.425   9.496  18.184  0.00  0.00    +0.000 A 
ATOM      6  C   UNL     1       2.402   8.616  17.691  0.00  0.00    +0.000 A 
ENDROOT
BRANCH   1   9
ATOM      7  C   UNL     1       3.592   5.260  17.746  0.00  0.00    +0.000 C 
ATOM      8  O   UNL     1       2.549   4.645  17.968  0.00  0.00    +0.000 OA
ATOM      9  N   UNL     1       3.756   6.628  17.889  0.00  0.00    +0.000 N 
ATOM     10  H   UNL     1       4.562   7.051  17.443  0.00  0.00    +0.000 HD
BRANCH   7  16
ATOM     11  C   UNL     1       6.145   5.247  17.608  0.00  0.00    +0.000 C 
ATOM     12  C   UNL     1       7.348   4.687  16.815  0.00  0.00    +0.000 C 
ATOM     13  C   UNL     1       7.136   4.666  15.312  0.00  0.00    +0.000 C 
ATOM     14  C   UNL     1       5.882   3.887  14.960  0.00  0.00    +0.000 C 
ATOM     15  C   UNL     1       4.668   4.468  15.666  0.00  0.00    +0.000 C 
ATOM     16  C   UNL     1       4.825   4.528  17.201  0.00  0.00    +0.000 C 
BRANCH  11  18
ATOM     17  O   UNL     1       5.852   4.519  19.918  0.00  0.00    +0.000 OA
ATOM     18  C   UNL     1       6.532   5.141  19.095  0.00  0.00    +0.000 C 
ATOM     19  N   UNL     1       7.716   5.705  19.491  0.00  0.00    +0.000 N 
ATOM     20  H   UNL     1       8.503   5.749  18.838  0.00  0.00    +0.000 HD
BRANCH  19  21
ATOM     21  O   UNL     1       8.065   5.419  20.840  0.00  0.00    +0.000 OA
ATOM     22  H   UNL     1       7.399   4.731  21.081  0.00  0.00    +0.000 HD
ENDBRANCH  19  21
ENDBRANCH  11  18
ENDBRANCH   7  16
ENDBRANCH   1   9
BRANCH   4  23
ATOM     23  C   UNL     1      -0.237  10.195  19.970  0.00  0.00    +0.000 C 
BRANCH  23  24
ATOM     24  O   UNL     1       0.087  10.654  21.270  0.00  0.00    +0.000 OA
BRANCH  24  25
ATOM     25  C   UNL     1      -0.151  11.956  21.634  0.00  0.00    +0.000 A 
ATOM     26  C   UNL     1       0.828  12.798  21.081  0.00  0.00    +0.000 A 
ATOM     27  C   UNL     1       0.810  14.165  21.313  0.00  0.00    +0.000 A 
ATOM     28  C   UNL     1      -0.164  14.696  22.148  0.00  0.00    +0.000 A 
ATOM     29  C   UNL     1      -1.135  13.903  22.737  0.00  0.00    +0.000 A 
ATOM     30  N   UNL     1      -1.989  14.534  23.563  0.00  0.00    +0.000 NA
ATOM     31  C   UNL     1      -2.978  13.823  24.134  0.00  0.00    +0.000 A 
ATOM     32  C   UNL     1      -3.197  12.493  23.868  0.00  0.00    +0.000 A 
ATOM     33  C   UNL     1      -2.311  11.848  23.009  0.00  0.00    +0.000 A 
ATOM     34  C   UNL     1      -1.189  12.514  22.448  0.00  0.00    +0.000 A 
ENDBRANCH  24  25
ENDBRANCH  23  24
ENDBRANCH   4  23
TORSDOF 7
ENDMDL
