MODEL 1
REMARK VINA RESULT:      -9.3      0.000      0.000
REMARK  Name = 
REMARK  3 active torsions:
REMARK  status: ('A' for Active; 'I' for Inactive)
REMARK    1  A    between atoms: C_1  and  C_2
REMARK    2  A    between atoms: C_5  and  C_6
REMARK    3  A    between atoms: C_9  and  O_10
REMARK                            x       y       z     vdW  Elec       q    Type
REMARK                         _______ _______ _______ _____ _____    ______ ____
ROOT
ATOM      1  C   UNL     1       3.010   5.984  19.998  0.00  0.00    +0.000 C 
ATOM      2  C   UNL     1       3.970   5.381  18.992  0.00  0.00    +0.000 A 
ATOM      3  C   UNL     1       5.336   5.224  19.075  0.00  0.00    +0.000 A 
ATOM      4  C   UNL     1       5.966   4.605  17.996  0.00  0.00    +0.000 A 
ATOM      5  C   UNL     1       5.278   4.294  16.820  0.00  0.00    +0.000 A 
ATOM      6  C   UNL     1       3.886   4.345  16.804  0.00  0.00    +0.000 A 
ATOM      7  C   UNL     1       3.250   4.741  17.968  0.00  0.00    +0.000 A 
ATOM      8  C   UNL     1       1.810   4.547  18.396  0.00  0.00    +0.000 C 
ATOM      9  N   UNL     1       1.231   3.251  18.049  0.00  0.00    +0.000 NA
ATOM     10  C   UNL     1       1.393   2.145  18.991  0.00  0.00    +0.000 C 
ATOM     11  C   UNL     1       1.477   2.479  20.480  0.00  0.00    +0.000 C 
ATOM     12  C   UNL     1       2.431   3.624  20.723  0.00  0.00    +0.000 C 
ATOM     13  C   UNL     1       1.947   4.853  19.921  0.00  0.00    +0.000 C 
ATOM     14  H   UNL     1       0.247   3.374  17.829  0.00  0.00    +0.000 HD
ENDROOT
BRANCH   1  19
ATOM     15  C   UNL     1       0.104  10.835  18.428  0.00  0.00    +0.000 C 
ATOM     16  C   UNL     1       0.913   9.641  18.836  0.00  0.00    +0.000 A 
ATOM     17  C   UNL     1       1.769   9.010  17.929  0.00  0.00    +0.000 A 
ATOM     18  C   UNL     1       2.496   7.874  18.309  0.00  0.00    +0.000 A 
ATOM     19  C   UNL     1       2.384   7.327  19.601  0.00  0.00    +0.000 A 
ATOM     20  C   UNL     1       1.561   8.006  20.521  0.00  0.00    +0.000 A 
ATOM     21  C   UNL     1       0.839   9.144  20.140  0.00  0.00    +0.000 A 
ENDBRANCH   1  19
BRANCH   4  22
ATOM     22  O   UNL     1       7.262   4.198  18.118  0.00  0.00    +0.000 OA
ATOM     23  H   UNL     1       7.207   3.310  18.518  0.00  0.00    +0.000 HD
ENDBRANCH   4  22
TORSDOF 2
ENDMDL
MODEL 2
REMARK VINA RESULT:      -9.2      0.272      1.081
REMARK  Name = 
REMARK  3 active torsions:
REMARK  status: ('A' for Active; 'I' for Inactive)
REMARK    1  A    between atoms: C_1  and  C_2
REMARK    2  A    between atoms: C_5  and  C_6
REMARK    3  A    between atoms: C_9  and  O_10
REMARK                            x       y       z     vdW  Elec       q    Type
REMARK                         _______ _______ _______ _____ _____    ______ ____
ROOT
ATOM      1  C   UNL     1       2.892   5.965  20.051  0.00  0.00    +0.000 C 
ATOM      2  C   UNL     1       3.862   5.355  19.058  0.00  0.00    +0.000 A 
ATOM      3  C   UNL     1       5.231   5.236  19.136  0.00  0.00    +0.000 A 
ATOM      4  C   UNL     1       5.871   4.598  18.073  0.00  0.00    +0.000 A 
ATOM      5  C   UNL     1       5.183   4.232  16.914  0.00  0.00    +0.000 A 
ATOM      6  C   UNL     1       3.790   4.246  16.906  0.00  0.00    +0.000 A 
ATOM      7  C   UNL     1       3.152   4.663  18.061  0.00  0.00    +0.000 A 
ATOM      8  C   UNL     1       1.721   4.446  18.506  0.00  0.00    +0.000 C 
ATOM      9  N   UNL     1       1.173   3.124  18.206  0.00  0.00    +0.000 NA
ATOM     10  C   UNL     1       1.370   2.055  19.183  0.00  0.00    +0.000 C 
ATOM     11  C   UNL     1       1.456   2.440  20.659  0.00  0.00    +0.000 C 
ATOM     12  C   UNL     1       2.381   3.617  20.857  0.00  0.00    +0.000 C 
ATOM     13  C   UNL     1       1.859   4.805  20.019  0.00  0.00    +0.000 C 
ATOM     14  H   UNL     1       0.185   3.214  17.989  0.00  0.00    +0.000 HD
ENDROOT
BRANCH   1  19
ATOM     15  C   UNL     1       0.877  11.249  18.482  0.00  0.00    +0.000 C 
ATOM     16  C   UNL     1       1.318   9.869  18.866  0.00  0.00    +0.000 A 
ATOM     17  C   UNL     1       0.961   9.319  20.100  0.00  0.00    +0.000 A 
ATOM     18  C   UNL     1       1.408   8.042  20.465  0.00  0.00    +0.000 A 
ATOM     19  C   UNL     1       2.229   7.278  19.615  0.00  0.00    +0.000 A 
ATOM     20  C   UNL     1       2.534   7.822  18.352  0.00  0.00    +0.000 A 
ATOM     21  C   UNL     1       2.084   9.097  17.988  0.00  0.00    +0.000 A 
ENDBRANCH   1  19
BRANCH   4  22
ATOM     22  O   UNL     1       7.177   4.230  18.199  0.00  0.00    +0.000 OA
ATOM     23  H   UNL     1       7.218   3.740  19.041  0.00  0.00    +0.000 HD
ENDBRANCH   4  22
TORSDOF 2
ENDMDL
MODEL 3
REMARK VINA RESULT:      -8.4      2.087      3.743
REMARK  Name = 
REMARK  3 active torsions:
REMARK  status: ('A' for Active; 'I' for Inactive)
REMARK    1  A    between atoms: C_1  and  C_2
REMARK    2  A    between atoms: C_5  and  C_6
REMARK    3  A    between atoms: C_9  and  O_10
REMARK                            x       y       z     vdW  Elec       q    Type
REMARK                         _______ _______ _______ _____ _____    ______ ____
ROOT
ATOM      1  C   UNL     1       2.641   6.327  17.834  0.00  0.00    +0.000 C 
ATOM      2  C   UNL     1       2.399   4.949  18.416  0.00  0.00    +0.000 A 
ATOM      3  C   UNL     1       1.519   3.971  18.009  0.00  0.00    +0.000 A 
ATOM      4  C   UNL     1       1.530   2.775  18.724  0.00  0.00    +0.000 A 
ATOM      5  C   UNL     1       2.283   2.621  19.891  0.00  0.00    +0.000 A 
ATOM      6  C   UNL     1       3.253   3.567  20.213  0.00  0.00    +0.000 A 
ATOM      7  C   UNL     1       3.397   4.647  19.359  0.00  0.00    +0.000 A 
ATOM      8  C   UNL     1       4.556   5.611  19.208  0.00  0.00    +0.000 C 
ATOM      9  N   UNL     1       5.882   5.004  19.308  0.00  0.00    +0.000 NA
ATOM     10  C   UNL     1       6.496   4.475  18.092  0.00  0.00    +0.000 C 
ATOM     11  C   UNL     1       6.152   5.148  16.764  0.00  0.00    +0.000 C 
ATOM     12  C   UNL     1       4.663   5.370  16.642  0.00  0.00    +0.000 C 
ATOM     13  C   UNL     1       4.193   6.242  17.827  0.00  0.00    +0.000 C 
ATOM     14  H   UNL     1       6.516   5.661  19.755  0.00  0.00    +0.000 HD
ENDROOT
BRANCH   1  19
ATOM     15  C   UNL     1       0.331  10.600  21.129  0.00  0.00    +0.000 C 
ATOM     16  C   UNL     1       0.993   9.545  20.293  0.00  0.00    +0.000 A 
ATOM     17  C   UNL     1       1.304   9.783  18.952  0.00  0.00    +0.000 A 
ATOM     18  C   UNL     1       1.891   8.780  18.170  0.00  0.00    +0.000 A 
ATOM     19  C   UNL     1       2.178   7.507  18.698  0.00  0.00    +0.000 A 
ATOM     20  C   UNL     1       1.911   7.301  20.066  0.00  0.00    +0.000 A 
ATOM     21  C   UNL     1       1.328   8.306  20.847  0.00  0.00    +0.000 A 
ENDBRANCH   1  19
BRANCH   4  22
ATOM     22  O   UNL     1       0.871   1.688  18.228  0.00  0.00    +0.000 OA
ATOM     23  H   UNL     1       1.553   0.995  18.157  0.00  0.00    +0.000 HD
ENDBRANCH   4  22
TORSDOF 2
ENDMDL
MODEL 4
REMARK VINA RESULT:      -8.4      2.371      3.774
REMARK  Name = 
REMARK  3 active torsions:
REMARK  status: ('A' for Active; 'I' for Inactive)
REMARK    1  A    between atoms: C_1  and  C_2
REMARK    2  A    between atoms: C_5  and  C_6
REMARK    3  A    between atoms: C_9  and  O_10
REMARK                            x       y       z     vdW  Elec       q    Type
REMARK                         _______ _______ _______ _____ _____    ______ ____
ROOT
ATOM      1  C   UNL     1       4.145   5.428  18.294  0.00  0.00    +0.000 C 
ATOM      2  C   UNL     1       5.598   5.777  18.549  0.00  0.00    +0.000 A 
ATOM      3  C   UNL     1       6.444   5.322  19.536  0.00  0.00    +0.000 A 
ATOM      4  C   UNL     1       7.754   5.799  19.513  0.00  0.00    +0.000 A 
ATOM      5  C   UNL     1       8.156   6.805  18.630  0.00  0.00    +0.000 A 
ATOM      6  C   UNL     1       7.327   7.158  17.566  0.00  0.00    +0.000 A 
ATOM      7  C   UNL     1       6.113   6.503  17.461  0.00  0.00    +0.000 A 
ATOM      8  C   UNL     1       5.186   6.372  16.271  0.00  0.00    +0.000 C 
ATOM      9  N   UNL     1       5.853   6.178  14.985  0.00  0.00    +0.000 NA
ATOM     10  C   UNL     1       6.168   4.814  14.566  0.00  0.00    +0.000 C 
ATOM     11  C   UNL     1       5.242   3.691  15.032  0.00  0.00    +0.000 C 
ATOM     12  C   UNL     1       4.941   3.816  16.506  0.00  0.00    +0.000 C 
ATOM     13  C   UNL     1       4.290   5.193  16.764  0.00  0.00    +0.000 C 
ATOM     14  H   UNL     1       5.319   6.647  14.259  0.00  0.00    +0.000 HD
ENDROOT
BRANCH   1  19
ATOM     15  C   UNL     1       0.733  10.076  19.386  0.00  0.00    +0.000 C 
ATOM     16  C   UNL     1       1.537   8.844  19.099  0.00  0.00    +0.000 A 
ATOM     17  C   UNL     1       1.735   7.871  20.083  0.00  0.00    +0.000 A 
ATOM     18  C   UNL     1       2.517   6.740  19.817  0.00  0.00    +0.000 A 
ATOM     19  C   UNL     1       3.132   6.548  18.565  0.00  0.00    +0.000 A 
ATOM     20  C   UNL     1       2.877   7.507  17.566  0.00  0.00    +0.000 A 
ATOM     21  C   UNL     1       2.092   8.636  17.833  0.00  0.00    +0.000 A 
ENDBRANCH   1  19
BRANCH   4  22
ATOM     22  O   UNL     1       8.699   5.209  20.299  0.00  0.00    +0.000 OA
ATOM     23  H   UNL     1       9.406   4.945  19.682  0.00  0.00    +0.000 HD
ENDBRANCH   4  22
TORSDOF 2
ENDMDL
MODEL 5
REMARK VINA RESULT:      -8.1      3.022      6.183
REMARK  Name = 
REMARK  3 active torsions:
REMARK  status: ('A' for Active; 'I' for Inactive)
REMARK    1  A    between atoms: C_1  and  C_2
REMARK    2  A    between atoms: C_5  and  C_6
REMARK    3  A    between atoms: C_9  and  O_10
REMARK                            x       y       z     vdW  Elec       q    Type
REMARK                         _______ _______ _______ _____ _____    ______ ____
ROOT
ATOM      1  C   UNL     1       5.451   6.238  16.044  0.00  0.00    +0.000 C 
ATOM      2  C   UNL     1       6.487   6.427  17.134  0.00  0.00    +0.000 A 
ATOM      3  C   UNL     1       7.286   7.517  17.399  0.00  0.00    +0.000 A 
ATOM      4  C   UNL     1       8.139   7.421  18.498  0.00  0.00    +0.000 A 
ATOM      5  C   UNL     1       8.295   6.228  19.207  0.00  0.00    +0.000 A 
ATOM      6  C   UNL     1       7.394   5.184  19.005  0.00  0.00    +0.000 A 
ATOM      7  C   UNL     1       6.394   5.380  18.067  0.00  0.00    +0.000 A 
ATOM      8  C   UNL     1       5.086   4.641  17.883  0.00  0.00    +0.000 C 
ATOM      9  N   UNL     1       4.401   4.276  19.122  0.00  0.00    +0.000 NA
ATOM     10  C   UNL     1       3.479   5.242  19.715  0.00  0.00    +0.000 C 
ATOM     11  C   UNL     1       2.732   6.189  18.776  0.00  0.00    +0.000 C 
ATOM     12  C   UNL     1       3.672   6.795  17.762  0.00  0.00    +0.000 C 
ATOM     13  C   UNL     1       4.339   5.655  16.960  0.00  0.00    +0.000 C 
ATOM     14  H   UNL     1       3.930   3.385  18.992  0.00  0.00    +0.000 HD
ENDROOT
BRANCH   1  19
ATOM     15  C   UNL     1       6.821   2.836  11.461  0.00  0.00    +0.000 C 
ATOM     16  C   UNL     1       6.477   3.640  12.680  0.00  0.00    +0.000 A 
ATOM     17  C   UNL     1       5.197   3.584  13.238  0.00  0.00    +0.000 A 
ATOM     18  C   UNL     1       4.875   4.365  14.356  0.00  0.00    +0.000 A 
ATOM     19  C   UNL     1       5.815   5.231  14.945  0.00  0.00    +0.000 A 
ATOM     20  C   UNL     1       7.116   5.234  14.407  0.00  0.00    +0.000 A 
ATOM     21  C   UNL     1       7.438   4.450  13.291  0.00  0.00    +0.000 A 
ENDBRANCH   1  19
BRANCH   4  22
ATOM     22  O   UNL     1       8.768   8.539  18.960  0.00  0.00    +0.000 OA
ATOM     23  H   UNL     1       9.716   8.310  18.960  0.00  0.00    +0.000 HD
ENDBRANCH   4  22
TORSDOF 2
ENDMDL
MODEL 6
REMARK VINA RESULT:      -8.0      2.441      3.570
REMARK  Name = 
REMARK  3 active torsions:
REMARK  status: ('A' for Active; 'I' for Inactive)
REMARK    1  A    between atoms: C_1  and  C_2
REMARK    2  A    between atoms: C_5  and  C_6
REMARK    3  A    between atoms: C_9  and  O_10
REMARK                            x       y       z     vdW  Elec       q    Type
REMARK                         _______ _______ _______ _____ _____    ______ ____
ROOT
ATOM      1  C   UNL     1       4.087   5.691  18.346  0.00  0.00    +0.000 C 
ATOM      2  C   UNL     1       5.567   5.916  18.581  0.00  0.00    +0.000 A 
ATOM      3  C   UNL     1       6.379   5.416  19.575  0.00  0.00    +0.000 A 
ATOM      4  C   UNL     1       7.726   5.774  19.529  0.00  0.00    +0.000 A 
ATOM      5  C   UNL     1       8.207   6.714  18.614  0.00  0.00    +0.000 A 
ATOM      6  C   UNL     1       7.404   7.109  17.547  0.00  0.00    +0.000 A 
ATOM      7  C   UNL     1       6.135   6.562  17.469  0.00  0.00    +0.000 A 
ATOM      8  C   UNL     1       5.189   6.481  16.290  0.00  0.00    +0.000 C 
ATOM      9  N   UNL     1       5.824   6.192  15.005  0.00  0.00    +0.000 NA
ATOM     10  C   UNL     1       6.013   4.794  14.624  0.00  0.00    +0.000 C 
ATOM     11  C   UNL     1       4.995   3.771  15.129  0.00  0.00    +0.000 C 
ATOM     12  C   UNL     1       4.720   3.964  16.600  0.00  0.00    +0.000 C 
ATOM     13  C   UNL     1       4.196   5.401  16.823  0.00  0.00    +0.000 C 
ATOM     14  H   UNL     1       5.327   6.685  14.269  0.00  0.00    +0.000 HD
ENDROOT
BRANCH   1  19
ATOM     15  C   UNL     1       0.159   9.961  19.229  0.00  0.00    +0.000 C 
ATOM     16  C   UNL     1       1.221   8.925  19.013  0.00  0.00    +0.000 A 
ATOM     17  C   UNL     1       1.897   8.834  17.794  0.00  0.00    +0.000 A 
ATOM     18  C   UNL     1       2.864   7.840  17.589  0.00  0.00    +0.000 A 
ATOM     19  C   UNL     1       3.180   6.904  18.591  0.00  0.00    +0.000 A 
ATOM     20  C   UNL     1       2.532   7.043  19.834  0.00  0.00    +0.000 A 
ATOM     21  C   UNL     1       1.569   8.039  20.037  0.00  0.00    +0.000 A 
ENDBRANCH   1  19
BRANCH   4  22
ATOM     22  O   UNL     1       8.622   5.124  20.326  0.00  0.00    +0.000 OA
ATOM     23  H   UNL     1       8.877   5.781  21.000  0.00  0.00    +0.000 HD
ENDBRANCH   4  22
TORSDOF 2
ENDMDL
MODEL 7
REMARK VINA RESULT:      -8.0      2.182      3.881
REMARK  Name = 
REMARK  3 active torsions:
REMARK  status: ('A' for Active; 'I' for Inactive)
REMARK    1  A    between atoms: C_1  and  C_2
REMARK    2  A    between atoms: C_5  and  C_6
REMARK    3  A    between atoms: C_9  and  O_10
REMARK                            x       y       z     vdW  Elec       q    Type
REMARK                         _______ _______ _______ _____ _____    ______ ____
ROOT
ATOM      1  C   UNL     1       3.305   6.290  17.574  0.00  0.00    +0.000 C 
ATOM      2  C   UNL     1       3.247   4.848  18.036  0.00  0.00    +0.000 A 
ATOM      3  C   UNL     1       2.648   3.762  17.435  0.00  0.00    +0.000 A 
ATOM      4  C   UNL     1       2.778   2.533  18.080  0.00  0.00    +0.000 A 
ATOM      5  C   UNL     1       3.354   2.425  19.349  0.00  0.00    +0.000 A 
ATOM      6  C   UNL     1       4.060   3.502  19.879  0.00  0.00    +0.000 A 
ATOM      7  C   UNL     1       4.124   4.657  19.117  0.00  0.00    +0.000 A 
ATOM      8  C   UNL     1       5.082   5.825  19.214  0.00  0.00    +0.000 C 
ATOM      9  N   UNL     1       6.469   5.465  19.507  0.00  0.00    +0.000 NA
ATOM     10  C   UNL     1       7.357   5.159  18.388  0.00  0.00    +0.000 C 
ATOM     11  C   UNL     1       7.101   5.864  17.057  0.00  0.00    +0.000 C 
ATOM     12  C   UNL     1       5.636   5.820  16.695  0.00  0.00    +0.000 C 
ATOM     13  C   UNL     1       4.825   6.491  17.826  0.00  0.00    +0.000 C 
ATOM     14  H   UNL     1       6.885   6.188  20.089  0.00  0.00    +0.000 HD
ENDROOT
BRANCH   1  19
ATOM     15  C   UNL     1       0.695  10.429  20.815  0.00  0.00    +0.000 C 
ATOM     16  C   UNL     1       1.290   9.334  19.981  0.00  0.00    +0.000 A 
ATOM     17  C   UNL     1       1.587   8.088  20.540  0.00  0.00    +0.000 A 
ATOM     18  C   UNL     1       2.175   7.082  19.762  0.00  0.00    +0.000 A 
ATOM     19  C   UNL     1       2.492   7.290  18.406  0.00  0.00    +0.000 A 
ATOM     20  C   UNL     1       2.135   8.531  17.843  0.00  0.00    +0.000 A 
ATOM     21  C   UNL     1       1.544   9.534  18.622  0.00  0.00    +0.000 A 
ENDBRANCH   1  19
BRANCH   4  22
ATOM     22  O   UNL     1       2.429   1.390  17.425  0.00  0.00    +0.000 OA
ATOM     23  H   UNL     1       1.513   1.543  17.128  0.00  0.00    +0.000 HD
ENDBRANCH   4  22
TORSDOF 2
ENDMDL
MODEL 8
REMARK VINA RESULT:      -8.0      1.359      1.874
REMARK  Name = 
REMARK  3 active torsions:
REMARK  status: ('A' for Active; 'I' for Inactive)
REMARK    1  A    between atoms: C_1  and  C_2
REMARK    2  A    between atoms: C_5  and  C_6
REMARK    3  A    between atoms: C_9  and  O_10
REMARK                            x       y       z     vdW  Elec       q    Type
REMARK                         _______ _______ _______ _____ _____    ______ ____
ROOT
ATOM      1  C   UNL     1       4.142   5.609  19.074  0.00  0.00    +0.000 C 
ATOM      2  C   UNL     1       4.873   5.217  17.806  0.00  0.00    +0.000 A 
ATOM      3  C   UNL     1       6.199   5.387  17.475  0.00  0.00    +0.000 A 
ATOM      4  C   UNL     1       6.607   4.898  16.235  0.00  0.00    +0.000 A 
ATOM      5  C   UNL     1       5.694   4.396  15.304  0.00  0.00    +0.000 A 
ATOM      6  C   UNL     1       4.388   4.118  15.703  0.00  0.00    +0.000 A 
ATOM      7  C   UNL     1       4.052   4.392  17.018  0.00  0.00    +0.000 A 
ATOM      8  C   UNL     1       2.892   3.879  17.845  0.00  0.00    +0.000 C 
ATOM      9  N   UNL     1       2.557   2.472  17.635  0.00  0.00    +0.000 NA
ATOM     10  C   UNL     1       3.245   1.467  18.443  0.00  0.00    +0.000 C 
ATOM     11  C   UNL     1       3.687   1.861  19.851  0.00  0.00    +0.000 C 
ATOM     12  C   UNL     1       4.374   3.205  19.845  0.00  0.00    +0.000 C 
ATOM     13  C   UNL     1       3.400   4.258  19.272  0.00  0.00    +0.000 C 
ATOM     14  H   UNL     1       1.551   2.353  17.721  0.00  0.00    +0.000 HD
ENDROOT
BRANCH   1  19
ATOM     15  C   UNL     1       0.721  10.359  18.649  0.00  0.00    +0.000 C 
ATOM     16  C   UNL     1       1.530   9.100  18.740  0.00  0.00    +0.000 A 
ATOM     17  C   UNL     1       1.458   8.281  19.870  0.00  0.00    +0.000 A 
ATOM     18  C   UNL     1       2.243   7.125  19.962  0.00  0.00    +0.000 A 
ATOM     19  C   UNL     1       3.131   6.754  18.934  0.00  0.00    +0.000 A 
ATOM     20  C   UNL     1       3.152   7.558  17.778  0.00  0.00    +0.000 A 
ATOM     21  C   UNL     1       2.362   8.712  17.687  0.00  0.00    +0.000 A 
ENDBRANCH   1  19
BRANCH   4  22
ATOM     22  O   UNL     1       7.938   4.811  15.951  0.00  0.00    +0.000 OA
ATOM     23  H   UNL     1       8.333   4.388  16.735  0.00  0.00    +0.000 HD
ENDBRANCH   4  22
TORSDOF 2
ENDMDL
MODEL 9
REMARK VINA RESULT:      -7.8      3.016      6.189
REMARK  Name = 
REMARK  3 active torsions:
REMARK  status: ('A' for Active; 'I' for Inactive)
REMARK    1  A    between atoms: C_1  and  C_2
REMARK    2  A    between atoms: C_5  and  C_6
REMARK    3  A    between atoms: C_9  and  O_10
REMARK                            x       y       z     vdW  Elec       q    Type
REMARK                         _______ _______ _______ _____ _____    ______ ____
ROOT
ATOM      1  C   UNL     1       5.379   6.004  15.903  0.00  0.00    +0.000 C 
ATOM      2  C   UNL     1       6.445   6.143  16.972  0.00  0.00    +0.000 A 
ATOM      3  C   UNL     1       7.131   7.265  17.380  0.00  0.00    +0.000 A 
ATOM      4  C   UNL     1       8.049   7.101  18.417  0.00  0.00    +0.000 A 
ATOM      5  C   UNL     1       8.374   5.838  18.919  0.00  0.00    +0.000 A 
ATOM      6  C   UNL     1       7.585   4.740  18.584  0.00  0.00    +0.000 A 
ATOM      7  C   UNL     1       6.521   4.959  17.727  0.00  0.00    +0.000 A 
ATOM      8  C   UNL     1       5.294   4.108  17.473  0.00  0.00    +0.000 C 
ATOM      9  N   UNL     1       4.723   3.477  18.661  0.00  0.00    +0.000 NA
ATOM     10  C   UNL     1       3.732   4.222  19.435  0.00  0.00    +0.000 C 
ATOM     11  C   UNL     1       2.836   5.209  18.688  0.00  0.00    +0.000 C 
ATOM     12  C   UNL     1       3.646   6.072  17.752  0.00  0.00    +0.000 C 
ATOM     13  C   UNL     1       4.391   5.159  16.753  0.00  0.00    +0.000 C 
ATOM     14  H   UNL     1       4.348   2.567  18.407  0.00  0.00    +0.000 HD
ENDROOT
BRANCH   1  19
ATOM     15  C   UNL     1       6.995   2.564  11.431  0.00  0.00    +0.000 C 
ATOM     16  C   UNL     1       6.578   3.505  12.522  0.00  0.00    +0.000 A 
ATOM     17  C   UNL     1       7.489   4.404  13.081  0.00  0.00    +0.000 A 
ATOM     18  C   UNL     1       7.100   5.255  14.123  0.00  0.00    +0.000 A 
ATOM     19  C   UNL     1       5.793   5.231  14.645  0.00  0.00    +0.000 A 
ATOM     20  C   UNL     1       4.870   4.359  14.033  0.00  0.00    +0.000 A 
ATOM     21  C   UNL     1       5.261   3.512  12.989  0.00  0.00    +0.000 A 
ENDBRANCH   1  19
BRANCH   4  22
ATOM     22  O   UNL     1       8.574   8.199  19.031  0.00  0.00    +0.000 OA
ATOM     23  H   UNL     1       8.724   8.839  18.310  0.00  0.00    +0.000 HD
ENDBRANCH   4  22
TORSDOF 2
ENDMDL
