MODEL 1
REMARK VINA RESULT:      -8.9      0.000      0.000
REMARK  Name = 
REMARK  6 active torsions:
REMARK  status: ('A' for Active; 'I' for Inactive)
REMARK    1  A    between atoms: C_1  and  C_2
REMARK    2  A    between atoms: C_6  and  N_7
REMARK    3  A    between atoms: C_11  and  C_13
REMARK    4  A    between atoms: C_15  and  C_16
REMARK    5  A    between atoms: C_23  and  C_24
REMARK    6  A    between atoms: C_27  and  C_28
REMARK                            x       y       z     vdW  Elec       q    Type
REMARK                         _______ _______ _______ _____ _____    ______ ____
ROOT
ATOM      1  N   UNL     1       1.501   7.503  19.875  0.00  0.00    +0.000 N 
ATOM      2  C   UNL     1       1.920   6.334  20.695  0.00  0.00    +0.000 C 
ATOM      3  C   UNL     1       2.153   5.119  19.783  0.00  0.00    +0.000 C 
ATOM      4  N   UNL     1       3.193   5.412  18.794  0.00  0.00    +0.000 N 
ATOM      5  C   UNL     1       4.386   4.681  18.857  0.00  0.00    +0.000 C 
ATOM      6  O   UNL     1       4.595   3.894  19.781  0.00  0.00    +0.000 OA
ATOM      7  C   UNL     1       2.894   6.624  18.000  0.00  0.00    +0.000 C 
ATOM      8  C   UNL     1       2.545   7.852  18.876  0.00  0.00    +0.000 C 
ENDROOT
BRANCH   1  14
ATOM      9  C   UNL     1      -0.471  12.142  19.919  0.00  0.00    +0.000 C 
ATOM     10  C   UNL     1      -0.007  10.885  20.609  0.00  0.00    +0.000 A 
ATOM     11  C   UNL     1      -0.019  10.856  22.008  0.00  0.00    +0.000 A 
ATOM     12  C   UNL     1       0.418   9.729  22.685  0.00  0.00    +0.000 A 
ATOM     13  C   UNL     1       0.912   8.636  21.973  0.00  0.00    +0.000 A 
ATOM     14  C   UNL     1       0.968   8.617  20.565  0.00  0.00    +0.000 A 
ATOM     15  C   UNL     1       0.441   9.748  19.878  0.00  0.00    +0.000 A 
ATOM     16  C   UNL     1       0.320   9.785  18.371  0.00  0.00    +0.000 C 
ENDBRANCH   1  14
BRANCH   5  17
ATOM     17  C   UNL     1       5.376   4.827  17.784  0.00  0.00    +0.000 A 
ATOM     18  C   UNL     1       5.254   4.436  16.421  0.00  0.00    +0.000 A 
ATOM     19  C   UNL     1       6.413   4.748  15.742  0.00  0.00    +0.000 A 
ATOM     20  N   UNL     1       7.285   5.238  16.679  0.00  0.00    +0.000 N 
ATOM     21  C   UNL     1       6.696   5.262  17.922  0.00  0.00    +0.000 A 
ATOM     22  C   UNL     1       7.494   5.682  19.111  0.00  0.00    +0.000 C 
ATOM     23  H   UNL     1       8.245   5.492  16.494  0.00  0.00    +0.000 HD
BRANCH  19  24
ATOM     24  C   UNL     1       6.728   4.579  14.329  0.00  0.00    +0.000 A 
ATOM     25  C   UNL     1       7.651   5.409  13.677  0.00  0.00    +0.000 A 
ATOM     26  C   UNL     1       7.902   5.253  12.317  0.00  0.00    +0.000 A 
ATOM     27  C   UNL     1       7.232   4.271  11.587  0.00  0.00    +0.000 A 
ATOM     28  C   UNL     1       6.312   3.440  12.221  0.00  0.00    +0.000 A 
ATOM     29  C   UNL     1       6.062   3.589  13.587  0.00  0.00    +0.000 A 
ENDBRANCH  19  24
ENDBRANCH   5  17
TORSDOF 3
ENDMDL
MODEL 2
REMARK VINA RESULT:      -8.8      0.984      1.458
REMARK  Name = 
REMARK  6 active torsions:
REMARK  status: ('A' for Active; 'I' for Inactive)
REMARK    1  A    between atoms: C_1  and  C_2
REMARK    2  A    between atoms: C_6  and  N_7
REMARK    3  A    between atoms: C_11  and  C_13
REMARK    4  A    between atoms: C_15  and  C_16
REMARK    5  A    between atoms: C_23  and  C_24
REMARK    6  A    between atoms: C_27  and  C_28
REMARK                            x       y       z     vdW  Elec       q    Type
REMARK                         _______ _______ _______ _____ _____    ______ ____
ROOT
ATOM      1  N   UNL     1       1.416   8.352  19.322  0.00  0.00    +0.000 N 
ATOM      2  C   UNL     1       2.076   7.521  20.365  0.00  0.00    +0.000 C 
ATOM      3  C   UNL     1       2.403   6.134  19.792  0.00  0.00    +0.000 C 
ATOM      4  N   UNL     1       3.295   6.255  18.636  0.00  0.00    +0.000 N 
ATOM      5  C   UNL     1       4.584   5.717  18.741  0.00  0.00    +0.000 C 
ATOM      6  O   UNL     1       4.991   5.255  19.808  0.00  0.00    +0.000 OA
ATOM      7  C   UNL     1       2.751   7.147  17.591  0.00  0.00    +0.000 C 
ATOM      8  C   UNL     1       2.303   8.524  18.141  0.00  0.00    +0.000 C 
ENDROOT
BRANCH   1  14
ATOM      9  C   UNL     1      -1.670  12.255  18.510  0.00  0.00    +0.000 C 
ATOM     10  C   UNL     1      -0.725  11.461  19.376  0.00  0.00    +0.000 A 
ATOM     11  C   UNL     1      -0.382  11.979  20.629  0.00  0.00    +0.000 A 
ATOM     12  C   UNL     1       0.498  11.294  21.449  0.00  0.00    +0.000 A 
ATOM     13  C   UNL     1       1.079  10.105  21.009  0.00  0.00    +0.000 A 
ATOM     14  C   UNL     1       0.788   9.546  19.749  0.00  0.00    +0.000 A 
ATOM     15  C   UNL     1      -0.180  10.217  18.947  0.00  0.00    +0.000 A 
ATOM     16  C   UNL     1      -0.675   9.642  17.640  0.00  0.00    +0.000 C 
ENDBRANCH   1  14
BRANCH   5  17
ATOM     17  C   UNL     1       5.442   5.668  17.551  0.00  0.00    +0.000 A 
ATOM     18  C   UNL     1       5.218   4.954  16.341  0.00  0.00    +0.000 A 
ATOM     19  C   UNL     1       6.267   5.171  15.472  0.00  0.00    +0.000 A 
ATOM     20  N   UNL     1       7.181   5.929  16.158  0.00  0.00    +0.000 N 
ATOM     21  C   UNL     1       6.722   6.210  17.424  0.00  0.00    +0.000 A 
ATOM     22  C   UNL     1       7.595   6.955  18.378  0.00  0.00    +0.000 C 
ATOM     23  H   UNL     1       8.089   6.195  15.804  0.00  0.00    +0.000 HD
BRANCH  19  24
ATOM     24  C   UNL     1       6.451   4.690  14.108  0.00  0.00    +0.000 A 
ATOM     25  C   UNL     1       5.597   3.730  13.547  0.00  0.00    +0.000 A 
ATOM     26  C   UNL     1       5.820   3.257  12.257  0.00  0.00    +0.000 A 
ATOM     27  C   UNL     1       6.899   3.731  11.511  0.00  0.00    +0.000 A 
ATOM     28  C   UNL     1       7.755   4.683  12.057  0.00  0.00    +0.000 A 
ATOM     29  C   UNL     1       7.532   5.166  13.348  0.00  0.00    +0.000 A 
ENDBRANCH  19  24
ENDBRANCH   5  17
TORSDOF 3
ENDMDL
MODEL 3
REMARK VINA RESULT:      -8.6      0.968      1.679
REMARK  Name = 
REMARK  6 active torsions:
REMARK  status: ('A' for Active; 'I' for Inactive)
REMARK    1  A    between atoms: C_1  and  C_2
REMARK    2  A    between atoms: C_6  and  N_7
REMARK    3  A    between atoms: C_11  and  C_13
REMARK    4  A    between atoms: C_15  and  C_16
REMARK    5  A    between atoms: C_23  and  C_24
REMARK    6  A    between atoms: C_27  and  C_28
REMARK                            x       y       z     vdW  Elec       q    Type
REMARK                         _______ _______ _______ _____ _____    ______ ____
ROOT
ATOM      1  N   UNL     1       1.561   8.528  19.270  0.00  0.00    +0.000 N 
ATOM      2  C   UNL     1       2.164   7.660  20.318  0.00  0.00    +0.000 C 
ATOM      3  C   UNL     1       2.424   6.259  19.743  0.00  0.00    +0.000 C 
ATOM      4  N   UNL     1       3.335   6.336  18.599  0.00  0.00    +0.000 N 
ATOM      5  C   UNL     1       4.593   5.730  18.717  0.00  0.00    +0.000 C 
ATOM      6  O   UNL     1       4.961   5.245  19.787  0.00  0.00    +0.000 OA
ATOM      7  C   UNL     1       2.851   7.259  17.551  0.00  0.00    +0.000 C 
ATOM      8  C   UNL     1       2.470   8.656  18.100  0.00  0.00    +0.000 C 
ENDROOT
BRANCH   1  14
ATOM      9  C   UNL     1      -1.273  11.209  22.461  0.00  0.00    +0.000 C 
ATOM     10  C   UNL     1      -0.386  11.086  21.249  0.00  0.00    +0.000 A 
ATOM     11  C   UNL     1      -0.191  12.219  20.453  0.00  0.00    +0.000 A 
ATOM     12  C   UNL     1       0.600  12.147  19.319  0.00  0.00    +0.000 A 
ATOM     13  C   UNL     1       1.170  10.931  18.943  0.00  0.00    +0.000 A 
ATOM     14  C   UNL     1       0.992   9.752  19.694  0.00  0.00    +0.000 A 
ATOM     15  C   UNL     1       0.243   9.856  20.901  0.00  0.00    +0.000 A 
ATOM     16  C   UNL     1       0.100   8.694  21.858  0.00  0.00    +0.000 C 
ENDBRANCH   1  14
BRANCH   5  17
ATOM     17  C   UNL     1       5.461   5.640  17.537  0.00  0.00    +0.000 A 
ATOM     18  C   UNL     1       5.222   4.929  16.328  0.00  0.00    +0.000 A 
ATOM     19  C   UNL     1       6.289   5.098  15.470  0.00  0.00    +0.000 A 
ATOM     20  N   UNL     1       7.224   5.822  16.162  0.00  0.00    +0.000 N 
ATOM     21  C   UNL     1       6.763   6.130  17.422  0.00  0.00    +0.000 A 
ATOM     22  C   UNL     1       7.654   6.845  18.381  0.00  0.00    +0.000 C 
ATOM     23  H   UNL     1       8.147   6.049  15.817  0.00  0.00    +0.000 HD
BRANCH  19  24
ATOM     24  C   UNL     1       6.468   4.602  14.111  0.00  0.00    +0.000 A 
ATOM     25  C   UNL     1       7.525   5.041  13.302  0.00  0.00    +0.000 A 
ATOM     26  C   UNL     1       7.648   4.583  11.993  0.00  0.00    +0.000 A 
ATOM     27  C   UNL     1       6.716   3.685  11.473  0.00  0.00    +0.000 A 
ATOM     28  C   UNL     1       5.661   3.242  12.265  0.00  0.00    +0.000 A 
ATOM     29  C   UNL     1       5.537   3.694  13.580  0.00  0.00    +0.000 A 
ENDBRANCH  19  24
ENDBRANCH   5  17
TORSDOF 3
ENDMDL
MODEL 4
REMARK VINA RESULT:      -8.3      2.588      4.777
REMARK  Name = 
REMARK  6 active torsions:
REMARK  status: ('A' for Active; 'I' for Inactive)
REMARK    1  A    between atoms: C_1  and  C_2
REMARK    2  A    between atoms: C_6  and  N_7
REMARK    3  A    between atoms: C_11  and  C_13
REMARK    4  A    between atoms: C_15  and  C_16
REMARK    5  A    between atoms: C_23  and  C_24
REMARK    6  A    between atoms: C_27  and  C_28
REMARK                            x       y       z     vdW  Elec       q    Type
REMARK                         _______ _______ _______ _____ _____    ______ ____
ROOT
ATOM      1  N   UNL     1       1.229  11.768  18.870  0.00  0.00    +0.000 N 
ATOM      2  C   UNL     1       0.970  11.289  20.254  0.00  0.00    +0.000 C 
ATOM      3  C   UNL     1       0.306   9.904  20.207  0.00  0.00    +0.000 C 
ATOM      4  N   UNL     1       1.172   8.944  19.518  0.00  0.00    +0.000 N 
ATOM      5  C   UNL     1       1.686   7.872  20.259  0.00  0.00    +0.000 C 
ATOM      6  O   UNL     1       1.504   7.800  21.475  0.00  0.00    +0.000 OA
ATOM      7  C   UNL     1       1.555   9.397  18.164  0.00  0.00    +0.000 C 
ATOM      8  C   UNL     1       2.130  10.835  18.145  0.00  0.00    +0.000 C 
ENDROOT
BRANCH   1  14
ATOM      9  C   UNL     1      -0.051  16.640  18.677  0.00  0.00    +0.000 C 
ATOM     10  C   UNL     1       0.962  15.526  18.621  0.00  0.00    +0.000 A 
ATOM     11  C   UNL     1       2.286  15.851  18.308  0.00  0.00    +0.000 A 
ATOM     12  C   UNL     1       3.247  14.856  18.226  0.00  0.00    +0.000 A 
ATOM     13  C   UNL     1       2.887  13.522  18.414  0.00  0.00    +0.000 A 
ATOM     14  C   UNL     1       1.566  13.134  18.712  0.00  0.00    +0.000 A 
ATOM     15  C   UNL     1       0.603  14.170  18.873  0.00  0.00    +0.000 A 
ATOM     16  C   UNL     1      -0.811  13.887  19.327  0.00  0.00    +0.000 C 
ENDBRANCH   1  14
BRANCH   5  17
ATOM     17  C   UNL     1       2.414   6.802  19.566  0.00  0.00    +0.000 A 
ATOM     18  C   UNL     1       3.399   6.933  18.548  0.00  0.00    +0.000 A 
ATOM     19  C   UNL     1       3.836   5.683  18.159  0.00  0.00    +0.000 A 
ATOM     20  N   UNL     1       3.070   4.780  18.850  0.00  0.00    +0.000 N 
ATOM     21  C   UNL     1       2.182   5.430  19.676  0.00  0.00    +0.000 A 
ATOM     22  C   UNL     1       1.190   4.641  20.463  0.00  0.00    +0.000 C 
ATOM     23  H   UNL     1       3.112   3.778  18.727  0.00  0.00    +0.000 HD
BRANCH  19  24
ATOM     24  C   UNL     1       4.864   5.325  17.190  0.00  0.00    +0.000 A 
ATOM     25  C   UNL     1       4.736   4.198  16.367  0.00  0.00    +0.000 A 
ATOM     26  C   UNL     1       5.752   3.854  15.479  0.00  0.00    +0.000 A 
ATOM     27  C   UNL     1       6.910   4.627  15.404  0.00  0.00    +0.000 A 
ATOM     28  C   UNL     1       7.051   5.749  16.217  0.00  0.00    +0.000 A 
ATOM     29  C   UNL     1       6.031   6.101  17.105  0.00  0.00    +0.000 A 
ENDBRANCH  19  24
ENDBRANCH   5  17
TORSDOF 3
ENDMDL
MODEL 5
REMARK VINA RESULT:      -8.2      3.286      9.616
REMARK  Name = 
REMARK  6 active torsions:
REMARK  status: ('A' for Active; 'I' for Inactive)
REMARK    1  A    between atoms: C_1  and  C_2
REMARK    2  A    between atoms: C_6  and  N_7
REMARK    3  A    between atoms: C_11  and  C_13
REMARK    4  A    between atoms: C_15  and  C_16
REMARK    5  A    between atoms: C_23  and  C_24
REMARK    6  A    between atoms: C_27  and  C_28
REMARK                            x       y       z     vdW  Elec       q    Type
REMARK                         _______ _______ _______ _____ _____    ______ ____
ROOT
ATOM      1  N   UNL     1       2.445   7.037  18.955  0.00  0.00    +0.000 N 
ATOM      2  C   UNL     1       1.458   7.047  20.069  0.00  0.00    +0.000 C 
ATOM      3  C   UNL     1       1.560   8.372  20.840  0.00  0.00    +0.000 C 
ATOM      4  N   UNL     1       1.295   9.504  19.951  0.00  0.00    +0.000 N 
ATOM      5  C   UNL     1       0.158  10.285  20.200  0.00  0.00    +0.000 C 
ATOM      6  O   UNL     1      -0.650   9.962  21.071  0.00  0.00    +0.000 OA
ATOM      7  C   UNL     1       2.176   9.511  18.764  0.00  0.00    +0.000 C 
ATOM      8  C   UNL     1       2.191   8.157  18.011  0.00  0.00    +0.000 C 
ENDROOT
BRANCH   1  14
ATOM      9  C   UNL     1       5.296   4.037  16.077  0.00  0.00    +0.000 C 
ATOM     10  C   UNL     1       4.077   4.307  16.922  0.00  0.00    +0.000 A 
ATOM     11  C   UNL     1       3.099   3.310  17.011  0.00  0.00    +0.000 A 
ATOM     12  C   UNL     1       1.954   3.523  17.760  0.00  0.00    +0.000 A 
ATOM     13  C   UNL     1       1.753   4.748  18.394  0.00  0.00    +0.000 A 
ATOM     14  C   UNL     1       2.693   5.796  18.323  0.00  0.00    +0.000 A 
ATOM     15  C   UNL     1       3.903   5.538  17.618  0.00  0.00    +0.000 A 
ATOM     16  C   UNL     1       5.041   6.532  17.589  0.00  0.00    +0.000 C 
ENDBRANCH   1  14
BRANCH   5  17
ATOM     17  C   UNL     1      -0.045  11.522  19.438  0.00  0.00    +0.000 A 
ATOM     18  C   UNL     1       0.481  12.815  19.714  0.00  0.00    +0.000 A 
ATOM     19  C   UNL     1       0.048  13.708  18.755  0.00  0.00    +0.000 A 
ATOM     20  N   UNL     1      -0.813  13.012  17.947  0.00  0.00    +0.000 N 
ATOM     21  C   UNL     1      -0.913  11.703  18.359  0.00  0.00    +0.000 A 
ATOM     22  C   UNL     1      -1.863  10.782  17.671  0.00  0.00    +0.000 C 
ATOM     23  H   UNL     1      -1.344  13.417  17.188  0.00  0.00    +0.000 HD
BRANCH  19  24
ATOM     24  C   UNL     1       0.367  15.121  18.600  0.00  0.00    +0.000 A 
ATOM     25  C   UNL     1      -0.637  16.096  18.514  0.00  0.00    +0.000 A 
ATOM     26  C   UNL     1      -0.306  17.434  18.323  0.00  0.00    +0.000 A 
ATOM     27  C   UNL     1       1.031  17.818  18.211  0.00  0.00    +0.000 A 
ATOM     28  C   UNL     1       2.038  16.861  18.293  0.00  0.00    +0.000 A 
ATOM     29  C   UNL     1       1.711  15.517  18.491  0.00  0.00    +0.000 A 
ENDBRANCH  19  24
ENDBRANCH   5  17
TORSDOF 3
ENDMDL
MODEL 6
REMARK VINA RESULT:      -7.9      3.043      9.966
REMARK  Name = 
REMARK  6 active torsions:
REMARK  status: ('A' for Active; 'I' for Inactive)
REMARK    1  A    between atoms: C_1  and  C_2
REMARK    2  A    between atoms: C_6  and  N_7
REMARK    3  A    between atoms: C_11  and  C_13
REMARK    4  A    between atoms: C_15  and  C_16
REMARK    5  A    between atoms: C_23  and  C_24
REMARK    6  A    between atoms: C_27  and  C_28
REMARK                            x       y       z     vdW  Elec       q    Type
REMARK                         _______ _______ _______ _____ _____    ______ ____
ROOT
ATOM      1  N   UNL     1       2.389   6.989  19.085  0.00  0.00    +0.000 N 
ATOM      2  C   UNL     1       1.591   6.891  20.338  0.00  0.00    +0.000 C 
ATOM      3  C   UNL     1       1.673   8.217  21.108  0.00  0.00    +0.000 C 
ATOM      4  N   UNL     1       1.154   9.317  20.292  0.00  0.00    +0.000 N 
ATOM      5  C   UNL     1      -0.005   9.971  20.728  0.00  0.00    +0.000 C 
ATOM      6  O   UNL     1      -0.630   9.562  21.707  0.00  0.00    +0.000 OA
ATOM      7  C   UNL     1       1.835   9.420  18.984  0.00  0.00    +0.000 C 
ATOM      8  C   UNL     1       1.875   8.078  18.213  0.00  0.00    +0.000 C 
ENDROOT
BRANCH   1  14
ATOM      9  C   UNL     1       5.216   4.241  15.945  0.00  0.00    +0.000 C 
ATOM     10  C   UNL     1       4.039   4.416  16.870  0.00  0.00    +0.000 A 
ATOM     11  C   UNL     1       3.125   3.364  16.984  0.00  0.00    +0.000 A 
ATOM     12  C   UNL     1       2.018   3.489  17.808  0.00  0.00    +0.000 A 
ATOM     13  C   UNL     1       1.790   4.682  18.492  0.00  0.00    +0.000 A 
ATOM     14  C   UNL     1       2.665   5.783  18.399  0.00  0.00    +0.000 A 
ATOM     15  C   UNL     1       3.841   5.615  17.614  0.00  0.00    +0.000 A 
ATOM     16  C   UNL     1       4.919   6.672  17.550  0.00  0.00    +0.000 C 
ENDBRANCH   1  14
BRANCH   5  17
ATOM     17  C   UNL     1      -0.454  11.182  20.030  0.00  0.00    +0.000 A 
ATOM     18  C   UNL     1      -0.316  12.534  20.450  0.00  0.00    +0.000 A 
ATOM     19  C   UNL     1      -0.875  13.373  19.508  0.00  0.00    +0.000 A 
ATOM     20  N   UNL     1      -1.439  12.559  18.560  0.00  0.00    +0.000 N 
ATOM     21  C   UNL     1      -1.230  11.236  18.871  0.00  0.00    +0.000 A 
ATOM     22  C   UNL     1      -1.832  10.171  18.017  0.00  0.00    +0.000 C 
ATOM     23  H   UNL     1      -1.983  12.885  17.772  0.00  0.00    +0.000 HD
BRANCH  19  24
ATOM     24  C   UNL     1      -0.927  14.829  19.484  0.00  0.00    +0.000 A 
ATOM     25  C   UNL     1      -1.741  15.550  20.368  0.00  0.00    +0.000 A 
ATOM     26  C   UNL     1      -1.804  16.938  20.296  0.00  0.00    +0.000 A 
ATOM     27  C   UNL     1      -1.060  17.627  19.338  0.00  0.00    +0.000 A 
ATOM     28  C   UNL     1      -0.249  16.924  18.452  0.00  0.00    +0.000 A 
ATOM     29  C   UNL     1      -0.177  15.531  18.525  0.00  0.00    +0.000 A 
ENDBRANCH  19  24
ENDBRANCH   5  17
TORSDOF 3
ENDMDL
MODEL 7
REMARK VINA RESULT:      -7.8      1.601      2.561
REMARK  Name = 
REMARK  6 active torsions:
REMARK  status: ('A' for Active; 'I' for Inactive)
REMARK    1  A    between atoms: C_1  and  C_2
REMARK    2  A    between atoms: C_6  and  N_7
REMARK    3  A    between atoms: C_11  and  C_13
REMARK    4  A    between atoms: C_15  and  C_16
REMARK    5  A    between atoms: C_23  and  C_24
REMARK    6  A    between atoms: C_27  and  C_28
REMARK                            x       y       z     vdW  Elec       q    Type
REMARK                         _______ _______ _______ _____ _____    ______ ____
ROOT
ATOM      1  N   UNL     1       1.512   8.942  18.849  0.00  0.00    +0.000 N 
ATOM      2  C   UNL     1       2.137   8.357  20.066  0.00  0.00    +0.000 C 
ATOM      3  C   UNL     1       1.976   6.830  20.048  0.00  0.00    +0.000 C 
ATOM      4  N   UNL     1       2.613   6.261  18.858  0.00  0.00    +0.000 N 
ATOM      5  C   UNL     1       3.715   5.417  19.041  0.00  0.00    +0.000 C 
ATOM      6  O   UNL     1       4.200   5.246  20.160  0.00  0.00    +0.000 OA
ATOM      7  C   UNL     1       2.111   6.864  17.604  0.00  0.00    +0.000 C 
ATOM      8  C   UNL     1       2.152   8.412  17.617  0.00  0.00    +0.000 C 
ENDROOT
BRANCH   1  14
ATOM      9  C   UNL     1      -1.283  13.011  19.870  0.00  0.00    +0.000 C 
ATOM     10  C   UNL     1      -0.039  12.350  19.335  0.00  0.00    +0.000 A 
ATOM     11  C   UNL     1       0.922  13.153  18.712  0.00  0.00    +0.000 A 
ATOM     12  C   UNL     1       2.071  12.585  18.188  0.00  0.00    +0.000 A 
ATOM     13  C   UNL     1       2.253  11.204  18.241  0.00  0.00    +0.000 A 
ATOM     14  C   UNL     1       1.310  10.343  18.837  0.00  0.00    +0.000 A 
ATOM     15  C   UNL     1       0.171  10.945  19.444  0.00  0.00    +0.000 A 
ATOM     16  C   UNL     1      -0.837  10.139  20.231  0.00  0.00    +0.000 C 
ENDBRANCH   1  14
BRANCH   5  17
ATOM     17  C   UNL     1       4.270   4.697  17.888  0.00  0.00    +0.000 A 
ATOM     18  C   UNL     1       4.857   5.247  16.715  0.00  0.00    +0.000 A 
ATOM     19  C   UNL     1       5.251   4.229  15.871  0.00  0.00    +0.000 A 
ATOM     20  N   UNL     1       4.832   3.063  16.458  0.00  0.00    +0.000 N 
ATOM     21  C   UNL     1       4.207   3.322  17.656  0.00  0.00    +0.000 A 
ATOM     22  C   UNL     1       3.597   2.201  18.429  0.00  0.00    +0.000 C 
ATOM     23  H   UNL     1       4.919   2.146  16.043  0.00  0.00    +0.000 HD
BRANCH  19  24
ATOM     24  C   UNL     1       5.936   4.308  14.587  0.00  0.00    +0.000 A 
ATOM     25  C   UNL     1       5.523   3.546  13.486  0.00  0.00    +0.000 A 
ATOM     26  C   UNL     1       6.221   3.608  12.283  0.00  0.00    +0.000 A 
ATOM     27  C   UNL     1       7.344   4.428  12.165  0.00  0.00    +0.000 A 
ATOM     28  C   UNL     1       7.766   5.189  13.251  0.00  0.00    +0.000 A 
ATOM     29  C   UNL     1       7.065   5.135  14.457  0.00  0.00    +0.000 A 
ENDBRANCH  19  24
ENDBRANCH   5  17
TORSDOF 3
ENDMDL
MODEL 8
REMARK VINA RESULT:      -7.8      1.159      1.395
REMARK  Name = 
REMARK  6 active torsions:
REMARK  status: ('A' for Active; 'I' for Inactive)
REMARK    1  A    between atoms: C_1  and  C_2
REMARK    2  A    between atoms: C_6  and  N_7
REMARK    3  A    between atoms: C_11  and  C_13
REMARK    4  A    between atoms: C_15  and  C_16
REMARK    5  A    between atoms: C_23  and  C_24
REMARK    6  A    between atoms: C_27  and  C_28
REMARK                            x       y       z     vdW  Elec       q    Type
REMARK                         _______ _______ _______ _____ _____    ______ ____
ROOT
ATOM      1  N   UNL     1       1.503   8.532  19.182  0.00  0.00    +0.000 N 
ATOM      2  C   UNL     1       2.137   7.710  20.248  0.00  0.00    +0.000 C 
ATOM      3  C   UNL     1       2.447   6.306  19.704  0.00  0.00    +0.000 C 
ATOM      4  N   UNL     1       3.352   6.390  18.556  0.00  0.00    +0.000 N 
ATOM      5  C   UNL     1       4.631   5.832  18.684  0.00  0.00    +0.000 C 
ATOM      6  O   UNL     1       5.018   5.384  19.764  0.00  0.00    +0.000 OA
ATOM      7  C   UNL     1       2.834   7.271  17.489  0.00  0.00    +0.000 C 
ATOM      8  C   UNL     1       2.404   8.666  18.008  0.00  0.00    +0.000 C 
ENDROOT
BRANCH   1  14
ATOM      9  C   UNL     1       1.151  13.558  19.037  0.00  0.00    +0.000 C 
ATOM     10  C   UNL     1       0.695  12.204  19.518  0.00  0.00    +0.000 A 
ATOM     11  C   UNL     1      -0.322  12.150  20.476  0.00  0.00    +0.000 A 
ATOM     12  C   UNL     1      -0.758  10.928  20.962  0.00  0.00    +0.000 A 
ATOM     13  C   UNL     1      -0.153   9.750  20.527  0.00  0.00    +0.000 A 
ATOM     14  C   UNL     1       0.891   9.744  19.580  0.00  0.00    +0.000 A 
ATOM     15  C   UNL     1       1.276  10.999  19.028  0.00  0.00    +0.000 A 
ATOM     16  C   UNL     1       2.284  11.106  17.907  0.00  0.00    +0.000 C 
ENDBRANCH   1  14
BRANCH   5  17
ATOM     17  C   UNL     1       5.500   5.746  17.505  0.00  0.00    +0.000 A 
ATOM     18  C   UNL     1       5.284   4.999  16.313  0.00  0.00    +0.000 A 
ATOM     19  C   UNL     1       6.343   5.187  15.448  0.00  0.00    +0.000 A 
ATOM     20  N   UNL     1       7.252   5.960  16.122  0.00  0.00    +0.000 N 
ATOM     21  C   UNL     1       6.783   6.280  17.375  0.00  0.00    +0.000 A 
ATOM     22  C   UNL     1       7.649   7.048  18.315  0.00  0.00    +0.000 C 
ATOM     23  H   UNL     1       8.166   6.213  15.769  0.00  0.00    +0.000 HD
BRANCH  19  24
ATOM     24  C   UNL     1       6.537   4.666  14.101  0.00  0.00    +0.000 A 
ATOM     25  C   UNL     1       7.551   5.153  13.265  0.00  0.00    +0.000 A 
ATOM     26  C   UNL     1       7.688   4.668  11.967  0.00  0.00    +0.000 A 
ATOM     27  C   UNL     1       6.813   3.696  11.484  0.00  0.00    +0.000 A 
ATOM     28  C   UNL     1       5.800   3.205  12.304  0.00  0.00    +0.000 A 
ATOM     29  C   UNL     1       5.663   3.683  13.609  0.00  0.00    +0.000 A 
ENDBRANCH  19  24
ENDBRANCH   5  17
TORSDOF 3
ENDMDL
MODEL 9
REMARK VINA RESULT:      -7.7      3.799     10.397
REMARK  Name = 
REMARK  6 active torsions:
REMARK  status: ('A' for Active; 'I' for Inactive)
REMARK    1  A    between atoms: C_1  and  C_2
REMARK    2  A    between atoms: C_6  and  N_7
REMARK    3  A    between atoms: C_11  and  C_13
REMARK    4  A    between atoms: C_15  and  C_16
REMARK    5  A    between atoms: C_23  and  C_24
REMARK    6  A    between atoms: C_27  and  C_28
REMARK                            x       y       z     vdW  Elec       q    Type
REMARK                         _______ _______ _______ _____ _____    ______ ____
ROOT
ATOM      1  N   UNL     1       2.208   7.205  19.024  0.00  0.00    +0.000 N 
ATOM      2  C   UNL     1       2.633   8.185  17.987  0.00  0.00    +0.000 C 
ATOM      3  C   UNL     1       1.502   9.193  17.733  0.00  0.00    +0.000 C 
ATOM      4  N   UNL     1       1.168   9.910  18.966  0.00  0.00    +0.000 N 
ATOM      5  C   UNL     1       1.408  11.290  19.011  0.00  0.00    +0.000 C 
ATOM      6  O   UNL     1       1.982  11.861  18.083  0.00  0.00    +0.000 OA
ATOM      7  C   UNL     1       0.827   8.997  20.077  0.00  0.00    +0.000 C 
ATOM      8  C   UNL     1       1.888   7.892  20.303  0.00  0.00    +0.000 C 
ENDROOT
BRANCH   1  14
ATOM      9  C   UNL     1       2.953   2.582  20.889  0.00  0.00    +0.000 C 
ATOM     10  C   UNL     1       3.382   3.774  20.073  0.00  0.00    +0.000 A 
ATOM     11  C   UNL     1       4.665   3.767  19.515  0.00  0.00    +0.000 A 
ATOM     12  C   UNL     1       5.109   4.851  18.775  0.00  0.00    +0.000 A 
ATOM     13  C   UNL     1       4.292   5.970  18.620  0.00  0.00    +0.000 A 
ATOM     14  C   UNL     1       3.000   6.043  19.176  0.00  0.00    +0.000 A 
ATOM     15  C   UNL     1       2.523   4.892  19.867  0.00  0.00    +0.000 A 
ATOM     16  C   UNL     1       1.106   4.799  20.386  0.00  0.00    +0.000 C 
ENDBRANCH   1  14
BRANCH   5  17
ATOM     17  C   UNL     1       0.930  12.066  20.161  0.00  0.00    +0.000 A 
ATOM     18  C   UNL     1      -0.338  11.989  20.801  0.00  0.00    +0.000 A 
ATOM     19  C   UNL     1      -0.389  12.891  21.844  0.00  0.00    +0.000 A 
ATOM     20  N   UNL     1       0.789  13.590  21.800  0.00  0.00    +0.000 N 
ATOM     21  C   UNL     1       1.584  13.136  20.773  0.00  0.00    +0.000 A 
ATOM     22  C   UNL     1       2.882  13.814  20.488  0.00  0.00    +0.000 C 
ATOM     23  H   UNL     1       1.018  14.370  22.401  0.00  0.00    +0.000 HD
BRANCH  19  24
ATOM     24  C   UNL     1      -1.458  13.131  22.805  0.00  0.00    +0.000 A 
ATOM     25  C   UNL     1      -2.537  12.246  22.940  0.00  0.00    +0.000 A 
ATOM     26  C   UNL     1      -3.566  12.522  23.836  0.00  0.00    +0.000 A 
ATOM     27  C   UNL     1      -3.536  13.685  24.605  0.00  0.00    +0.000 A 
ATOM     28  C   UNL     1      -2.472  14.573  24.479  0.00  0.00    +0.000 A 
ATOM     29  C   UNL     1      -1.433  14.298  23.586  0.00  0.00    +0.000 A 
ENDBRANCH  19  24
ENDBRANCH   5  17
TORSDOF 3
ENDMDL
