MODEL 1
REMARK VINA RESULT:      -7.5      0.000      0.000
REMARK  Name = 
REMARK  6 active torsions:
REMARK  status: ('A' for Active; 'I' for Inactive)
REMARK    1  A    between atoms: C_1  and  C_2
REMARK    2  A    between atoms: N_12  and  C_13
REMARK    3  A    between atoms: N_21  and  C_22
REMARK    4  A    between atoms: C_22  and  C_23
REMARK    5  A    between atoms: C_23  and  C_25
REMARK    6  A    between atoms: N_32  and  C_33
REMARK                            x       y       z     vdW  Elec       q    Type
REMARK                         _______ _______ _______ _____ _____    ______ ____
ROOT
ATOM      1  C   UNL     1      -2.693   9.445  16.268  0.00  0.00    +0.000 C 
ATOM      2  C   UNL     1      -3.249  10.456  17.227  0.00  0.00    +0.000 A 
ATOM      3  C   UNL     1      -4.584  10.849  17.135  0.00  0.00    +0.000 A 
ATOM      4  C   UNL     1      -5.119  11.772  18.029  0.00  0.00    +0.000 A 
ATOM      5  C   UNL     1      -4.285  12.302  19.025  0.00  0.00    +0.000 A 
ATOM      6  C   UNL     1      -2.936  11.947  19.157  0.00  0.00    +0.000 A 
ATOM      7  C   UNL     1      -2.423  11.007  18.228  0.00  0.00    +0.000 A 
ATOM      8  C   UNL     1      -2.426  12.674  20.284  0.00  0.00    +0.000 A 
ATOM      9  C   UNL     1      -3.459  13.425  20.800  0.00  0.00    +0.000 A 
ATOM     10  C   UNL     1      -3.323  14.278  21.946  0.00  0.00    +0.000 A 
ATOM     11  O   UNL     1      -4.256  14.942  22.393  0.00  0.00    +0.000 OA
ATOM     12  N   UNL     1      -2.028  14.304  22.477  0.00  0.00    +0.000 N 
ATOM     13  C   UNL     1      -0.963  13.496  22.047  0.00  0.00    +0.000 A 
ATOM     14  O   UNL     1       0.117  13.451  22.650  0.00  0.00    +0.000 OA
ATOM     15  N   UNL     1      -1.164  12.724  20.886  0.00  0.00    +0.000 N 
ATOM     16  N   UNL     1      -4.576  13.212  20.030  0.00  0.00    +0.000 N 
ATOM     17  C   UNL     1      -5.892  13.801  20.180  0.00  0.00    +0.000 C 
ENDROOT
BRANCH  12  18
ATOM     18  C   UNL     1      -1.804  15.183  23.578  0.00  0.00    +0.000 A 
ATOM     19  C   UNL     1      -1.275  16.459  23.356  0.00  0.00    +0.000 A 
ATOM     20  C   UNL     1      -0.989  17.298  24.434  0.00  0.00    +0.000 A 
ATOM     21  C   UNL     1      -1.205  16.854  25.738  0.00  0.00    +0.000 A 
ATOM     22  C   UNL     1      -1.723  15.578  25.967  0.00  0.00    +0.000 A 
ATOM     23  C   UNL     1      -2.038  14.747  24.889  0.00  0.00    +0.000 A 
ENDBRANCH  12  18
BRANCH  15  24
ATOM     24  C   UNL     1      -0.006  11.980  20.383  0.00  0.00    +0.000 C 
BRANCH  24  25
ATOM     25  C   UNL     1       0.062  10.525  20.847  0.00  0.00    +0.000 C 
ATOM     26  O   UNL     1      -0.505  10.102  21.852  0.00  0.00    +0.000 OA
BRANCH  25  27
ATOM     27  C   UNL     1       0.877   9.570  20.031  0.00  0.00    +0.000 A 
ATOM     28  C   UNL     1       1.372   8.413  20.652  0.00  0.00    +0.000 A 
ATOM     29  C   UNL     1       2.119   7.478  19.926  0.00  0.00    +0.000 A 
ATOM     30  C   UNL     1       2.366   7.691  18.573  0.00  0.00    +0.000 A 
ATOM     31 CL   UNL     1       3.263   6.534  17.670  0.00  0.00    +0.000 Cl
ATOM     32  C   UNL     1       1.878   8.835  17.943  0.00  0.00    +0.000 A 
ATOM     33  C   UNL     1       1.138   9.777  18.670  0.00  0.00    +0.000 A 
ENDBRANCH  25  27
ENDBRANCH  24  25
ENDBRANCH  15  24
TORSDOF 4
ENDMDL
MODEL 2
REMARK VINA RESULT:      -7.2      0.348      1.236
REMARK  Name = 
REMARK  6 active torsions:
REMARK  status: ('A' for Active; 'I' for Inactive)
REMARK    1  A    between atoms: C_1  and  C_2
REMARK    2  A    between atoms: N_12  and  C_13
REMARK    3  A    between atoms: N_21  and  C_22
REMARK    4  A    between atoms: C_22  and  C_23
REMARK    5  A    between atoms: C_23  and  C_25
REMARK    6  A    between atoms: N_32  and  C_33
REMARK                            x       y       z     vdW  Elec       q    Type
REMARK                         _______ _______ _______ _____ _____    ______ ____
ROOT
ATOM      1  C   UNL     1      -2.446   9.432  16.518  0.00  0.00    +0.000 C 
ATOM      2  C   UNL     1      -3.028  10.445  17.460  0.00  0.00    +0.000 A 
ATOM      3  C   UNL     1      -4.380  10.777  17.385  0.00  0.00    +0.000 A 
ATOM      4  C   UNL     1      -4.938  11.700  18.265  0.00  0.00    +0.000 A 
ATOM      5  C   UNL     1      -4.109  12.293  19.229  0.00  0.00    +0.000 A 
ATOM      6  C   UNL     1      -2.744  12.000  19.343  0.00  0.00    +0.000 A 
ATOM      7  C   UNL     1      -2.208  11.058  18.429  0.00  0.00    +0.000 A 
ATOM      8  C   UNL     1      -2.244  12.780  20.439  0.00  0.00    +0.000 A 
ATOM      9  C   UNL     1      -3.300  13.498  20.956  0.00  0.00    +0.000 A 
ATOM     10  C   UNL     1      -3.179  14.387  22.077  0.00  0.00    +0.000 A 
ATOM     11  O   UNL     1      -4.131  15.023  22.524  0.00  0.00    +0.000 OA
ATOM     12  N   UNL     1      -1.876  14.484  22.580  0.00  0.00    +0.000 N 
ATOM     13  C   UNL     1      -0.785  13.711  22.150  0.00  0.00    +0.000 A 
ATOM     14  O   UNL     1       0.307  13.730  22.732  0.00  0.00    +0.000 OA
ATOM     15  N   UNL     1      -0.975  12.900  21.014  0.00  0.00    +0.000 N 
ATOM     16  N   UNL     1      -4.421  13.216  20.215  0.00  0.00    +0.000 N 
ATOM     17  C   UNL     1      -5.757  13.752  20.376  0.00  0.00    +0.000 C 
ENDROOT
BRANCH  12  18
ATOM     18  C   UNL     1      -1.670  15.402  23.652  0.00  0.00    +0.000 A 
ATOM     19  C   UNL     1      -1.820  14.973  24.976  0.00  0.00    +0.000 A 
ATOM     20  C   UNL     1      -1.687  15.881  26.028  0.00  0.00    +0.000 A 
ATOM     21  C   UNL     1      -1.433  17.225  25.759  0.00  0.00    +0.000 A 
ATOM     22  C   UNL     1      -1.294  17.662  24.441  0.00  0.00    +0.000 A 
ATOM     23  C   UNL     1      -1.397  16.750  23.387  0.00  0.00    +0.000 A 
ENDBRANCH  12  18
BRANCH  15  24
ATOM     24  C   UNL     1       0.205  12.194  20.508  0.00  0.00    +0.000 C 
BRANCH  24  25
ATOM     25  C   UNL     1       0.442  10.822  21.141  0.00  0.00    +0.000 C 
ATOM     26  O   UNL     1       0.177  10.556  22.312  0.00  0.00    +0.000 OA
BRANCH  25  27
ATOM     27  C   UNL     1       1.041   9.751  20.282  0.00  0.00    +0.000 A 
ATOM     28  C   UNL     1       1.252  10.024  18.922  0.00  0.00    +0.000 A 
ATOM     29  C   UNL     1       1.831   9.064  18.084  0.00  0.00    +0.000 A 
ATOM     30  C   UNL     1       2.210   7.830  18.605  0.00  0.00    +0.000 A 
ATOM     31 CL   UNL     1       2.943   6.655  17.585  0.00  0.00    +0.000 Cl
ATOM     32  C   UNL     1       2.008   7.547  19.955  0.00  0.00    +0.000 A 
ATOM     33  C   UNL     1       1.421   8.504  20.794  0.00  0.00    +0.000 A 
ENDBRANCH  25  27
ENDBRANCH  24  25
ENDBRANCH  15  24
TORSDOF 4
ENDMDL
MODEL 3
REMARK VINA RESULT:      -6.9      2.352      3.725
REMARK  Name = 
REMARK  6 active torsions:
REMARK  status: ('A' for Active; 'I' for Inactive)
REMARK    1  A    between atoms: C_1  and  C_2
REMARK    2  A    between atoms: N_12  and  C_13
REMARK    3  A    between atoms: N_21  and  C_22
REMARK    4  A    between atoms: C_22  and  C_23
REMARK    5  A    between atoms: C_23  and  C_25
REMARK    6  A    between atoms: N_32  and  C_33
REMARK                            x       y       z     vdW  Elec       q    Type
REMARK                         _______ _______ _______ _____ _____    ______ ____
ROOT
ATOM      1  C   UNL     1       0.390   9.767  17.766  0.00  0.00    +0.000 C 
ATOM      2  C   UNL     1      -1.024  10.247  17.920  0.00  0.00    +0.000 A 
ATOM      3  C   UNL     1      -2.042   9.691  17.148  0.00  0.00    +0.000 A 
ATOM      4  C   UNL     1      -3.360  10.112  17.293  0.00  0.00    +0.000 A 
ATOM      5  C   UNL     1      -3.644  11.114  18.234  0.00  0.00    +0.000 A 
ATOM      6  C   UNL     1      -2.657  11.711  19.030  0.00  0.00    +0.000 A 
ATOM      7  C   UNL     1      -1.326  11.260  18.854  0.00  0.00    +0.000 A 
ATOM      8  C   UNL     1      -3.326  12.665  19.868  0.00  0.00    +0.000 A 
ATOM      9  C   UNL     1      -4.670  12.613  19.571  0.00  0.00    +0.000 A 
ATOM     10  C   UNL     1      -5.657  13.426  20.224  0.00  0.00    +0.000 A 
ATOM     11  O   UNL     1      -6.853  13.368  19.946  0.00  0.00    +0.000 OA
ATOM     12  N   UNL     1      -5.123  14.306  21.172  0.00  0.00    +0.000 N 
ATOM     13  C   UNL     1      -3.778  14.339  21.575  0.00  0.00    +0.000 A 
ATOM     14  O   UNL     1      -3.391  15.032  22.525  0.00  0.00    +0.000 OA
ATOM     15  N   UNL     1      -2.866  13.547  20.852  0.00  0.00    +0.000 N 
ATOM     16  N   UNL     1      -4.858  11.688  18.574  0.00  0.00    +0.000 N 
ATOM     17  C   UNL     1      -6.099  11.309  17.928  0.00  0.00    +0.000 C 
ENDROOT
BRANCH  12  18
ATOM     18  C   UNL     1      -6.040  15.192  21.812  0.00  0.00    +0.000 A 
ATOM     19  C   UNL     1      -6.218  16.489  21.319  0.00  0.00    +0.000 A 
ATOM     20  C   UNL     1      -7.061  17.383  21.980  0.00  0.00    +0.000 A 
ATOM     21  C   UNL     1      -7.707  16.993  23.152  0.00  0.00    +0.000 A 
ATOM     22  C   UNL     1      -7.527  15.704  23.656  0.00  0.00    +0.000 A 
ATOM     23  C   UNL     1      -6.706  14.797  22.980  0.00  0.00    +0.000 A 
ENDBRANCH  12  18
BRANCH  15  24
ATOM     24  C   UNL     1      -1.452  13.685  21.208  0.00  0.00    +0.000 C 
BRANCH  24  25
ATOM     25  C   UNL     1      -1.012  12.836  22.401  0.00  0.00    +0.000 C 
ATOM     26  O   UNL     1      -1.086  13.212  23.569  0.00  0.00    +0.000 OA
BRANCH  25  27
ATOM     27  C   UNL     1      -0.452  11.475  22.122  0.00  0.00    +0.000 A 
ATOM     28  C   UNL     1       0.674  11.373  21.291  0.00  0.00    +0.000 A 
ATOM     29  C   UNL     1       1.248  10.126  21.020  0.00  0.00    +0.000 A 
ATOM     30  C   UNL     1       0.704   8.976  21.586  0.00  0.00    +0.000 A 
ATOM     31 CL   UNL     1       1.420   7.444  21.275  0.00  0.00    +0.000 Cl
ATOM     32  C   UNL     1      -0.413   9.064  22.414  0.00  0.00    +0.000 A 
ATOM     33  C   UNL     1      -0.995  10.311  22.681  0.00  0.00    +0.000 A 
ENDBRANCH  25  27
ENDBRANCH  24  25
ENDBRANCH  15  24
TORSDOF 4
ENDMDL
MODEL 4
REMARK VINA RESULT:      -6.9      2.740      4.598
REMARK  Name = 
REMARK  6 active torsions:
REMARK  status: ('A' for Active; 'I' for Inactive)
REMARK    1  A    between atoms: C_1  and  C_2
REMARK    2  A    between atoms: N_12  and  C_13
REMARK    3  A    between atoms: N_21  and  C_22
REMARK    4  A    between atoms: C_22  and  C_23
REMARK    5  A    between atoms: C_23  and  C_25
REMARK    6  A    between atoms: N_32  and  C_33
REMARK                            x       y       z     vdW  Elec       q    Type
REMARK                         _______ _______ _______ _____ _____    ______ ____
ROOT
ATOM      1  C   UNL     1       1.463   9.640  18.650  0.00  0.00    +0.000 C 
ATOM      2  C   UNL     1       0.077  10.214  18.589  0.00  0.00    +0.000 A 
ATOM      3  C   UNL     1      -0.740   9.959  17.489  0.00  0.00    +0.000 A 
ATOM      4  C   UNL     1      -2.034  10.467  17.427  0.00  0.00    +0.000 A 
ATOM      5  C   UNL     1      -2.499  11.247  18.497  0.00  0.00    +0.000 A 
ATOM      6  C   UNL     1      -1.717  11.539  19.622  0.00  0.00    +0.000 A 
ATOM      7  C   UNL     1      -0.404  11.007  19.650  0.00  0.00    +0.000 A 
ATOM      8  C   UNL     1      -2.531  12.336  20.495  0.00  0.00    +0.000 A 
ATOM      9  C   UNL     1      -3.760  12.492  19.893  0.00  0.00    +0.000 A 
ATOM     10  C   UNL     1      -4.843  13.228  20.483  0.00  0.00    +0.000 A 
ATOM     11  O   UNL     1      -5.934  13.358  19.931  0.00  0.00    +0.000 OA
ATOM     12  N   UNL     1      -4.524  13.805  21.717  0.00  0.00    +0.000 N 
ATOM     13  C   UNL     1      -3.321  13.606  22.415  0.00  0.00    +0.000 A 
ATOM     14  O   UNL     1      -3.153  14.016  23.570  0.00  0.00    +0.000 OA
ATOM     15  N   UNL     1      -2.293  12.913  21.747  0.00  0.00    +0.000 N 
ATOM     16  N   UNL     1      -3.735  11.848  18.681  0.00  0.00    +0.000 N 
ATOM     17  C   UNL     1      -4.791  11.758  17.693  0.00  0.00    +0.000 C 
ENDROOT
BRANCH  12  18
ATOM     18  C   UNL     1      -5.533  14.607  22.329  0.00  0.00    +0.000 A 
ATOM     19  C   UNL     1      -6.467  14.018  23.188  0.00  0.00    +0.000 A 
ATOM     20  C   UNL     1      -7.498  14.783  23.736  0.00  0.00    +0.000 A 
ATOM     21  C   UNL     1      -7.614  16.132  23.406  0.00  0.00    +0.000 A 
ATOM     22  C   UNL     1      -6.692  16.724  22.542  0.00  0.00    +0.000 A 
ATOM     23  C   UNL     1      -5.642  15.968  22.014  0.00  0.00    +0.000 A 
ENDBRANCH  12  18
BRANCH  15  24
ATOM     24  C   UNL     1      -1.006  12.820  22.441  0.00  0.00    +0.000 C 
BRANCH  24  25
ATOM     25  C   UNL     1      -0.150  14.084  22.362  0.00  0.00    +0.000 C 
ATOM     26  O   UNL     1      -0.128  14.948  23.236  0.00  0.00    +0.000 OA
BRANCH  25  27
ATOM     27  C   UNL     1       0.698  14.278  21.143  0.00  0.00    +0.000 A 
ATOM     28  C   UNL     1       0.341  15.284  20.233  0.00  0.00    +0.000 A 
ATOM     29  C   UNL     1       1.115  15.520  19.091  0.00  0.00    +0.000 A 
ATOM     30  C   UNL     1       2.256  14.756  18.860  0.00  0.00    +0.000 A 
ATOM     31 CL   UNL     1       3.225  15.057  17.471  0.00  0.00    +0.000 Cl
ATOM     32  C   UNL     1       2.623  13.754  19.757  0.00  0.00    +0.000 A 
ATOM     33  C   UNL     1       1.845  13.511  20.896  0.00  0.00    +0.000 A 
ENDBRANCH  25  27
ENDBRANCH  24  25
ENDBRANCH  15  24
TORSDOF 4
ENDMDL
MODEL 5
REMARK VINA RESULT:      -6.8      3.155      6.290
REMARK  Name = 
REMARK  6 active torsions:
REMARK  status: ('A' for Active; 'I' for Inactive)
REMARK    1  A    between atoms: C_1  and  C_2
REMARK    2  A    between atoms: N_12  and  C_13
REMARK    3  A    between atoms: N_21  and  C_22
REMARK    4  A    between atoms: C_22  and  C_23
REMARK    5  A    between atoms: C_23  and  C_25
REMARK    6  A    between atoms: N_32  and  C_33
REMARK                            x       y       z     vdW  Elec       q    Type
REMARK                         _______ _______ _______ _____ _____    ______ ____
ROOT
ATOM      1  C   UNL     1      -4.769  12.274  24.919  0.00  0.00    +0.000 C 
ATOM      2  C   UNL     1      -3.643  13.201  24.567  0.00  0.00    +0.000 A 
ATOM      3  C   UNL     1      -3.367  14.306  25.372  0.00  0.00    +0.000 A 
ATOM      4  C   UNL     1      -2.314  15.164  25.069  0.00  0.00    +0.000 A 
ATOM      5  C   UNL     1      -1.536  14.895  23.933  0.00  0.00    +0.000 A 
ATOM      6  C   UNL     1      -1.775  13.804  23.088  0.00  0.00    +0.000 A 
ATOM      7  C   UNL     1      -2.856  12.953  23.424  0.00  0.00    +0.000 A 
ATOM      8  C   UNL     1      -0.775  13.853  22.059  0.00  0.00    +0.000 A 
ATOM      9  C   UNL     1       0.030  14.941  22.310  0.00  0.00    +0.000 A 
ATOM     10  C   UNL     1       1.152  15.302  21.489  0.00  0.00    +0.000 A 
ATOM     11  O   UNL     1       1.860  16.278  21.726  0.00  0.00    +0.000 OA
ATOM     12  N   UNL     1       1.334  14.463  20.384  0.00  0.00    +0.000 N 
ATOM     13  C   UNL     1       0.599  13.292  20.130  0.00  0.00    +0.000 A 
ATOM     14  O   UNL     1       0.903  12.507  19.223  0.00  0.00    +0.000 OA
ATOM     15  N   UNL     1      -0.514  13.035  20.954  0.00  0.00    +0.000 N 
ATOM     16  N   UNL     1      -0.439  15.579  23.432  0.00  0.00    +0.000 N 
ATOM     17  C   UNL     1       0.077  16.778  24.060  0.00  0.00    +0.000 C 
ENDROOT
BRANCH  12  18
ATOM     18  C   UNL     1       2.390  14.802  19.488  0.00  0.00    +0.000 A 
ATOM     19  C   UNL     1       3.698  14.387  19.762  0.00  0.00    +0.000 A 
ATOM     20  C   UNL     1       4.747  14.774  18.926  0.00  0.00    +0.000 A 
ATOM     21  C   UNL     1       4.496  15.599  17.831  0.00  0.00    +0.000 A 
ATOM     22  C   UNL     1       3.196  16.026  17.558  0.00  0.00    +0.000 A 
ATOM     23  C   UNL     1       2.139  15.617  18.376  0.00  0.00    +0.000 A 
ENDBRANCH  12  18
BRANCH  15  24
ATOM     24  C   UNL     1      -1.338  11.877  20.600  0.00  0.00    +0.000 C 
BRANCH  24  25
ATOM     25  C   UNL     1      -2.593  12.215  19.794  0.00  0.00    +0.000 C 
ATOM     26  O   UNL     1      -3.466  12.988  20.183  0.00  0.00    +0.000 OA
BRANCH  25  27
ATOM     27  C   UNL     1      -2.766  11.554  18.461  0.00  0.00    +0.000 A 
ATOM     28  C   UNL     1      -3.921  11.840  17.718  0.00  0.00    +0.000 A 
ATOM     29  C   UNL     1      -4.117  11.266  16.457  0.00  0.00    +0.000 A 
ATOM     30  C   UNL     1      -3.153  10.411  15.929  0.00  0.00    +0.000 A 
ATOM     31 CL   UNL     1      -3.378   9.721  14.369  0.00  0.00    +0.000 Cl
ATOM     32  C   UNL     1      -2.001  10.120  16.656  0.00  0.00    +0.000 A 
ATOM     33  C   UNL     1      -1.806  10.687  17.923  0.00  0.00    +0.000 A 
ENDBRANCH  25  27
ENDBRANCH  24  25
ENDBRANCH  15  24
TORSDOF 4
ENDMDL
MODEL 6
REMARK VINA RESULT:      -6.8      2.850      4.623
REMARK  Name = 
REMARK  6 active torsions:
REMARK  status: ('A' for Active; 'I' for Inactive)
REMARK    1  A    between atoms: C_1  and  C_2
REMARK    2  A    between atoms: N_12  and  C_13
REMARK    3  A    between atoms: N_21  and  C_22
REMARK    4  A    between atoms: C_22  and  C_23
REMARK    5  A    between atoms: C_23  and  C_25
REMARK    6  A    between atoms: N_32  and  C_33
REMARK                            x       y       z     vdW  Elec       q    Type
REMARK                         _______ _______ _______ _____ _____    ______ ____
ROOT
ATOM      1  C   UNL     1       4.860  14.444  17.853  0.00  0.00    +0.000 C 
ATOM      2  C   UNL     1       3.584  14.964  18.447  0.00  0.00    +0.000 A 
ATOM      3  C   UNL     1       3.264  16.317  18.345  0.00  0.00    +0.000 A 
ATOM      4  C   UNL     1       2.075  16.812  18.873  0.00  0.00    +0.000 A 
ATOM      5  C   UNL     1       1.204  15.917  19.515  0.00  0.00    +0.000 A 
ATOM      6  C   UNL     1       1.481  14.551  19.651  0.00  0.00    +0.000 A 
ATOM      7  C   UNL     1       2.702  14.083  19.104  0.00  0.00    +0.000 A 
ATOM      8  C   UNL     1       0.364  13.970  20.340  0.00  0.00    +0.000 A 
ATOM      9  C   UNL     1      -0.544  14.976  20.586  0.00  0.00    +0.000 A 
ATOM     10  C   UNL     1      -1.797  14.765  21.254  0.00  0.00    +0.000 A 
ATOM     11  O   UNL     1      -2.596  15.675  21.468  0.00  0.00    +0.000 OA
ATOM     12  N   UNL     1      -2.000  13.443  21.664  0.00  0.00    +0.000 N 
ATOM     13  C   UNL     1      -1.152  12.365  21.363  0.00  0.00    +0.000 A 
ATOM     14  O   UNL     1      -1.457  11.193  21.620  0.00  0.00    +0.000 OA
ATOM     15  N   UNL     1       0.080  12.663  20.749  0.00  0.00    +0.000 N 
ATOM     16  N   UNL     1      -0.029  16.153  20.103  0.00  0.00    +0.000 N 
ATOM     17  C   UNL     1      -0.619  17.476  20.154  0.00  0.00    +0.000 C 
ENDROOT
BRANCH  12  18
ATOM     18  C   UNL     1      -3.197  13.175  22.394  0.00  0.00    +0.000 A 
ATOM     19  C   UNL     1      -4.422  13.099  21.722  0.00  0.00    +0.000 A 
ATOM     20  C   UNL     1      -5.605  12.905  22.437  0.00  0.00    +0.000 A 
ATOM     21  C   UNL     1      -5.570  12.815  23.827  0.00  0.00    +0.000 A 
ATOM     22  C   UNL     1      -4.353  12.901  24.505  0.00  0.00    +0.000 A 
ATOM     23  C   UNL     1      -3.164  13.065  23.790  0.00  0.00    +0.000 A 
ENDBRANCH  12  18
BRANCH  15  24
ATOM     24  C   UNL     1       1.002  11.542  20.551  0.00  0.00    +0.000 C 
BRANCH  24  25
ATOM     25  C   UNL     1       0.718  10.699  19.309  0.00  0.00    +0.000 C 
ATOM     26  O   UNL     1      -0.017  11.061  18.392  0.00  0.00    +0.000 OA
BRANCH  25  27
ATOM     27  C   UNL     1       1.366   9.352  19.215  0.00  0.00    +0.000 A 
ATOM     28  C   UNL     1       1.397   8.543  20.361  0.00  0.00    +0.000 A 
ATOM     29  C   UNL     1       1.971   7.267  20.317  0.00  0.00    +0.000 A 
ATOM     30  C   UNL     1       2.508   6.791  19.125  0.00  0.00    +0.000 A 
ATOM     31 CL   UNL     1       3.193   5.215  19.060  0.00  0.00    +0.000 Cl
ATOM     32  C   UNL     1       2.482   7.584  17.979  0.00  0.00    +0.000 A 
ATOM     33  C   UNL     1       1.916   8.864  18.022  0.00  0.00    +0.000 A 
ENDBRANCH  25  27
ENDBRANCH  24  25
ENDBRANCH  15  24
TORSDOF 4
ENDMDL
MODEL 7
REMARK VINA RESULT:      -6.7      2.509      3.709
REMARK  Name = 
REMARK  6 active torsions:
REMARK  status: ('A' for Active; 'I' for Inactive)
REMARK    1  A    between atoms: C_1  and  C_2
REMARK    2  A    between atoms: N_12  and  C_13
REMARK    3  A    between atoms: N_21  and  C_22
REMARK    4  A    between atoms: C_22  and  C_23
REMARK    5  A    between atoms: C_23  and  C_25
REMARK    6  A    between atoms: N_32  and  C_33
REMARK                            x       y       z     vdW  Elec       q    Type
REMARK                         _______ _______ _______ _____ _____    ______ ____
ROOT
ATOM      1  C   UNL     1      -6.774  10.733  18.947  0.00  0.00    +0.000 C 
ATOM      2  C   UNL     1      -6.545  11.881  19.886  0.00  0.00    +0.000 A 
ATOM      3  C   UNL     1      -7.583  12.764  20.180  0.00  0.00    +0.000 A 
ATOM      4  C   UNL     1      -7.392  13.822  21.063  0.00  0.00    +0.000 A 
ATOM      5  C   UNL     1      -6.128  13.984  21.651  0.00  0.00    +0.000 A 
ATOM      6  C   UNL     1      -5.050  13.129  21.385  0.00  0.00    +0.000 A 
ATOM      7  C   UNL     1      -5.279  12.065  20.478  0.00  0.00    +0.000 A 
ATOM      8  C   UNL     1      -3.947  13.599  22.173  0.00  0.00    +0.000 A 
ATOM      9  C   UNL     1      -4.380  14.694  22.889  0.00  0.00    +0.000 A 
ATOM     10  C   UNL     1      -3.546  15.425  23.801  0.00  0.00    +0.000 A 
ATOM     11  O   UNL     1      -3.949  16.400  24.430  0.00  0.00    +0.000 OA
ATOM     12  N   UNL     1      -2.234  14.943  23.872  0.00  0.00    +0.000 N 
ATOM     13  C   UNL     1      -1.764  13.783  23.235  0.00  0.00    +0.000 A 
ATOM     14  O   UNL     1      -0.638  13.319  23.455  0.00  0.00    +0.000 OA
ATOM     15  N   UNL     1      -2.629  13.151  22.320  0.00  0.00    +0.000 N 
ATOM     16  N   UNL     1      -5.692  14.934  22.561  0.00  0.00    +0.000 N 
ATOM     17  C   UNL     1      -6.556  15.990  23.048  0.00  0.00    +0.000 C 
ENDROOT
BRANCH  12  18
ATOM     18  C   UNL     1      -1.332  15.664  24.709  0.00  0.00    +0.000 A 
ATOM     19  C   UNL     1      -1.353  15.463  26.094  0.00  0.00    +0.000 A 
ATOM     20  C   UNL     1      -0.521  16.215  26.925  0.00  0.00    +0.000 A 
ATOM     21  C   UNL     1       0.314  17.188  26.379  0.00  0.00    +0.000 A 
ATOM     22  C   UNL     1       0.332  17.401  24.999  0.00  0.00    +0.000 A 
ATOM     23  C   UNL     1      -0.478  16.630  24.161  0.00  0.00    +0.000 A 
ENDBRANCH  12  18
BRANCH  15  24
ATOM     24  C   UNL     1      -2.081  12.015  21.576  0.00  0.00    +0.000 C 
BRANCH  24  25
ATOM     25  C   UNL     1      -1.377  12.392  20.272  0.00  0.00    +0.000 C 
ATOM     26  O   UNL     1      -0.515  13.265  20.190  0.00  0.00    +0.000 OA
BRANCH  25  27
ATOM     27  C   UNL     1      -1.772  11.658  19.028  0.00  0.00    +0.000 A 
ATOM     28  C   UNL     1      -2.953  12.041  18.372  0.00  0.00    +0.000 A 
ATOM     29  C   UNL     1      -3.352  11.402  17.193  0.00  0.00    +0.000 A 
ATOM     30  C   UNL     1      -2.567  10.384  16.658  0.00  0.00    +0.000 A 
ATOM     31 CL   UNL     1      -3.041   9.611  15.197  0.00  0.00    +0.000 Cl
ATOM     32  C   UNL     1      -1.392   9.995  17.299  0.00  0.00    +0.000 A 
ATOM     33  C   UNL     1      -0.995  10.628  18.484  0.00  0.00    +0.000 A 
ENDBRANCH  25  27
ENDBRANCH  24  25
ENDBRANCH  15  24
TORSDOF 4
ENDMDL
MODEL 8
REMARK VINA RESULT:      -6.7      2.369      3.662
REMARK  Name = 
REMARK  6 active torsions:
REMARK  status: ('A' for Active; 'I' for Inactive)
REMARK    1  A    between atoms: C_1  and  C_2
REMARK    2  A    between atoms: N_12  and  C_13
REMARK    3  A    between atoms: N_21  and  C_22
REMARK    4  A    between atoms: C_22  and  C_23
REMARK    5  A    between atoms: C_23  and  C_25
REMARK    6  A    between atoms: N_32  and  C_33
REMARK                            x       y       z     vdW  Elec       q    Type
REMARK                         _______ _______ _______ _____ _____    ______ ____
ROOT
ATOM      1  C   UNL     1      -0.352   9.688  17.788  0.00  0.00    +0.000 C 
ATOM      2  C   UNL     1      -1.699  10.310  18.013  0.00  0.00    +0.000 A 
ATOM      3  C   UNL     1      -2.815   9.834  17.328  0.00  0.00    +0.000 A 
ATOM      4  C   UNL     1      -4.074  10.387  17.541  0.00  0.00    +0.000 A 
ATOM      5  C   UNL     1      -4.196  11.440  18.461  0.00  0.00    +0.000 A 
ATOM      6  C   UNL     1      -3.106  11.961  19.170  0.00  0.00    +0.000 A 
ATOM      7  C   UNL     1      -1.839  11.376  18.926  0.00  0.00    +0.000 A 
ATOM      8  C   UNL     1      -3.621  13.002  20.013  0.00  0.00    +0.000 A 
ATOM      9  C   UNL     1      -4.981  13.073  19.805  0.00  0.00    +0.000 A 
ATOM     10  C   UNL     1      -5.839  13.999  20.489  0.00  0.00    +0.000 A 
ATOM     11  O   UNL     1      -7.051  14.051  20.290  0.00  0.00    +0.000 OA
ATOM     12  N   UNL     1      -5.161  14.851  21.367  0.00  0.00    +0.000 N 
ATOM     13  C   UNL     1      -3.795  14.764  21.683  0.00  0.00    +0.000 A 
ATOM     14  O   UNL     1      -3.280  15.444  22.580  0.00  0.00    +0.000 OA
ATOM     15  N   UNL     1      -3.013  13.863  20.933  0.00  0.00    +0.000 N 
ATOM     16  N   UNL     1      -5.324  12.142  18.857  0.00  0.00    +0.000 N 
ATOM     17  C   UNL     1      -6.636  11.868  18.305  0.00  0.00    +0.000 C 
ENDROOT
BRANCH  12  18
ATOM     18  C   UNL     1      -5.943  15.842  22.032  0.00  0.00    +0.000 A 
ATOM     19  C   UNL     1      -6.751  15.482  23.117  0.00  0.00    +0.000 A 
ATOM     20  C   UNL     1      -7.570  16.432  23.727  0.00  0.00    +0.000 A 
ATOM     21  C   UNL     1      -7.607  17.737  23.238  0.00  0.00    +0.000 A 
ATOM     22  C   UNL     1      -6.813  18.100  22.150  0.00  0.00    +0.000 A 
ATOM     23  C   UNL     1      -5.969  17.159  21.554  0.00  0.00    +0.000 A 
ENDBRANCH  12  18
BRANCH  15  24
ATOM     24  C   UNL     1      -1.572  13.872  21.192  0.00  0.00    +0.000 C 
BRANCH  24  25
ATOM     25  C   UNL     1      -1.133  12.989  22.360  0.00  0.00    +0.000 C 
ATOM     26  O   UNL     1      -1.293  13.291  23.542  0.00  0.00    +0.000 OA
BRANCH  25  27
ATOM     27  C   UNL     1      -0.461  11.689  22.040  0.00  0.00    +0.000 A 
ATOM     28  C   UNL     1      -0.975  10.513  22.607  0.00  0.00    +0.000 A 
ATOM     29  C   UNL     1      -0.397   9.271  22.319  0.00  0.00    +0.000 A 
ATOM     30  C   UNL     1       0.692   9.200  21.455  0.00  0.00    +0.000 A 
ATOM     31 CL   UNL     1       1.392   7.674  21.080  0.00  0.00    +0.000 Cl
ATOM     32  C   UNL     1       1.212  10.360  20.884  0.00  0.00    +0.000 A 
ATOM     33  C   UNL     1       0.640  11.605  21.177  0.00  0.00    +0.000 A 
ENDBRANCH  25  27
ENDBRANCH  24  25
ENDBRANCH  15  24
TORSDOF 4
ENDMDL
MODEL 9
REMARK VINA RESULT:      -6.6      1.711      1.901
REMARK  Name = 
REMARK  6 active torsions:
REMARK  status: ('A' for Active; 'I' for Inactive)
REMARK    1  A    between atoms: C_1  and  C_2
REMARK    2  A    between atoms: N_12  and  C_13
REMARK    3  A    between atoms: N_21  and  C_22
REMARK    4  A    between atoms: C_22  and  C_23
REMARK    5  A    between atoms: C_23  and  C_25
REMARK    6  A    between atoms: N_32  and  C_33
REMARK                            x       y       z     vdW  Elec       q    Type
REMARK                         _______ _______ _______ _____ _____    ______ ____
ROOT
ATOM      1  C   UNL     1      -1.788   9.625  16.986  0.00  0.00    +0.000 C 
ATOM      2  C   UNL     1      -2.790  10.494  17.687  0.00  0.00    +0.000 A 
ATOM      3  C   UNL     1      -4.150  10.363  17.407  0.00  0.00    +0.000 A 
ATOM      4  C   UNL     1      -5.093  11.147  18.063  0.00  0.00    +0.000 A 
ATOM      5  C   UNL     1      -4.646  12.078  19.013  0.00  0.00    +0.000 A 
ATOM      6  C   UNL     1      -3.292  12.255  19.327  0.00  0.00    +0.000 A 
ATOM      7  C   UNL     1      -2.359  11.442  18.638  0.00  0.00    +0.000 A 
ATOM      8  C   UNL     1      -3.233  13.270  20.340  0.00  0.00    +0.000 A 
ATOM      9  C   UNL     1      -4.524  13.663  20.615  0.00  0.00    +0.000 A 
ATOM     10  C   UNL     1      -4.857  14.662  21.591  0.00  0.00    +0.000 A 
ATOM     11  O   UNL     1      -6.015  15.002  21.823  0.00  0.00    +0.000 OA
ATOM     12  N   UNL     1      -3.742  15.228  22.219  0.00  0.00    +0.000 N 
ATOM     13  C   UNL     1      -2.415  14.805  22.042  0.00  0.00    +0.000 A 
ATOM     14  O   UNL     1      -1.486  15.238  22.736  0.00  0.00    +0.000 OA
ATOM     15  N   UNL     1      -2.167  13.856  21.032  0.00  0.00    +0.000 N 
ATOM     16  N   UNL     1      -5.375  12.955  19.803  0.00  0.00    +0.000 N 
ATOM     17  C   UNL     1      -6.819  13.046  19.724  0.00  0.00    +0.000 C 
ENDROOT
BRANCH  12  18
ATOM     18  C   UNL     1      -3.996  16.275  23.154  0.00  0.00    +0.000 A 
ATOM     19  C   UNL     1      -4.156  17.590  22.702  0.00  0.00    +0.000 A 
ATOM     20  C   UNL     1      -4.336  18.630  23.616  0.00  0.00    +0.000 A 
ATOM     21  C   UNL     1      -4.329  18.363  24.984  0.00  0.00    +0.000 A 
ATOM     22  C   UNL     1      -4.160  17.055  25.442  0.00  0.00    +0.000 A 
ATOM     23  C   UNL     1      -4.008  16.008  24.529  0.00  0.00    +0.000 A 
ENDBRANCH  12  18
BRANCH  15  24
ATOM     24  C   UNL     1      -0.764  13.516  20.780  0.00  0.00    +0.000 C 
BRANCH  24  25
ATOM     25  C   UNL     1      -0.304  12.208  21.423  0.00  0.00    +0.000 C 
ATOM     26  O   UNL     1      -0.451  11.945  22.615  0.00  0.00    +0.000 OA
BRANCH  25  27
ATOM     27  C   UNL     1       0.372  11.199  20.547  0.00  0.00    +0.000 A 
ATOM     28  C   UNL     1       0.480   9.878  21.008  0.00  0.00    +0.000 A 
ATOM     29  C   UNL     1       1.082   8.894  20.216  0.00  0.00    +0.000 A 
ATOM     30  C   UNL     1       1.570   9.224  18.955  0.00  0.00    +0.000 A 
ATOM     31 CL   UNL     1       2.290   8.013  17.969  0.00  0.00    +0.000 Cl
ATOM     32  C   UNL     1       1.469  10.532  18.485  0.00  0.00    +0.000 A 
ATOM     33  C   UNL     1       0.873  11.521  19.279  0.00  0.00    +0.000 A 
ENDBRANCH  25  27
ENDBRANCH  24  25
ENDBRANCH  15  24
TORSDOF 4
ENDMDL
