MODEL 1
REMARK VINA RESULT:      -7.9      0.000      0.000
REMARK  Name = 
REMARK  12 active torsions:
REMARK  status: ('A' for Active; 'I' for Inactive)
REMARK    1  A    between atoms: N_1  and  C_2
REMARK    2  A    between atoms: N_11  and  C_12
REMARK    3  A    between atoms: C_14  and  C_15
REMARK    4  A    between atoms: C_15  and  O_16
REMARK    5  A    between atoms: O_16  and  S_17
REMARK    6  A    between atoms: S_17  and  N_20
REMARK    7  A    between atoms: C_21  and  CA_23
REMARK    8  A    between atoms: CA_23  and  N_24
REMARK    9  A    between atoms: CA_23  and  C_25
REMARK   10  A    between atoms: C_25  and  O_26
REMARK   11  A    between atoms: C_27  and  O_28
REMARK   12  A    between atoms: C_29  and  O_30
REMARK                            x       y       z     vdW  Elec       q    Type
REMARK                         _______ _______ _______ _____ _____    ______ ____
ROOT
ATOM      1  C   UNL     1       3.002   6.201  19.358  0.00  0.00    +0.000 C 
ATOM      2  O   UNL     1       4.186   5.871  18.592  0.00  0.00    +0.000 OA
ATOM      3  C   UNL     1       4.172   4.457  18.271  0.00  0.00    +0.000 C 
ATOM      4  C   UNL     1       3.024   3.853  19.079  0.00  0.00    +0.000 C 
ATOM      5  C   UNL     1       2.050   5.013  19.232  0.00  0.00    +0.000 C 
ENDROOT
BRANCH   1  15
ATOM      6  C   UNL     1       0.728  10.473  19.269  0.00  0.00    +0.000 A 
ATOM      7  N   UNL     1       0.224  10.369  20.517  0.00  0.00    +0.000 NA
ATOM      8  C   UNL     1       0.497   9.245  21.211  0.00  0.00    +0.000 A 
ATOM      9 CL   UNL     1      -0.152   9.186  22.794  0.00  0.00    +0.000 Cl
ATOM     10  N   UNL     1       1.224   8.169  20.846  0.00  0.00    +0.000 NA
ATOM     11  C   UNL     1       1.675   8.314  19.590  0.00  0.00    +0.000 A 
ATOM     12  C   UNL     1       1.469   9.397  18.748  0.00  0.00    +0.000 A 
ATOM     13  N   UNL     1       2.073   9.187  17.527  0.00  0.00    +0.000 NA
ATOM     14  C   UNL     1       2.662   8.015  17.638  0.00  0.00    +0.000 A 
ATOM     15  N   UNL     1       2.456   7.450  18.869  0.00  0.00    +0.000 N 
BRANCH   6  16
ATOM     16  N   UNL     1       0.506  11.647  18.565  0.00  0.00    +0.000 N 
ATOM     17  H   UNL     1       1.238  11.875  17.905  0.00  0.00    +0.000 HD
ATOM     18  H   UNL     1       0.085  12.395  19.103  0.00  0.00    +0.000 HD
ENDBRANCH   6  16
ENDBRANCH   1  15
BRANCH   4  19
ATOM     19  O   UNL     1       3.449   3.448  20.393  0.00  0.00    +0.000 OA
ATOM     20  H   UNL     1       4.416   3.322  20.400  0.00  0.00    +0.000 HD
ENDBRANCH   4  19
BRANCH   5  21
ATOM     21  O   UNL     1       1.206   4.832  20.364  0.00  0.00    +0.000 OA
ATOM     22  H   UNL     1       1.569   5.396  21.080  0.00  0.00    +0.000 HD
ENDBRANCH   5  21
BRANCH   3  23
ATOM     23  C   UNL     1       3.985   4.266  16.761  0.00  0.00    +0.000 C 
BRANCH  23  24
ATOM     24  O   UNL     1       4.753   5.231  16.048  0.00  0.00    +0.000 OA
BRANCH  24  25
ATOM     25  S   UNL     1       6.212   4.757  15.512  0.00  0.00    +0.000 S 
ATOM     26  O   UNL     1       6.183   3.337  15.264  0.00  0.00    +0.000 OA
ATOM     27  O   UNL     1       6.607   5.675  14.465  0.00  0.00    +0.000 OA
BRANCH  25  28
ATOM     28  N   UNL     1       7.253   5.044  16.766  0.00  0.00    +0.000 N 
ATOM     29  C   UNL     1       7.358   6.292  17.396  0.00  0.00    +0.000 C 
ATOM     30  O   UNL     1       6.795   7.286  16.954  0.00  0.00    +0.000 OA
ATOM     31  H   UNL     1       7.657   4.202  17.165  0.00  0.00    +0.000 HD
BRANCH  29  32
ATOM     32  CA  UNL     1       8.226   6.316  18.665  0.00  0.00    +0.000 C 
BRANCH  32  33
ATOM     33  N   UNL     1       8.541   7.706  19.070  0.00  0.00    +0.000 NA
ATOM     34  H1  UNL     1       8.336   7.825  20.064  0.00  0.00    +0.000 HD
ATOM     35  H2  UNL     1       7.977   8.388  18.568  0.00  0.00    +0.000 HD
ENDBRANCH  32  33
BRANCH  32  36
ATOM     36  C   UNL     1       7.489   5.545  19.783  0.00  0.00    +0.000 C 
BRANCH  36  37
ATOM     37  O   UNL     1       8.297   5.325  20.938  0.00  0.00    +0.000 OA
ATOM     38  H   UNL     1       8.698   6.171  21.195  0.00  0.00    +0.000 HD
ENDBRANCH  36  37
ENDBRANCH  32  36
ENDBRANCH  29  32
ENDBRANCH  25  28
ENDBRANCH  24  25
ENDBRANCH  23  24
ENDBRANCH   3  23
TORSDOF 12
ENDMDL
MODEL 2
REMARK VINA RESULT:      -7.7      1.930      3.129
REMARK  Name = 
REMARK  12 active torsions:
REMARK  status: ('A' for Active; 'I' for Inactive)
REMARK    1  A    between atoms: N_1  and  C_2
REMARK    2  A    between atoms: N_11  and  C_12
REMARK    3  A    between atoms: C_14  and  C_15
REMARK    4  A    between atoms: C_15  and  O_16
REMARK    5  A    between atoms: O_16  and  S_17
REMARK    6  A    between atoms: S_17  and  N_20
REMARK    7  A    between atoms: C_21  and  CA_23
REMARK    8  A    between atoms: CA_23  and  N_24
REMARK    9  A    between atoms: CA_23  and  C_25
REMARK   10  A    between atoms: C_25  and  O_26
REMARK   11  A    between atoms: C_27  and  O_28
REMARK   12  A    between atoms: C_29  and  O_30
REMARK                            x       y       z     vdW  Elec       q    Type
REMARK                         _______ _______ _______ _____ _____    ______ ____
ROOT
ATOM      1  C   UNL     1       2.952   5.739  19.784  0.00  0.00    +0.000 C 
ATOM      2  O   UNL     1       4.375   5.558  19.582  0.00  0.00    +0.000 OA
ATOM      3  C   UNL     1       4.638   4.173  19.246  0.00  0.00    +0.000 C 
ATOM      4  C   UNL     1       3.325   3.425  19.477  0.00  0.00    +0.000 C 
ATOM      5  C   UNL     1       2.265   4.490  19.235  0.00  0.00    +0.000 C 
ENDROOT
BRANCH   1  15
ATOM      6  C   UNL     1       1.057  10.148  19.149  0.00  0.00    +0.000 A 
ATOM      7  N   UNL     1       0.491  10.215  20.373  0.00  0.00    +0.000 NA
ATOM      8  C   UNL     1       0.636   9.152  21.189  0.00  0.00    +0.000 A 
ATOM      9 CL   UNL     1      -0.086   9.309  22.733  0.00  0.00    +0.000 Cl
ATOM     10  N   UNL     1       1.284   7.989  20.972  0.00  0.00    +0.000 NA
ATOM     11  C   UNL     1       1.801   7.965  19.733  0.00  0.00    +0.000 A 
ATOM     12  C   UNL     1       1.726   8.968  18.778  0.00  0.00    +0.000 A 
ATOM     13  N   UNL     1       2.364   8.585  17.618  0.00  0.00    +0.000 NA
ATOM     14  C   UNL     1       2.845   7.387  17.876  0.00  0.00    +0.000 A 
ATOM     15  N   UNL     1       2.537   6.972  19.145  0.00  0.00    +0.000 N 
BRANCH   6  16
ATOM     16  N   UNL     1       0.968  11.257  18.321  0.00  0.00    +0.000 N 
ATOM     17  H   UNL     1       1.757  11.370  17.699  0.00  0.00    +0.000 HD
ATOM     18  H   UNL     1       0.564  12.081  18.751  0.00  0.00    +0.000 HD
ENDBRANCH   6  16
ENDBRANCH   1  15
BRANCH   4  19
ATOM     19  O   UNL     1       3.202   2.968  20.835  0.00  0.00    +0.000 OA
ATOM     20  H   UNL     1       2.455   2.345  20.905  0.00  0.00    +0.000 HD
ENDBRANCH   4  19
BRANCH   5  21
ATOM     21  O   UNL     1       1.048   4.167  19.900  0.00  0.00    +0.000 OA
ATOM     22  H   UNL     1       0.957   4.797  20.647  0.00  0.00    +0.000 HD
ENDBRANCH   5  21
BRANCH   3  23
ATOM     23  C   UNL     1       5.120   4.069  17.794  0.00  0.00    +0.000 C 
BRANCH  23  24
ATOM     24  O   UNL     1       5.534   5.349  17.324  0.00  0.00    +0.000 OA
BRANCH  24  25
ATOM     25  S   UNL     1       7.133   5.609  17.215  0.00  0.00    +0.000 S 
ATOM     26  O   UNL     1       7.452   6.859  17.860  0.00  0.00    +0.000 OA
ATOM     27  O   UNL     1       7.799   4.387  17.617  0.00  0.00    +0.000 OA
BRANCH  25  28
ATOM     28  N   UNL     1       7.442   5.767  15.596  0.00  0.00    +0.000 N 
ATOM     29  C   UNL     1       7.041   4.813  14.650  0.00  0.00    +0.000 C 
ATOM     30  O   UNL     1       6.573   3.732  14.984  0.00  0.00    +0.000 OA
ATOM     31  H   UNL     1       7.763   6.692  15.328  0.00  0.00    +0.000 HD
BRANCH  29  32
ATOM     32  CA  UNL     1       7.235   5.224  13.181  0.00  0.00    +0.000 C 
BRANCH  32  33
ATOM     33  N   UNL     1       8.560   5.856  12.976  0.00  0.00    +0.000 NA
ATOM     34  H1  UNL     1       8.545   6.808  13.349  0.00  0.00    +0.000 HD
ATOM     35  H2  UNL     1       8.800   5.930  11.990  0.00  0.00    +0.000 HD
ENDBRANCH  32  33
BRANCH  32  36
ATOM     36  C   UNL     1       7.051   3.976  12.290  0.00  0.00    +0.000 C 
BRANCH  36  37
ATOM     37  O   UNL     1       5.740   3.421  12.368  0.00  0.00    +0.000 OA
ATOM     38  H   UNL     1       5.555   3.206  13.296  0.00  0.00    +0.000 HD
ENDBRANCH  36  37
ENDBRANCH  32  36
ENDBRANCH  29  32
ENDBRANCH  25  28
ENDBRANCH  24  25
ENDBRANCH  23  24
ENDBRANCH   3  23
TORSDOF 12
ENDMDL
MODEL 3
REMARK VINA RESULT:      -7.5      2.273      3.581
REMARK  Name = 
REMARK  12 active torsions:
REMARK  status: ('A' for Active; 'I' for Inactive)
REMARK    1  A    between atoms: N_1  and  C_2
REMARK    2  A    between atoms: N_11  and  C_12
REMARK    3  A    between atoms: C_14  and  C_15
REMARK    4  A    between atoms: C_15  and  O_16
REMARK    5  A    between atoms: O_16  and  S_17
REMARK    6  A    between atoms: S_17  and  N_20
REMARK    7  A    between atoms: C_21  and  CA_23
REMARK    8  A    between atoms: CA_23  and  N_24
REMARK    9  A    between atoms: CA_23  and  C_25
REMARK   10  A    between atoms: C_25  and  O_26
REMARK   11  A    between atoms: C_27  and  O_28
REMARK   12  A    between atoms: C_29  and  O_30
REMARK                            x       y       z     vdW  Elec       q    Type
REMARK                         _______ _______ _______ _____ _____    ______ ____
ROOT
ATOM      1  C   UNL     1       2.770   5.689  19.988  0.00  0.00    +0.000 C 
ATOM      2  O   UNL     1       4.137   5.388  19.612  0.00  0.00    +0.000 OA
ATOM      3  C   UNL     1       4.251   3.976  19.309  0.00  0.00    +0.000 C 
ATOM      4  C   UNL     1       2.929   3.343  19.742  0.00  0.00    +0.000 C 
ATOM      5  C   UNL     1       1.927   4.479  19.590  0.00  0.00    +0.000 C 
ENDROOT
BRANCH   1  15
ATOM      6  C   UNL     1       1.040  10.170  19.388  0.00  0.00    +0.000 A 
ATOM      7  N   UNL     1       0.571  10.289  20.649  0.00  0.00    +0.000 NA
ATOM      8  C   UNL     1       0.727   9.237  21.477  0.00  0.00    +0.000 A 
ATOM      9 CL   UNL     1       0.132   9.461  23.067  0.00  0.00    +0.000 Cl
ATOM     10  N   UNL     1       1.303   8.040  21.241  0.00  0.00    +0.000 NA
ATOM     11  C   UNL     1       1.724   7.966  19.969  0.00  0.00    +0.000 A 
ATOM     12  C   UNL     1       1.624   8.951  18.998  0.00  0.00    +0.000 A 
ATOM     13  N   UNL     1       2.154   8.514  17.803  0.00  0.00    +0.000 NA
ATOM     14  C   UNL     1       2.598   7.300  18.054  0.00  0.00    +0.000 A 
ATOM     15  N   UNL     1       2.366   6.926  19.352  0.00  0.00    +0.000 N 
BRANCH   6  16
ATOM     16  N   UNL     1       0.941  11.264  18.543  0.00  0.00    +0.000 N 
ATOM     17  H   UNL     1       0.082  11.295  18.009  0.00  0.00    +0.000 HD
ATOM     18  H   UNL     1       1.805  11.536  18.090  0.00  0.00    +0.000 HD
ENDBRANCH   6  16
ENDBRANCH   1  15
BRANCH   4  19
ATOM     19  O   UNL     1       2.952   2.946  21.124  0.00  0.00    +0.000 OA
ATOM     20  H   UNL     1       2.982   1.973  21.187  0.00  0.00    +0.000 HD
ENDBRANCH   4  19
BRANCH   5  21
ATOM     21  O   UNL     1       0.788   4.277  20.420  0.00  0.00    +0.000 OA
ATOM     22  H   UNL     1       0.502   3.348  20.287  0.00  0.00    +0.000 HD
ENDBRANCH   5  21
BRANCH   3  23
ATOM     23  C   UNL     1       4.527   3.782  17.813  0.00  0.00    +0.000 C 
BRANCH  23  24
ATOM     24  O   UNL     1       4.452   5.034  17.137  0.00  0.00    +0.000 OA
BRANCH  24  25
ATOM     25  S   UNL     1       5.656   5.383  16.104  0.00  0.00    +0.000 S 
ATOM     26  O   UNL     1       5.536   6.760  15.690  0.00  0.00    +0.000 OA
ATOM     27  O   UNL     1       6.887   4.901  16.694  0.00  0.00    +0.000 OA
BRANCH  25  28
ATOM     28  N   UNL     1       5.393   4.420  14.784  0.00  0.00    +0.000 N 
ATOM     29  C   UNL     1       6.301   4.325  13.720  0.00  0.00    +0.000 C 
ATOM     30  O   UNL     1       7.272   5.067  13.634  0.00  0.00    +0.000 OA
ATOM     31  H   UNL     1       4.628   3.763  14.900  0.00  0.00    +0.000 HD
BRANCH  29  32
ATOM     32  CA  UNL     1       5.986   3.234  12.683  0.00  0.00    +0.000 C 
BRANCH  32  33
ATOM     33  N   UNL     1       4.695   3.500  12.006  0.00  0.00    +0.000 NA
ATOM     34  H1  UNL     1       4.129   4.123  12.586  0.00  0.00    +0.000 HD
ATOM     35  H2  UNL     1       4.153   2.650  11.869  0.00  0.00    +0.000 HD
ENDBRANCH  32  33
BRANCH  32  36
ATOM     36  C   UNL     1       7.156   3.155  11.677  0.00  0.00    +0.000 C 
BRANCH  36  37
ATOM     37  O   UNL     1       7.447   1.822  11.260  0.00  0.00    +0.000 OA
ATOM     38  H   UNL     1       6.685   1.486  10.760  0.00  0.00    +0.000 HD
ENDBRANCH  36  37
ENDBRANCH  32  36
ENDBRANCH  29  32
ENDBRANCH  25  28
ENDBRANCH  24  25
ENDBRANCH  23  24
ENDBRANCH   3  23
TORSDOF 12
ENDMDL
MODEL 4
REMARK VINA RESULT:      -7.5      2.111      3.277
REMARK  Name = 
REMARK  12 active torsions:
REMARK  status: ('A' for Active; 'I' for Inactive)
REMARK    1  A    between atoms: N_1  and  C_2
REMARK    2  A    between atoms: N_11  and  C_12
REMARK    3  A    between atoms: C_14  and  C_15
REMARK    4  A    between atoms: C_15  and  O_16
REMARK    5  A    between atoms: O_16  and  S_17
REMARK    6  A    between atoms: S_17  and  N_20
REMARK    7  A    between atoms: C_21  and  CA_23
REMARK    8  A    between atoms: CA_23  and  N_24
REMARK    9  A    between atoms: CA_23  and  C_25
REMARK   10  A    between atoms: C_25  and  O_26
REMARK   11  A    between atoms: C_27  and  O_28
REMARK   12  A    between atoms: C_29  and  O_30
REMARK                            x       y       z     vdW  Elec       q    Type
REMARK                         _______ _______ _______ _____ _____    ______ ____
ROOT
ATOM      1  C   UNL     1       2.315   5.985  19.210  0.00  0.00    +0.000 C 
ATOM      2  O   UNL     1       3.494   5.921  20.049  0.00  0.00    +0.000 OA
ATOM      3  C   UNL     1       4.320   4.805  19.631  0.00  0.00    +0.000 C 
ATOM      4  C   UNL     1       3.484   4.014  18.625  0.00  0.00    +0.000 C 
ATOM      5  C   UNL     1       2.575   5.071  18.013  0.00  0.00    +0.000 C 
ENDROOT
BRANCH   1  15
ATOM      6  C   UNL     1       1.140  10.665  19.596  0.00  0.00    +0.000 A 
ATOM      7  N   UNL     1       0.691  10.573  20.866  0.00  0.00    +0.000 NA
ATOM      8  C   UNL     1       0.720   9.361  21.455  0.00  0.00    +0.000 A 
ATOM      9 CL   UNL     1       0.158   9.316  23.071  0.00  0.00    +0.000 Cl
ATOM     10  N   UNL     1       1.146   8.179  20.961  0.00  0.00    +0.000 NA
ATOM     11  C   UNL     1       1.552   8.324  19.690  0.00  0.00    +0.000 A 
ATOM     12  C   UNL     1       1.571   9.495  18.947  0.00  0.00    +0.000 A 
ATOM     13  N   UNL     1       2.043   9.257  17.674  0.00  0.00    +0.000 NA
ATOM     14  C   UNL     1       2.336   7.973  17.656  0.00  0.00    +0.000 A 
ATOM     15  N   UNL     1       2.063   7.367  18.854  0.00  0.00    +0.000 N 
BRANCH   6  16
ATOM     16  N   UNL     1       1.173  11.916  18.999  0.00  0.00    +0.000 N 
ATOM     17  H   UNL     1       2.044  12.125  18.529  0.00  0.00    +0.000 HD
ATOM     18  H   UNL     1       0.712  12.652  19.521  0.00  0.00    +0.000 HD
ENDBRANCH   6  16
ENDBRANCH   1  15
BRANCH   4  19
ATOM     19  O   UNL     1       2.657   3.031  19.272  0.00  0.00    +0.000 OA
ATOM     20  H   UNL     1       3.172   2.572  19.962  0.00  0.00    +0.000 HD
ENDBRANCH   4  19
BRANCH   5  21
ATOM     21  O   UNL     1       1.395   4.487  17.473  0.00  0.00    +0.000 OA
ATOM     22  H   UNL     1       1.089   3.816  18.120  0.00  0.00    +0.000 HD
ENDBRANCH   5  21
BRANCH   3  23
ATOM     23  C   UNL     1       5.629   5.322  19.022  0.00  0.00    +0.000 C 
BRANCH  23  24
ATOM     24  O   UNL     1       5.746   4.882  17.672  0.00  0.00    +0.000 OA
BRANCH  24  25
ATOM     25  S   UNL     1       7.207   5.027  16.977  0.00  0.00    +0.000 S 
ATOM     26  O   UNL     1       7.447   6.416  16.670  0.00  0.00    +0.000 OA
ATOM     27  O   UNL     1       8.149   4.285  17.790  0.00  0.00    +0.000 OA
BRANCH  25  28
ATOM     28  N   UNL     1       7.100   4.190  15.553  0.00  0.00    +0.000 N 
ATOM     29  C   UNL     1       6.245   4.573  14.510  0.00  0.00    +0.000 C 
ATOM     30  O   UNL     1       5.413   5.461  14.652  0.00  0.00    +0.000 OA
ATOM     31  H   UNL     1       7.839   3.506  15.422  0.00  0.00    +0.000 HD
BRANCH  29  32
ATOM     32  CA  UNL     1       6.427   3.799  13.195  0.00  0.00    +0.000 C 
BRANCH  32  33
ATOM     33  N   UNL     1       5.120   3.527  12.551  0.00  0.00    +0.000 NA
ATOM     34  H1  UNL     1       4.366   3.804  13.182  0.00  0.00    +0.000 HD
ATOM     35  H2  UNL     1       4.990   2.538  12.350  0.00  0.00    +0.000 HD
ENDBRANCH  32  33
BRANCH  32  36
ATOM     36  C   UNL     1       7.365   4.608  12.270  0.00  0.00    +0.000 C 
BRANCH  36  37
ATOM     37  O   UNL     1       8.047   5.661  12.947  0.00  0.00    +0.000 OA
ATOM     38  H   UNL     1       8.459   6.235  12.281  0.00  0.00    +0.000 HD
ENDBRANCH  36  37
ENDBRANCH  32  36
ENDBRANCH  29  32
ENDBRANCH  25  28
ENDBRANCH  24  25
ENDBRANCH  23  24
ENDBRANCH   3  23
TORSDOF 12
ENDMDL
MODEL 5
REMARK VINA RESULT:      -7.4      1.246      1.388
REMARK  Name = 
REMARK  12 active torsions:
REMARK  status: ('A' for Active; 'I' for Inactive)
REMARK    1  A    between atoms: N_1  and  C_2
REMARK    2  A    between atoms: N_11  and  C_12
REMARK    3  A    between atoms: C_14  and  C_15
REMARK    4  A    between atoms: C_15  and  O_16
REMARK    5  A    between atoms: O_16  and  S_17
REMARK    6  A    between atoms: S_17  and  N_20
REMARK    7  A    between atoms: C_21  and  CA_23
REMARK    8  A    between atoms: CA_23  and  N_24
REMARK    9  A    between atoms: CA_23  and  C_25
REMARK   10  A    between atoms: C_25  and  O_26
REMARK   11  A    between atoms: C_27  and  O_28
REMARK   12  A    between atoms: C_29  and  O_30
REMARK                            x       y       z     vdW  Elec       q    Type
REMARK                         _______ _______ _______ _____ _____    ______ ____
ROOT
ATOM      1  C   UNL     1       2.857   5.629  19.633  0.00  0.00    +0.000 C 
ATOM      2  O   UNL     1       3.989   5.103  18.898  0.00  0.00    +0.000 OA
ATOM      3  C   UNL     1       3.793   3.686  18.666  0.00  0.00    +0.000 C 
ATOM      4  C   UNL     1       2.577   3.285  19.501  0.00  0.00    +0.000 C 
ATOM      5  C   UNL     1       1.760   4.567  19.574  0.00  0.00    +0.000 C 
ENDROOT
BRANCH   1  15
ATOM      6  C   UNL     1       1.078  10.114  19.244  0.00  0.00    +0.000 A 
ATOM      7  N   UNL     1       0.511  10.127  20.469  0.00  0.00    +0.000 NA
ATOM      8  C   UNL     1       0.627   9.017  21.225  0.00  0.00    +0.000 A 
ATOM      9 CL   UNL     1      -0.093   9.106  22.775  0.00  0.00    +0.000 Cl
ATOM     10  N   UNL     1       1.246   7.851  20.944  0.00  0.00    +0.000 NA
ATOM     11  C   UNL     1       1.764   7.883  19.706  0.00  0.00    +0.000 A 
ATOM     12  C   UNL     1       1.717   8.939  18.808  0.00  0.00    +0.000 A 
ATOM     13  N   UNL     1       2.347   8.605  17.629  0.00  0.00    +0.000 NA
ATOM     14  C   UNL     1       2.797   7.383  17.820  0.00  0.00    +0.000 A 
ATOM     15  N   UNL     1       2.475   6.905  19.064  0.00  0.00    +0.000 N 
BRANCH   6  16
ATOM     16  N   UNL     1       1.020  11.270  18.479  0.00  0.00    +0.000 N 
ATOM     17  H   UNL     1       0.813  11.106  17.503  0.00  0.00    +0.000 HD
ATOM     18  H   UNL     1       1.702  11.978  18.721  0.00  0.00    +0.000 HD
ENDBRANCH   6  16
ENDBRANCH   1  15
BRANCH   4  19
ATOM     19  O   UNL     1       2.948   2.912  20.840  0.00  0.00    +0.000 OA
ATOM     20  H   UNL     1       3.104   1.950  20.882  0.00  0.00    +0.000 HD
ENDBRANCH   4  19
BRANCH   5  21
ATOM     21  O   UNL     1       0.900   4.567  20.709  0.00  0.00    +0.000 OA
ATOM     22  H   UNL     1       0.168   3.945  20.510  0.00  0.00    +0.000 HD
ENDBRANCH   5  21
BRANCH   3  23
ATOM     23  C   UNL     1       3.582   3.426  17.169  0.00  0.00    +0.000 C 
BRANCH  23  24
ATOM     24  O   UNL     1       4.820   3.076  16.555  0.00  0.00    +0.000 OA
BRANCH  24  25
ATOM     25  S   UNL     1       5.745   4.298  16.020  0.00  0.00    +0.000 S 
ATOM     26  O   UNL     1       6.799   3.763  15.194  0.00  0.00    +0.000 OA
ATOM     27  O   UNL     1       4.858   5.320  15.505  0.00  0.00    +0.000 OA
BRANCH  25  28
ATOM     28  N   UNL     1       6.431   4.954  17.377  0.00  0.00    +0.000 N 
ATOM     29  C   UNL     1       7.253   6.089  17.339  0.00  0.00    +0.000 C 
ATOM     30  O   UNL     1       7.637   6.572  16.281  0.00  0.00    +0.000 OA
ATOM     31  H   UNL     1       6.051   4.592  18.246  0.00  0.00    +0.000 HD
BRANCH  29  32
ATOM     32  CA  UNL     1       7.633   6.670  18.711  0.00  0.00    +0.000 C 
BRANCH  32  33
ATOM     33  N   UNL     1       8.334   5.662  19.541  0.00  0.00    +0.000 NA
ATOM     34  H1  UNL     1       7.650   5.016  19.942  0.00  0.00    +0.000 HD
ATOM     35  H2  UNL     1       8.832   6.087  20.320  0.00  0.00    +0.000 HD
ENDBRANCH  32  33
BRANCH  32  36
ATOM     36  C   UNL     1       8.496   7.933  18.492  0.00  0.00    +0.000 C 
BRANCH  36  37
ATOM     37  O   UNL     1       7.811   8.964  17.784  0.00  0.00    +0.000 OA
ATOM     38  H   UNL     1       6.987   8.593  17.428  0.00  0.00    +0.000 HD
ENDBRANCH  36  37
ENDBRANCH  32  36
ENDBRANCH  29  32
ENDBRANCH  25  28
ENDBRANCH  24  25
ENDBRANCH  23  24
ENDBRANCH   3  23
TORSDOF 12
ENDMDL
MODEL 6
REMARK VINA RESULT:      -7.2      1.952      3.113
REMARK  Name = 
REMARK  12 active torsions:
REMARK  status: ('A' for Active; 'I' for Inactive)
REMARK    1  A    between atoms: N_1  and  C_2
REMARK    2  A    between atoms: N_11  and  C_12
REMARK    3  A    between atoms: C_14  and  C_15
REMARK    4  A    between atoms: C_15  and  O_16
REMARK    5  A    between atoms: O_16  and  S_17
REMARK    6  A    between atoms: S_17  and  N_20
REMARK    7  A    between atoms: C_21  and  CA_23
REMARK    8  A    between atoms: CA_23  and  N_24
REMARK    9  A    between atoms: CA_23  and  C_25
REMARK   10  A    between atoms: C_25  and  O_26
REMARK   11  A    between atoms: C_27  and  O_28
REMARK   12  A    between atoms: C_29  and  O_30
REMARK                            x       y       z     vdW  Elec       q    Type
REMARK                         _______ _______ _______ _____ _____    ______ ____
ROOT
ATOM      1  C   UNL     1       2.575   5.943  20.057  0.00  0.00    +0.000 C 
ATOM      2  O   UNL     1       3.990   5.811  19.773  0.00  0.00    +0.000 OA
ATOM      3  C   UNL     1       4.266   4.459  19.332  0.00  0.00    +0.000 C 
ATOM      4  C   UNL     1       2.983   3.664  19.574  0.00  0.00    +0.000 C 
ATOM      5  C   UNL     1       1.889   4.716  19.457  0.00  0.00    +0.000 C 
ENDROOT
BRANCH   1  15
ATOM      6  C   UNL     1       0.724  10.410  19.844  0.00  0.00    +0.000 A 
ATOM      7  N   UNL     1       0.349  10.449  21.141  0.00  0.00    +0.000 NA
ATOM      8  C   UNL     1       0.587   9.356  21.894  0.00  0.00    +0.000 A 
ATOM      9 CL   UNL     1       0.109   9.478  23.534  0.00  0.00    +0.000 Cl
ATOM     10  N   UNL     1       1.164   8.187  21.548  0.00  0.00    +0.000 NA
ATOM     11  C   UNL     1       1.489   8.193  20.245  0.00  0.00    +0.000 A 
ATOM     12  C   UNL     1       1.298   9.229  19.342  0.00  0.00    +0.000 A 
ATOM     13  N   UNL     1       1.745   8.870  18.088  0.00  0.00    +0.000 NA
ATOM     14  C   UNL     1       2.227   7.655  18.236  0.00  0.00    +0.000 A 
ATOM     15  N   UNL     1       2.102   7.204  19.524  0.00  0.00    +0.000 N 
BRANCH   6  16
ATOM     16  N   UNL     1       0.541  11.548  19.072  0.00  0.00    +0.000 N 
ATOM     17  H   UNL     1       0.556  12.410  19.601  0.00  0.00    +0.000 HD
ATOM     18  H   UNL     1      -0.127  11.450  18.318  0.00  0.00    +0.000 HD
ENDBRANCH   6  16
ENDBRANCH   1  15
BRANCH   4  19
ATOM     19  O   UNL     1       2.937   3.114  20.902  0.00  0.00    +0.000 OA
ATOM     20  H   UNL     1       2.513   2.236  20.880  0.00  0.00    +0.000 HD
ENDBRANCH   4  19
BRANCH   5  21
ATOM     21  O   UNL     1       0.714   4.319  20.156  0.00  0.00    +0.000 OA
ATOM     22  H   UNL     1       0.562   4.988  20.858  0.00  0.00    +0.000 HD
ENDBRANCH   5  21
BRANCH   3  23
ATOM     23  C   UNL     1       4.677   4.465  17.854  0.00  0.00    +0.000 C 
BRANCH  23  24
ATOM     24  O   UNL     1       5.861   5.238  17.679  0.00  0.00    +0.000 OA
BRANCH  24  25
ATOM     25  S   UNL     1       5.809   6.420  16.567  0.00  0.00    +0.000 S 
ATOM     26  O   UNL     1       4.541   7.102  16.664  0.00  0.00    +0.000 OA
ATOM     27  O   UNL     1       7.048   7.162  16.664  0.00  0.00    +0.000 OA
BRANCH  25  28
ATOM     28  N   UNL     1       5.872   5.647  15.104  0.00  0.00    +0.000 N 
ATOM     29  C   UNL     1       6.877   4.728  14.773  0.00  0.00    +0.000 C 
ATOM     30  O   UNL     1       7.855   4.557  15.491  0.00  0.00    +0.000 OA
ATOM     31  H   UNL     1       5.024   5.742  14.553  0.00  0.00    +0.000 HD
BRANCH  29  32
ATOM     32  CA  UNL     1       6.661   3.964  13.457  0.00  0.00    +0.000 C 
BRANCH  32  33
ATOM     33  N   UNL     1       5.225   3.931  13.089  0.00  0.00    +0.000 NA
ATOM     34  H1  UNL     1       4.793   3.093  13.483  0.00  0.00    +0.000 HD
ATOM     35  H2  UNL     1       5.089   3.890  12.082  0.00  0.00    +0.000 HD
ENDBRANCH  32  33
BRANCH  32  36
ATOM     36  C   UNL     1       7.520   4.624  12.355  0.00  0.00    +0.000 C 
BRANCH  36  37
ATOM     37  O   UNL     1       8.098   5.863  12.762  0.00  0.00    +0.000 OA
ATOM     38  H   UNL     1       7.387   6.519  12.840  0.00  0.00    +0.000 HD
ENDBRANCH  36  37
ENDBRANCH  32  36
ENDBRANCH  29  32
ENDBRANCH  25  28
ENDBRANCH  24  25
ENDBRANCH  23  24
ENDBRANCH   3  23
TORSDOF 12
ENDMDL
MODEL 7
REMARK VINA RESULT:      -7.1      2.289      3.742
REMARK  Name = 
REMARK  12 active torsions:
REMARK  status: ('A' for Active; 'I' for Inactive)
REMARK    1  A    between atoms: N_1  and  C_2
REMARK    2  A    between atoms: N_11  and  C_12
REMARK    3  A    between atoms: C_14  and  C_15
REMARK    4  A    between atoms: C_15  and  O_16
REMARK    5  A    between atoms: O_16  and  S_17
REMARK    6  A    between atoms: S_17  and  N_20
REMARK    7  A    between atoms: C_21  and  CA_23
REMARK    8  A    between atoms: CA_23  and  N_24
REMARK    9  A    between atoms: CA_23  and  C_25
REMARK   10  A    between atoms: C_25  and  O_26
REMARK   11  A    between atoms: C_27  and  O_28
REMARK   12  A    between atoms: C_29  and  O_30
REMARK                            x       y       z     vdW  Elec       q    Type
REMARK                         _______ _______ _______ _____ _____    ______ ____
ROOT
ATOM      1  C   UNL     1       3.067   6.127  19.419  0.00  0.00    +0.000 C 
ATOM      2  O   UNL     1       4.315   5.838  18.742  0.00  0.00    +0.000 OA
ATOM      3  C   UNL     1       4.362   4.429  18.405  0.00  0.00    +0.000 C 
ATOM      4  C   UNL     1       3.173   3.784  19.116  0.00  0.00    +0.000 C 
ATOM      5  C   UNL     1       2.159   4.916  19.207  0.00  0.00    +0.000 C 
ENDROOT
BRANCH   1  15
ATOM      6  C   UNL     1       0.722  10.357  19.216  0.00  0.00    +0.000 A 
ATOM      7  N   UNL     1       0.149  10.237  20.432  0.00  0.00    +0.000 NA
ATOM      8  C   UNL     1       0.403   9.116  21.136  0.00  0.00    +0.000 A 
ATOM      9 CL   UNL     1      -0.335   9.036  22.680  0.00  0.00    +0.000 Cl
ATOM     10  N   UNL     1       1.170   8.055  20.810  0.00  0.00    +0.000 NA
ATOM     11  C   UNL     1       1.689   8.214  19.582  0.00  0.00    +0.000 A 
ATOM     12  C   UNL     1       1.512   9.297  18.734  0.00  0.00    +0.000 A 
ATOM     13  N   UNL     1       2.189   9.105  17.549  0.00  0.00    +0.000 NA
ATOM     14  C   UNL     1       2.792   7.943  17.689  0.00  0.00    +0.000 A 
ATOM     15  N   UNL     1       2.526   7.369  18.905  0.00  0.00    +0.000 N 
BRANCH   6  16
ATOM     16  N   UNL     1       0.519  11.530  18.505  0.00  0.00    +0.000 N 
ATOM     17  H   UNL     1       0.660  11.436  17.507  0.00  0.00    +0.000 HD
ATOM     18  H   UNL     1       0.844  12.371  18.966  0.00  0.00    +0.000 HD
ENDBRANCH   6  16
ENDBRANCH   1  15
BRANCH   4  19
ATOM     19  O   UNL     1       3.508   3.373  20.453  0.00  0.00    +0.000 OA
ATOM     20  H   UNL     1       4.237   3.924  20.793  0.00  0.00    +0.000 HD
ENDBRANCH   4  19
BRANCH   5  21
ATOM     21  O   UNL     1       1.237   4.699  20.269  0.00  0.00    +0.000 OA
ATOM     22  H   UNL     1       1.323   5.463  20.880  0.00  0.00    +0.000 HD
ENDBRANCH   5  21
BRANCH   3  23
ATOM     23  C   UNL     1       4.296   4.254  16.883  0.00  0.00    +0.000 C 
BRANCH  23  24
ATOM     24  O   UNL     1       5.483   3.623  16.411  0.00  0.00    +0.000 OA
BRANCH  24  25
ATOM     25  S   UNL     1       6.553   4.564  15.630  0.00  0.00    +0.000 S 
ATOM     26  O   UNL     1       5.954   5.853  15.383  0.00  0.00    +0.000 OA
ATOM     27  O   UNL     1       7.813   4.466  16.337  0.00  0.00    +0.000 OA
BRANCH  25  28
ATOM     28  N   UNL     1       6.807   3.821  14.173  0.00  0.00    +0.000 N 
ATOM     29  C   UNL     1       5.813   3.719  13.190  0.00  0.00    +0.000 C 
ATOM     30  O   UNL     1       4.651   4.037  13.412  0.00  0.00    +0.000 OA
ATOM     31  H   UNL     1       7.784   3.628  13.975  0.00  0.00    +0.000 HD
BRANCH  29  32
ATOM     32  CA  UNL     1       6.287   3.179  11.831  0.00  0.00    +0.000 C 
BRANCH  32  33
ATOM     33  N   UNL     1       7.711   2.771  11.887  0.00  0.00    +0.000 NA
ATOM     34  H1  UNL     1       8.294   3.594  12.052  0.00  0.00    +0.000 HD
ATOM     35  H2  UNL     1       8.025   2.357  11.013  0.00  0.00    +0.000 HD
ENDBRANCH  32  33
BRANCH  32  36
ATOM     36  C   UNL     1       5.371   2.005  11.417  0.00  0.00    +0.000 C 
BRANCH  36  37
ATOM     37  O   UNL     1       6.036   0.744  11.429  0.00  0.00    +0.000 OA
ATOM     38  H   UNL     1       5.988   0.382  12.329  0.00  0.00    +0.000 HD
ENDBRANCH  36  37
ENDBRANCH  32  36
ENDBRANCH  29  32
ENDBRANCH  25  28
ENDBRANCH  24  25
ENDBRANCH  23  24
ENDBRANCH   3  23
TORSDOF 12
ENDMDL
MODEL 8
REMARK VINA RESULT:      -7.0      2.463      3.877
REMARK  Name = 
REMARK  12 active torsions:
REMARK  status: ('A' for Active; 'I' for Inactive)
REMARK    1  A    between atoms: N_1  and  C_2
REMARK    2  A    between atoms: N_11  and  C_12
REMARK    3  A    between atoms: C_14  and  C_15
REMARK    4  A    between atoms: C_15  and  O_16
REMARK    5  A    between atoms: O_16  and  S_17
REMARK    6  A    between atoms: S_17  and  N_20
REMARK    7  A    between atoms: C_21  and  CA_23
REMARK    8  A    between atoms: CA_23  and  N_24
REMARK    9  A    between atoms: CA_23  and  C_25
REMARK   10  A    between atoms: C_25  and  O_26
REMARK   11  A    between atoms: C_27  and  O_28
REMARK   12  A    between atoms: C_29  and  O_30
REMARK                            x       y       z     vdW  Elec       q    Type
REMARK                         _______ _______ _______ _____ _____    ______ ____
ROOT
ATOM      1  C   UNL     1       2.900   5.486  18.990  0.00  0.00    +0.000 C 
ATOM      2  O   UNL     1       4.247   5.414  19.519  0.00  0.00    +0.000 OA
ATOM      3  C   UNL     1       4.882   4.198  19.051  0.00  0.00    +0.000 C 
ATOM      4  C   UNL     1       3.780   3.377  18.382  0.00  0.00    +0.000 C 
ATOM      5  C   UNL     1       2.803   4.434  17.886  0.00  0.00    +0.000 C 
ENDROOT
BRANCH   1  15
ATOM      6  C   UNL     1       1.433  10.099  18.989  0.00  0.00    +0.000 A 
ATOM      7  N   UNL     1       0.783  10.021  20.170  0.00  0.00    +0.000 NA
ATOM      8  C   UNL     1       0.777   8.831  20.803  0.00  0.00    +0.000 A 
ATOM      9 CL   UNL     1      -0.044   8.804  22.305  0.00  0.00    +0.000 Cl
ATOM     10  N   UNL     1       1.341   7.661  20.434  0.00  0.00    +0.000 NA
ATOM     11  C   UNL     1       1.946   7.789  19.243  0.00  0.00    +0.000 A 
ATOM     12  C   UNL     1       2.027   8.936  18.467  0.00  0.00    +0.000 A 
ATOM     13  N   UNL     1       2.717   8.686  17.300  0.00  0.00    +0.000 NA
ATOM     14  C   UNL     1       3.076   7.422  17.382  0.00  0.00    +0.000 A 
ATOM     15  N   UNL     1       2.638   6.839  18.543  0.00  0.00    +0.000 N 
BRANCH   6  16
ATOM     16  N   UNL     1       1.500  11.330  18.355  0.00  0.00    +0.000 N 
ATOM     17  H   UNL     1       2.436  11.604  18.085  0.00  0.00    +0.000 HD
ATOM     18  H   UNL     1       0.873  12.036  18.722  0.00  0.00    +0.000 HD
ENDBRANCH   6  16
ENDBRANCH   1  15
BRANCH   4  19
ATOM     19  O   UNL     1       3.092   2.536  19.325  0.00  0.00    +0.000 OA
ATOM     20  H   UNL     1       3.637   2.426  20.125  0.00  0.00    +0.000 HD
ENDBRANCH   4  19
BRANCH   5  21
ATOM     21  O   UNL     1       1.496   3.893  17.724  0.00  0.00    +0.000 OA
ATOM     22  H   UNL     1       1.608   2.946  17.492  0.00  0.00    +0.000 HD
ENDBRANCH   5  21
BRANCH   3  23
ATOM     23  C   UNL     1       6.021   4.542  18.084  0.00  0.00    +0.000 C 
BRANCH  23  24
ATOM     24  O   UNL     1       5.668   4.158  16.758  0.00  0.00    +0.000 OA
BRANCH  24  25
ATOM     25  S   UNL     1       6.417   4.936  15.544  0.00  0.00    +0.000 S 
ATOM     26  O   UNL     1       5.971   6.307  15.519  0.00  0.00    +0.000 OA
ATOM     27  O   UNL     1       7.828   4.627  15.637  0.00  0.00    +0.000 OA
BRANCH  25  28
ATOM     28  N   UNL     1       5.894   4.194  14.160  0.00  0.00    +0.000 N 
ATOM     29  C   UNL     1       6.599   4.260  12.950  0.00  0.00    +0.000 C 
ATOM     30  O   UNL     1       7.566   4.998  12.807  0.00  0.00    +0.000 OA
ATOM     31  H   UNL     1       5.138   3.533  14.309  0.00  0.00    +0.000 HD
BRANCH  29  32
ATOM     32  CA  UNL     1       6.069   3.348  11.831  0.00  0.00    +0.000 C 
BRANCH  32  33
ATOM     33  N   UNL     1       6.712   2.014  11.881  0.00  0.00    +0.000 NA
ATOM     34  H1  UNL     1       7.285   1.881  11.045  0.00  0.00    +0.000 HD
ATOM     35  H2  UNL     1       6.030   1.260  11.895  0.00  0.00    +0.000 HD
ENDBRANCH  32  33
BRANCH  32  36
ATOM     36  C   UNL     1       4.532   3.249  11.960  0.00  0.00    +0.000 C 
BRANCH  36  37
ATOM     37  O   UNL     1       3.846   3.611  10.764  0.00  0.00    +0.000 OA
ATOM     38  H   UNL     1       3.631   2.797  10.278  0.00  0.00    +0.000 HD
ENDBRANCH  36  37
ENDBRANCH  32  36
ENDBRANCH  29  32
ENDBRANCH  25  28
ENDBRANCH  24  25
ENDBRANCH  23  24
ENDBRANCH   3  23
TORSDOF 12
ENDMDL
MODEL 9
REMARK VINA RESULT:      -7.0      4.069      7.673
REMARK  Name = 
REMARK  12 active torsions:
REMARK  status: ('A' for Active; 'I' for Inactive)
REMARK    1  A    between atoms: N_1  and  C_2
REMARK    2  A    between atoms: N_11  and  C_12
REMARK    3  A    between atoms: C_14  and  C_15
REMARK    4  A    between atoms: C_15  and  O_16
REMARK    5  A    between atoms: O_16  and  S_17
REMARK    6  A    between atoms: S_17  and  N_20
REMARK    7  A    between atoms: C_21  and  CA_23
REMARK    8  A    between atoms: CA_23  and  N_24
REMARK    9  A    between atoms: CA_23  and  C_25
REMARK   10  A    between atoms: C_25  and  O_26
REMARK   11  A    between atoms: C_27  and  O_28
REMARK   12  A    between atoms: C_29  and  O_30
REMARK                            x       y       z     vdW  Elec       q    Type
REMARK                         _______ _______ _______ _____ _____    ______ ____
ROOT
ATOM      1  C   UNL     1       4.633   4.190  17.230  0.00  0.00    +0.000 C 
ATOM      2  O   UNL     1       3.479   5.015  16.939  0.00  0.00    +0.000 OA
ATOM      3  C   UNL     1       2.752   5.273  18.167  0.00  0.00    +0.000 C 
ATOM      4  C   UNL     1       3.380   4.367  19.227  0.00  0.00    +0.000 C 
ATOM      5  C   UNL     1       4.815   4.203  18.747  0.00  0.00    +0.000 C 
ENDROOT
BRANCH   1  15
ATOM      6  C   UNL     1       7.644   5.168  13.567  0.00  0.00    +0.000 A 
ATOM      7  N   UNL     1       7.013   4.374  12.675  0.00  0.00    +0.000 NA
ATOM      8  C   UNL     1       5.935   3.686  13.103  0.00  0.00    +0.000 A 
ATOM      9 CL   UNL     1       5.167   2.717  11.918  0.00  0.00    +0.000 Cl
ATOM     10  N   UNL     1       5.362   3.665  14.324  0.00  0.00    +0.000 NA
ATOM     11  C   UNL     1       6.045   4.446  15.175  0.00  0.00    +0.000 A 
ATOM     12  C   UNL     1       7.173   5.201  14.892  0.00  0.00    +0.000 A 
ATOM     13  N   UNL     1       7.608   5.868  16.018  0.00  0.00    +0.000 NA
ATOM     14  C   UNL     1       6.742   5.549  16.956  0.00  0.00    +0.000 A 
ATOM     15  N   UNL     1       5.774   4.697  16.493  0.00  0.00    +0.000 N 
BRANCH   6  16
ATOM     16  N   UNL     1       8.717   5.928  13.128  0.00  0.00    +0.000 N 
ATOM     17  H   UNL     1       9.608   5.454  13.187  0.00  0.00    +0.000 HD
ATOM     18  H   UNL     1       8.671   6.912  13.366  0.00  0.00    +0.000 HD
ENDBRANCH   6  16
ENDBRANCH   1  15
BRANCH   4  19
ATOM     19  O   UNL     1       2.764   3.068  19.253  0.00  0.00    +0.000 OA
ATOM     20  H   UNL     1       1.871   3.120  18.864  0.00  0.00    +0.000 HD
ENDBRANCH   4  19
BRANCH   5  21
ATOM     21  O   UNL     1       5.399   3.013  19.264  0.00  0.00    +0.000 OA
ATOM     22  H   UNL     1       5.585   3.177  20.213  0.00  0.00    +0.000 HD
ENDBRANCH   5  21
BRANCH   3  23
ATOM     23  C   UNL     1       2.857   6.758  18.534  0.00  0.00    +0.000 C 
BRANCH  23  24
ATOM     24  O   UNL     1       2.213   7.553  17.543  0.00  0.00    +0.000 OA
BRANCH  24  25
ATOM     25  S   UNL     1       1.666   9.009  18.011  0.00  0.00    +0.000 S 
ATOM     26  O   UNL     1       2.690   9.996  17.769  0.00  0.00    +0.000 OA
ATOM     27  O   UNL     1       0.342   9.175  17.449  0.00  0.00    +0.000 OA
BRANCH  25  28
ATOM     28  N   UNL     1       1.439   8.886  19.646  0.00  0.00    +0.000 N 
ATOM     29  C   UNL     1       0.836   9.898  20.406  0.00  0.00    +0.000 C 
ATOM     30  O   UNL     1       0.580  10.997  19.930  0.00  0.00    +0.000 OA
ATOM     31  H   UNL     1       1.588   7.951  20.012  0.00  0.00    +0.000 HD
BRANCH  29  32
ATOM     32  CA  UNL     1       0.528   9.526  21.866  0.00  0.00    +0.000 C 
BRANCH  32  33
ATOM     33  N   UNL     1       1.774   9.409  22.661  0.00  0.00    +0.000 NA
ATOM     34  H1  UNL     1       1.648   9.876  23.561  0.00  0.00    +0.000 HD
ATOM     35  H2  UNL     1       2.563   9.858  22.203  0.00  0.00    +0.000 HD
ENDBRANCH  32  33
BRANCH  32  36
ATOM     36  C   UNL     1      -0.431  10.585  22.455  0.00  0.00    +0.000 C 
BRANCH  36  37
ATOM     37  O   UNL     1      -0.926  10.237  23.746  0.00  0.00    +0.000 OA
ATOM     38  H   UNL     1      -0.795  10.996  24.338  0.00  0.00    +0.000 HD
ENDBRANCH  36  37
ENDBRANCH  32  36
ENDBRANCH  29  32
ENDBRANCH  25  28
ENDBRANCH  24  25
ENDBRANCH  23  24
ENDBRANCH   3  23
TORSDOF 12
ENDMDL
