MODEL 1
REMARK VINA RESULT:      -7.5      0.000      0.000
REMARK  Name = 
REMARK  4 active torsions:
REMARK  status: ('A' for Active; 'I' for Inactive)
REMARK    1  A    between atoms: C_2  and  C_3
REMARK    2  A    between atoms: C_3  and  N_4
REMARK    3  A    between atoms: N_4  and  C_16
REMARK    4  A    between atoms: C_5  and  C_7
REMARK                            x       y       z     vdW  Elec       q    Type
REMARK                         _______ _______ _______ _____ _____    ______ ____
ROOT
ATOM      1  N   UNL     1       4.942   4.969  17.049  0.00  0.00    +0.000 N 
ATOM      2  C   UNL     1       3.593   4.992  17.458  0.00  0.00    +0.000 C 
ATOM      3  O   UNL     1       2.787   4.120  17.130  0.00  0.00    +0.000 OA
ENDROOT
BRANCH   2   4
ATOM      4  C   UNL     1       3.072   6.093  18.342  0.00  0.00    +0.000 A 
ATOM      5  C   UNL     1       2.770   5.915  19.697  0.00  0.00    +0.000 A 
ATOM      6  C   UNL     1       2.049   6.872  20.419  0.00  0.00    +0.000 A 
ATOM      7  C   UNL     1       1.742   8.074  19.774  0.00  0.00    +0.000 A 
ATOM      8  S   UNL     1       0.863   9.452  20.314  0.00  0.00    +0.000 S 
ATOM      9  N   UNL     1       1.109  10.296  18.895  0.00  0.00    +0.000 NA
ATOM     10  N   UNL     1       1.802   9.611  18.000  0.00  0.00    +0.000 NA
ATOM     11  C   UNL     1       2.149   8.347  18.465  0.00  0.00    +0.000 A 
ATOM     12  C   UNL     1       2.828   7.342  17.744  0.00  0.00    +0.000 A 
ENDBRANCH   2   4
BRANCH   1  13
ATOM     13  C   UNL     1       5.960   5.770  17.631  0.00  0.00    +0.000 A 
ATOM     14  C   UNL     1       6.354   6.976  17.040  0.00  0.00    +0.000 A 
ATOM     15  C   UNL     1       7.478   7.650  17.520  0.00  0.00    +0.000 A 
ATOM     16  C   UNL     1       8.201   7.127  18.592  0.00  0.00    +0.000 A 
ATOM     17  C   UNL     1       7.781   5.949  19.212  0.00  0.00    +0.000 A 
ATOM     18  C   UNL     1       6.650   5.280  18.746  0.00  0.00    +0.000 A 
ENDBRANCH   1  13
BRANCH   1  19
ATOM     19  C   UNL     1       5.424   3.803  16.295  0.00  0.00    +0.000 C 
BRANCH  19  21
ATOM     20  C   UNL     1       6.767   4.578  14.271  0.00  0.00    +0.000 C 
ATOM     21  C   UNL     1       5.652   4.084  14.837  0.00  0.00    +0.000 C 
ENDBRANCH  19  21
ENDBRANCH   1  19
TORSDOF 4
ENDMDL
MODEL 2
REMARK VINA RESULT:      -7.3      0.859      1.405
REMARK  Name = 
REMARK  4 active torsions:
REMARK  status: ('A' for Active; 'I' for Inactive)
REMARK    1  A    between atoms: C_2  and  C_3
REMARK    2  A    between atoms: C_3  and  N_4
REMARK    3  A    between atoms: N_4  and  C_16
REMARK    4  A    between atoms: C_5  and  C_7
REMARK                            x       y       z     vdW  Elec       q    Type
REMARK                         _______ _______ _______ _____ _____    ______ ____
ROOT
ATOM      1  N   UNL     1       5.320   4.626  16.586  0.00  0.00    +0.000 N 
ATOM      2  C   UNL     1       4.014   4.474  17.096  0.00  0.00    +0.000 C 
ATOM      3  O   UNL     1       3.238   3.612  16.681  0.00  0.00    +0.000 OA
ENDROOT
BRANCH   2   4
ATOM      4  C   UNL     1       3.508   5.361  18.201  0.00  0.00    +0.000 A 
ATOM      5  C   UNL     1       3.383   4.941  19.531  0.00  0.00    +0.000 A 
ATOM      6  C   UNL     1       2.672   5.691  20.473  0.00  0.00    +0.000 A 
ATOM      7  C   UNL     1       2.190   6.942  20.074  0.00  0.00    +0.000 A 
ATOM      8  S   UNL     1       1.267   8.119  20.926  0.00  0.00    +0.000 S 
ATOM      9  N   UNL     1       1.274   9.198  19.652  0.00  0.00    +0.000 NA
ATOM     10  N   UNL     1       1.913   8.739  18.589  0.00  0.00    +0.000 NA
ATOM     11  C   UNL     1       2.418   7.459  18.796  0.00  0.00    +0.000 A 
ATOM     12  C   UNL     1       3.091   6.657  17.851  0.00  0.00    +0.000 A 
ENDBRANCH   2   4
BRANCH   1  13
ATOM     13  C   UNL     1       6.335   5.390  17.221  0.00  0.00    +0.000 A 
ATOM     14  C   UNL     1       6.991   4.912  18.360  0.00  0.00    +0.000 A 
ATOM     15  C   UNL     1       7.845   5.752  19.075  0.00  0.00    +0.000 A 
ATOM     16  C   UNL     1       8.051   7.064  18.649  0.00  0.00    +0.000 A 
ATOM     17  C   UNL     1       7.434   7.528  17.486  0.00  0.00    +0.000 A 
ATOM     18  C   UNL     1       6.591   6.686  16.760  0.00  0.00    +0.000 A 
ENDBRANCH   1  13
BRANCH   1  19
ATOM     19  C   UNL     1       5.803   3.649  15.600  0.00  0.00    +0.000 C 
BRANCH  19  21
ATOM     20  C   UNL     1       6.466   3.852  13.146  0.00  0.00    +0.000 C 
ATOM     21  C   UNL     1       5.641   4.104  14.177  0.00  0.00    +0.000 C 
ENDBRANCH  19  21
ENDBRANCH   1  19
TORSDOF 4
ENDMDL
MODEL 3
REMARK VINA RESULT:      -6.8      2.218      4.220
REMARK  Name = 
REMARK  4 active torsions:
REMARK  status: ('A' for Active; 'I' for Inactive)
REMARK    1  A    between atoms: C_2  and  C_3
REMARK    2  A    between atoms: C_3  and  N_4
REMARK    3  A    between atoms: N_4  and  C_16
REMARK    4  A    between atoms: C_5  and  C_7
REMARK                            x       y       z     vdW  Elec       q    Type
REMARK                         _______ _______ _______ _____ _____    ______ ____
ROOT
ATOM      1  N   UNL     1       3.751   5.280  18.223  0.00  0.00    +0.000 N 
ATOM      2  C   UNL     1       3.685   6.641  17.860  0.00  0.00    +0.000 C 
ATOM      3  O   UNL     1       4.491   7.158  17.084  0.00  0.00    +0.000 OA
ENDROOT
BRANCH   2   4
ATOM      4  C   UNL     1       2.600   7.534  18.398  0.00  0.00    +0.000 A 
ATOM      5  C   UNL     1       1.906   8.462  17.614  0.00  0.00    +0.000 A 
ATOM      6  C   UNL     1       1.098   9.449  18.189  0.00  0.00    +0.000 A 
ATOM      7  C   UNL     1       0.906   9.403  19.573  0.00  0.00    +0.000 A 
ATOM      8  S   UNL     1       0.020  10.439  20.624  0.00  0.00    +0.000 S 
ATOM      9  N   UNL     1       0.364   9.529  21.981  0.00  0.00    +0.000 NA
ATOM     10  N   UNL     1       1.131   8.483  21.722  0.00  0.00    +0.000 NA
ATOM     11  C   UNL     1       1.468   8.405  20.374  0.00  0.00    +0.000 A 
ATOM     12  C   UNL     1       2.321   7.456  19.774  0.00  0.00    +0.000 A 
ENDBRANCH   2   4
BRANCH   1  13
ATOM     13  C   UNL     1       2.695   4.579  18.865  0.00  0.00    +0.000 A 
ATOM     14  C   UNL     1       2.727   4.329  20.240  0.00  0.00    +0.000 A 
ATOM     15  C   UNL     1       1.779   3.481  20.815  0.00  0.00    +0.000 A 
ATOM     16  C   UNL     1       0.796   2.892  20.020  0.00  0.00    +0.000 A 
ATOM     17  C   UNL     1       0.734   3.179  18.655  0.00  0.00    +0.000 A 
ATOM     18  C   UNL     1       1.670   4.038  18.079  0.00  0.00    +0.000 A 
ENDBRANCH   1  13
BRANCH   1  19
ATOM     19  C   UNL     1       4.752   4.429  17.566  0.00  0.00    +0.000 C 
BRANCH  19  21
ATOM     20  C   UNL     1       7.276   4.752  17.731  0.00  0.00    +0.000 C 
ATOM     21  C   UNL     1       6.085   4.426  18.260  0.00  0.00    +0.000 C 
ENDBRANCH  19  21
ENDBRANCH   1  19
TORSDOF 4
ENDMDL
MODEL 4
REMARK VINA RESULT:      -6.7      1.301      1.860
REMARK  Name = 
REMARK  4 active torsions:
REMARK  status: ('A' for Active; 'I' for Inactive)
REMARK    1  A    between atoms: C_2  and  C_3
REMARK    2  A    between atoms: C_3  and  N_4
REMARK    3  A    between atoms: N_4  and  C_16
REMARK    4  A    between atoms: C_5  and  C_7
REMARK                            x       y       z     vdW  Elec       q    Type
REMARK                         _______ _______ _______ _____ _____    ______ ____
ROOT
ATOM      1  N   UNL     1       3.919   4.744  17.516  0.00  0.00    +0.000 N 
ATOM      2  C   UNL     1       2.631   5.113  17.958  0.00  0.00    +0.000 C 
ATOM      3  O   UNL     1       1.651   4.377  17.827  0.00  0.00    +0.000 OA
ENDROOT
BRANCH   2   4
ATOM      4  C   UNL     1       2.396   6.435  18.636  0.00  0.00    +0.000 A 
ATOM      5  C   UNL     1       2.152   6.565  20.008  0.00  0.00    +0.000 A 
ATOM      6  C   UNL     1       1.682   7.762  20.559  0.00  0.00    +0.000 A 
ATOM      7  C   UNL     1       1.579   8.869  19.711  0.00  0.00    +0.000 A 
ATOM      8  S   UNL     1       1.028  10.471  20.009  0.00  0.00    +0.000 S 
ATOM      9  N   UNL     1       1.346  10.983  18.452  0.00  0.00    +0.000 NA
ATOM     10  N   UNL     1       1.831  10.023  17.682  0.00  0.00    +0.000 NA
ATOM     11  C   UNL     1       1.949   8.817  18.364  0.00  0.00    +0.000 A 
ATOM     12  C   UNL     1       2.368   7.583  17.824  0.00  0.00    +0.000 A 
ENDBRANCH   2   4
BRANCH   1  13
ATOM     13  C   UNL     1       5.111   5.413  17.902  0.00  0.00    +0.000 A 
ATOM     14  C   UNL     1       5.753   6.301  17.033  0.00  0.00    +0.000 A 
ATOM     15  C   UNL     1       7.015   6.800  17.356  0.00  0.00    +0.000 A 
ATOM     16  C   UNL     1       7.631   6.420  18.548  0.00  0.00    +0.000 A 
ATOM     17  C   UNL     1       6.972   5.571  19.438  0.00  0.00    +0.000 A 
ATOM     18  C   UNL     1       5.703   5.082  19.126  0.00  0.00    +0.000 A 
ENDBRANCH   1  13
BRANCH   1  19
ATOM     19  C   UNL     1       4.112   3.390  16.979  0.00  0.00    +0.000 C 
BRANCH  19  21
ATOM     20  C   UNL     1       3.969   1.995  19.109  0.00  0.00    +0.000 C 
ATOM     21  C   UNL     1       3.563   2.309  17.866  0.00  0.00    +0.000 C 
ENDBRANCH  19  21
ENDBRANCH   1  19
TORSDOF 4
ENDMDL
MODEL 5
REMARK VINA RESULT:      -6.7      2.235      3.862
REMARK  Name = 
REMARK  4 active torsions:
REMARK  status: ('A' for Active; 'I' for Inactive)
REMARK    1  A    between atoms: C_2  and  C_3
REMARK    2  A    between atoms: C_3  and  N_4
REMARK    3  A    between atoms: N_4  and  C_16
REMARK    4  A    between atoms: C_5  and  C_7
REMARK                            x       y       z     vdW  Elec       q    Type
REMARK                         _______ _______ _______ _____ _____    ______ ____
ROOT
ATOM      1  N   UNL     1       4.205   5.098  18.205  0.00  0.00    +0.000 N 
ATOM      2  C   UNL     1       4.137   6.470  17.885  0.00  0.00    +0.000 C 
ATOM      3  O   UNL     1       5.005   7.039  17.220  0.00  0.00    +0.000 OA
ENDROOT
BRANCH   2   4
ATOM      4  C   UNL     1       2.972   7.311  18.332  0.00  0.00    +0.000 A 
ATOM      5  C   UNL     1       2.317   8.225  17.499  0.00  0.00    +0.000 A 
ATOM      6  C   UNL     1       1.420   9.171  18.009  0.00  0.00    +0.000 A 
ATOM      7  C   UNL     1       1.104   9.094  19.370  0.00  0.00    +0.000 A 
ATOM      8  S   UNL     1       0.085  10.078  20.347  0.00  0.00    +0.000 S 
ATOM      9  N   UNL     1       0.338   9.159  21.718  0.00  0.00    +0.000 NA
ATOM     10  N   UNL     1       1.167   8.148  21.517  0.00  0.00    +0.000 NA
ATOM     11  C   UNL     1       1.629   8.106  20.206  0.00  0.00    +0.000 A 
ATOM     12  C   UNL     1       2.571   7.200  19.675  0.00  0.00    +0.000 A 
ENDBRANCH   2   4
BRANCH   1  13
ATOM     13  C   UNL     1       3.108   4.345  18.701  0.00  0.00    +0.000 A 
ATOM     14  C   UNL     1       2.007   4.054  17.888  0.00  0.00    +0.000 A 
ATOM     15  C   UNL     1       0.864   3.479  18.446  0.00  0.00    +0.000 A 
ATOM     16  C   UNL     1       0.823   3.189  19.809  0.00  0.00    +0.000 A 
ATOM     17  C   UNL     1       1.938   3.435  20.612  0.00  0.00    +0.000 A 
ATOM     18  C   UNL     1       3.088   3.995  20.056  0.00  0.00    +0.000 A 
ENDBRANCH   1  13
BRANCH   1  19
ATOM     19  C   UNL     1       5.298   4.301  17.632  0.00  0.00    +0.000 C 
BRANCH  19  21
ATOM     20  C   UNL     1       5.972   4.111  15.180  0.00  0.00    +0.000 C 
ATOM     21  C   UNL     1       5.093   3.954  16.185  0.00  0.00    +0.000 C 
ENDBRANCH  19  21
ENDBRANCH   1  19
TORSDOF 4
ENDMDL
MODEL 6
REMARK VINA RESULT:      -6.3      2.003      3.626
REMARK  Name = 
REMARK  4 active torsions:
REMARK  status: ('A' for Active; 'I' for Inactive)
REMARK    1  A    between atoms: C_2  and  C_3
REMARK    2  A    between atoms: C_3  and  N_4
REMARK    3  A    between atoms: N_4  and  C_16
REMARK    4  A    between atoms: C_5  and  C_7
REMARK                            x       y       z     vdW  Elec       q    Type
REMARK                         _______ _______ _______ _____ _____    ______ ____
ROOT
ATOM      1  N   UNL     1       3.891   4.992  17.563  0.00  0.00    +0.000 N 
ATOM      2  C   UNL     1       3.839   6.394  17.422  0.00  0.00    +0.000 C 
ATOM      3  O   UNL     1       4.432   6.991  16.522  0.00  0.00    +0.000 OA
ENDROOT
BRANCH   2   4
ATOM      4  C   UNL     1       3.028   7.237  18.368  0.00  0.00    +0.000 A 
ATOM      5  C   UNL     1       2.779   6.879  19.699  0.00  0.00    +0.000 A 
ATOM      6  C   UNL     1       1.816   7.542  20.468  0.00  0.00    +0.000 A 
ATOM      7  C   UNL     1       1.192   8.659  19.903  0.00  0.00    +0.000 A 
ATOM      8  S   UNL     1      -0.036   9.695  20.518  0.00  0.00    +0.000 S 
ATOM      9  N   UNL     1      -0.024  10.681  19.170  0.00  0.00    +0.000 NA
ATOM     10  N   UNL     1       0.836  10.285  18.248  0.00  0.00    +0.000 NA
ATOM     11  C   UNL     1       1.517   9.133  18.630  0.00  0.00    +0.000 A 
ATOM     12  C   UNL     1       2.452   8.413  17.857  0.00  0.00    +0.000 A 
ENDBRANCH   2   4
BRANCH   1  13
ATOM     13  C   UNL     1       3.005   4.244  18.384  0.00  0.00    +0.000 A 
ATOM     14  C   UNL     1       3.437   3.691  19.594  0.00  0.00    +0.000 A 
ATOM     15  C   UNL     1       2.609   2.808  20.289  0.00  0.00    +0.000 A 
ATOM     16  C   UNL     1       1.351   2.485  19.781  0.00  0.00    +0.000 A 
ATOM     17  C   UNL     1       0.901   3.072  18.598  0.00  0.00    +0.000 A 
ATOM     18  C   UNL     1       1.718   3.967  17.908  0.00  0.00    +0.000 A 
ENDBRANCH   1  13
BRANCH   1  19
ATOM     19  C   UNL     1       4.592   4.212  16.534  0.00  0.00    +0.000 C 
BRANCH  19  21
ATOM     20  C   UNL     1       6.992   4.586  15.756  0.00  0.00    +0.000 C 
ATOM     21  C   UNL     1       6.087   4.228  16.683  0.00  0.00    +0.000 C 
ENDBRANCH  19  21
ENDBRANCH   1  19
TORSDOF 4
ENDMDL
MODEL 7
REMARK VINA RESULT:      -6.3      2.010      3.494
REMARK  Name = 
REMARK  4 active torsions:
REMARK  status: ('A' for Active; 'I' for Inactive)
REMARK    1  A    between atoms: C_2  and  C_3
REMARK    2  A    between atoms: C_3  and  N_4
REMARK    3  A    between atoms: N_4  and  C_16
REMARK    4  A    between atoms: C_5  and  C_7
REMARK                            x       y       z     vdW  Elec       q    Type
REMARK                         _______ _______ _______ _____ _____    ______ ____
ROOT
ATOM      1  N   UNL     1       3.890   4.923  17.570  0.00  0.00    +0.000 N 
ATOM      2  C   UNL     1       3.839   6.326  17.436  0.00  0.00    +0.000 C 
ATOM      3  O   UNL     1       4.429   6.926  16.536  0.00  0.00    +0.000 OA
ENDROOT
BRANCH   2   4
ATOM      4  C   UNL     1       3.034   7.166  18.389  0.00  0.00    +0.000 A 
ATOM      5  C   UNL     1       2.794   6.806  19.721  0.00  0.00    +0.000 A 
ATOM      6  C   UNL     1       1.837   7.466  20.498  0.00  0.00    +0.000 A 
ATOM      7  C   UNL     1       1.208   8.583  19.940  0.00  0.00    +0.000 A 
ATOM      8  S   UNL     1      -0.018   9.617  20.565  0.00  0.00    +0.000 S 
ATOM      9  N   UNL     1      -0.016  10.606  19.219  0.00  0.00    +0.000 NA
ATOM     10  N   UNL     1       0.839  10.212  18.290  0.00  0.00    +0.000 NA
ATOM     11  C   UNL     1       1.523   9.061  18.665  0.00  0.00    +0.000 A 
ATOM     12  C   UNL     1       2.453   8.343  17.884  0.00  0.00    +0.000 A 
ENDBRANCH   2   4
BRANCH   1  13
ATOM     13  C   UNL     1       3.005   4.174  18.392  0.00  0.00    +0.000 A 
ATOM     14  C   UNL     1       1.669   3.984  18.026  0.00  0.00    +0.000 A 
ATOM     15  C   UNL     1       0.775   3.410  18.931  0.00  0.00    +0.000 A 
ATOM     16  C   UNL     1       1.216   3.019  20.195  0.00  0.00    +0.000 A 
ATOM     17  C   UNL     1       2.560   3.165  20.544  0.00  0.00    +0.000 A 
ATOM     18  C   UNL     1       3.460   3.724  19.637  0.00  0.00    +0.000 A 
ENDBRANCH   1  13
BRANCH   1  19
ATOM     19  C   UNL     1       4.584   4.146  16.535  0.00  0.00    +0.000 C 
BRANCH  19  21
ATOM     20  C   UNL     1       6.962   4.535  15.699  0.00  0.00    +0.000 C 
ATOM     21  C   UNL     1       6.081   4.191  16.654  0.00  0.00    +0.000 C 
ENDBRANCH  19  21
ENDBRANCH   1  19
TORSDOF 4
ENDMDL
MODEL 8
REMARK VINA RESULT:      -6.3      3.176      5.943
REMARK  Name = 
REMARK  4 active torsions:
REMARK  status: ('A' for Active; 'I' for Inactive)
REMARK    1  A    between atoms: C_2  and  C_3
REMARK    2  A    between atoms: C_3  and  N_4
REMARK    3  A    between atoms: N_4  and  C_16
REMARK    4  A    between atoms: C_5  and  C_7
REMARK                            x       y       z     vdW  Elec       q    Type
REMARK                         _______ _______ _______ _____ _____    ______ ____
ROOT
ATOM      1  N   UNL     1       2.180   3.947  19.293  0.00  0.00    +0.000 N 
ATOM      2  C   UNL     1       3.045   3.075  18.600  0.00  0.00    +0.000 C 
ATOM      3  O   UNL     1       2.802   1.875  18.460  0.00  0.00    +0.000 OA
ENDROOT
BRANCH   2   4
ATOM      4  C   UNL     1       4.315   3.583  17.974  0.00  0.00    +0.000 A 
ATOM      5  C   UNL     1       5.379   4.116  18.712  0.00  0.00    +0.000 A 
ATOM      6  C   UNL     1       6.423   4.812  18.095  0.00  0.00    +0.000 A 
ATOM      7  C   UNL     1       6.436   4.855  16.697  0.00  0.00    +0.000 A 
ATOM      8  S   UNL     1       7.519   5.622  15.602  0.00  0.00    +0.000 S 
ATOM      9  N   UNL     1       6.726   5.046  14.250  0.00  0.00    +0.000 NA
ATOM     10  N   UNL     1       5.664   4.315  14.546  0.00  0.00    +0.000 NA
ATOM     11  C   UNL     1       5.468   4.213  15.920  0.00  0.00    +0.000 A 
ATOM     12  C   UNL     1       4.398   3.564  16.570  0.00  0.00    +0.000 A 
ENDBRANCH   2   4
BRANCH   1  13
ATOM     13  C   UNL     1       2.263   5.363  19.227  0.00  0.00    +0.000 A 
ATOM     14  C   UNL     1       2.101   6.148  20.374  0.00  0.00    +0.000 A 
ATOM     15  C   UNL     1       1.999   7.536  20.257  0.00  0.00    +0.000 A 
ATOM     16  C   UNL     1       2.067   8.137  19.001  0.00  0.00    +0.000 A 
ATOM     17  C   UNL     1       2.275   7.359  17.862  0.00  0.00    +0.000 A 
ATOM     18  C   UNL     1       2.393   5.974  17.975  0.00  0.00    +0.000 A 
ENDBRANCH   1  13
BRANCH   1  19
ATOM     19  C   UNL     1       0.893   3.421  19.770  0.00  0.00    +0.000 C 
BRANCH  19  21
ATOM     20  C   UNL     1       2.032   2.771  21.956  0.00  0.00    +0.000 C 
ATOM     21  C   UNL     1       0.966   2.807  21.139  0.00  0.00    +0.000 C 
ENDBRANCH  19  21
ENDBRANCH   1  19
TORSDOF 4
ENDMDL
MODEL 9
REMARK VINA RESULT:      -6.2      3.070      5.777
REMARK  Name = 
REMARK  4 active torsions:
REMARK  status: ('A' for Active; 'I' for Inactive)
REMARK    1  A    between atoms: C_2  and  C_3
REMARK    2  A    between atoms: C_3  and  N_4
REMARK    3  A    between atoms: N_4  and  C_16
REMARK    4  A    between atoms: C_5  and  C_7
REMARK                            x       y       z     vdW  Elec       q    Type
REMARK                         _______ _______ _______ _____ _____    ______ ____
ROOT
ATOM      1  N   UNL     1       2.236   3.795  19.319  0.00  0.00    +0.000 N 
ATOM      2  C   UNL     1       3.340   3.099  18.784  0.00  0.00    +0.000 C 
ATOM      3  O   UNL     1       3.343   1.875  18.639  0.00  0.00    +0.000 OA
ENDROOT
BRANCH   2   4
ATOM      4  C   UNL     1       4.576   3.833  18.341  0.00  0.00    +0.000 A 
ATOM      5  C   UNL     1       5.366   4.603  19.204  0.00  0.00    +0.000 A 
ATOM      6  C   UNL     1       6.346   5.475  18.718  0.00  0.00    +0.000 A 
ATOM      7  C   UNL     1       6.599   5.463  17.342  0.00  0.00    +0.000 A 
ATOM      8  S   UNL     1       7.688   6.393  16.388  0.00  0.00    +0.000 S 
ATOM      9  N   UNL     1       7.277   5.612  14.970  0.00  0.00    +0.000 NA
ATOM     10  N   UNL     1       6.344   4.690  15.140  0.00  0.00    +0.000 NA
ATOM     11  C   UNL     1       5.930   4.604  16.466  0.00  0.00    +0.000 A 
ATOM     12  C   UNL     1       4.910   3.775  16.976  0.00  0.00    +0.000 A 
ENDBRANCH   2   4
BRANCH   1  13
ATOM     13  C   UNL     1       2.070   5.203  19.232  0.00  0.00    +0.000 A 
ATOM     14  C   UNL     1       2.169   5.865  18.003  0.00  0.00    +0.000 A 
ATOM     15  C   UNL     1       2.190   7.261  17.966  0.00  0.00    +0.000 A 
ATOM     16  C   UNL     1       2.104   7.992  19.150  0.00  0.00    +0.000 A 
ATOM     17  C   UNL     1       1.958   7.333  20.372  0.00  0.00    +0.000 A 
ATOM     18  C   UNL     1       1.921   5.939  20.413  0.00  0.00    +0.000 A 
ENDBRANCH   1  13
BRANCH   1  19
ATOM     19  C   UNL     1       1.010   3.041  19.612  0.00  0.00    +0.000 C 
BRANCH  19  21
ATOM     20  C   UNL     1       1.870   2.594  21.970  0.00  0.00    +0.000 C 
ATOM     21  C   UNL     1       0.890   2.625  21.050  0.00  0.00    +0.000 C 
ENDBRANCH  19  21
ENDBRANCH   1  19
TORSDOF 4
ENDMDL
