MODEL 1
REMARK VINA RESULT:      -8.5      0.000      0.000
REMARK  Name = 
REMARK  12 active torsions:
REMARK  status: ('A' for Active; 'I' for Inactive)
REMARK    1  A    between atoms: C_1  and  C_2
REMARK    2  A    between atoms: C_2  and  O_3
REMARK    3  A    between atoms: O_3  and  P_4
REMARK    4  A    between atoms: P_4  and  O_6
REMARK    5  A    between atoms: P_4  and  C_9
REMARK    6  A    between atoms: O_6  and  C_7
REMARK    7  A    between atoms: C_7  and  C_8
REMARK    8  A    between atoms: C_9  and  N_10
REMARK    9  A    between atoms: C_9  and  C_24
REMARK   10  A    between atoms: N_10  and  N_11
REMARK   11  A    between atoms: C_12  and  C_14
REMARK   12  A    between atoms: N_16  and  C_17
REMARK                            x       y       z     vdW  Elec       q    Type
REMARK                         _______ _______ _______ _____ _____    ______ ____
ROOT
ATOM      1  N   UNL     1       3.244   7.071  17.934  0.00  0.00    +0.000 NA
ATOM      2  H   UNL     1       2.904   6.740  17.030  0.00  0.00    +0.000 HD
ENDROOT
BRANCH   1   3
ATOM      3  N   UNL     1       2.154   7.718  18.583  0.00  0.00    +0.000 N 
ATOM      4  C   UNL     1       1.852   9.027  18.200  0.00  0.00    +0.000 C 
ATOM      5  O   UNL     1       2.412   9.602  17.268  0.00  0.00    +0.000 OA
ATOM      6  H   UNL     1       1.931   7.502  19.563  0.00  0.00    +0.000 HD
BRANCH   4   7
ATOM      7  C   UNL     1       0.769   9.665  18.970  0.00  0.00    +0.000 A 
ATOM      8  N   UNL     1      -0.167  10.475  18.426  0.00  0.00    +0.000 NA
ATOM      9  N   UNL     1      -0.885  10.908  19.482  0.00  0.00    +0.000 N 
ATOM     10  C   UNL     1      -1.985  11.819  19.279  0.00  0.00    +0.000 C 
ATOM     11  C   UNL     1      -0.460  10.426  20.693  0.00  0.00    +0.000 A 
ATOM     12  C   UNL     1      -0.881  10.659  22.010  0.00  0.00    +0.000 A 
ATOM     13  C   UNL     1      -0.209   9.983  23.036  0.00  0.00    +0.000 A 
ATOM     14  C   UNL     1       0.831   9.103  22.755  0.00  0.00    +0.000 A 
ATOM     15  C   UNL     1       1.246   8.888  21.436  0.00  0.00    +0.000 A 
ATOM     16  C   UNL     1       0.595   9.570  20.391  0.00  0.00    +0.000 A 
ENDBRANCH   4   7
ENDBRANCH   1   3
BRANCH   1  17
ATOM     17  C   UNL     1       3.853   5.927  18.673  0.00  0.00    +0.000 C 
BRANCH  17  18
ATOM     18  C   UNL     1       2.760   4.948  19.106  0.00  0.00    +0.000 A 
ATOM     19  C   UNL     1       2.393   4.854  20.456  0.00  0.00    +0.000 A 
ATOM     20  C   UNL     1       1.394   3.963  20.858  0.00  0.00    +0.000 A 
ATOM     21  C   UNL     1       0.752   3.156  19.918  0.00  0.00    +0.000 A 
ATOM     22  C   UNL     1       1.117   3.228  18.578  0.00  0.00    +0.000 A 
ATOM     23  C   UNL     1       2.119   4.111  18.175  0.00  0.00    +0.000 A 
ENDBRANCH  17  18
BRANCH  17  24
ATOM     24  P   UNL     1       5.194   5.131  17.715  0.00  0.00    +0.000 P 
ATOM     25  O   UNL     1       5.689   4.400  18.982  0.00  0.00    +0.000 OA
BRANCH  24  26
ATOM     26  O   UNL     1       6.461   4.378  16.809  0.00  0.00    +0.000 OA
BRANCH  26  28
ATOM     27  C   UNL     1       6.904   4.845  14.543  0.00  0.00    +0.000 C 
ATOM     28  C   UNL     1       6.225   3.884  15.507  0.00  0.00    +0.000 C 
ENDBRANCH  26  28
ENDBRANCH  24  26
BRANCH  24  29
ATOM     29  O   UNL     1       5.975   6.588  17.494  0.00  0.00    +0.000 OA
BRANCH  29  30
ATOM     30  C   UNL     1       7.354   6.720  17.820  0.00  0.00    +0.000 C 
ATOM     31  C   UNL     1       7.817   8.152  17.626  0.00  0.00    +0.000 C 
ENDBRANCH  29  30
ENDBRANCH  24  29
ENDBRANCH  17  24
ENDBRANCH   1  17
TORSDOF 9
ENDMDL
MODEL 2
REMARK VINA RESULT:      -8.0      0.929      2.105
REMARK  Name = 
REMARK  12 active torsions:
REMARK  status: ('A' for Active; 'I' for Inactive)
REMARK    1  A    between atoms: C_1  and  C_2
REMARK    2  A    between atoms: C_2  and  O_3
REMARK    3  A    between atoms: O_3  and  P_4
REMARK    4  A    between atoms: P_4  and  O_6
REMARK    5  A    between atoms: P_4  and  C_9
REMARK    6  A    between atoms: O_6  and  C_7
REMARK    7  A    between atoms: C_7  and  C_8
REMARK    8  A    between atoms: C_9  and  N_10
REMARK    9  A    between atoms: C_9  and  C_24
REMARK   10  A    between atoms: N_10  and  N_11
REMARK   11  A    between atoms: C_12  and  C_14
REMARK   12  A    between atoms: N_16  and  C_17
REMARK                            x       y       z     vdW  Elec       q    Type
REMARK                         _______ _______ _______ _____ _____    ______ ____
ROOT
ATOM      1  N   UNL     1       3.171   6.958  18.113  0.00  0.00    +0.000 NA
ATOM      2  H   UNL     1       2.700   6.608  17.277  0.00  0.00    +0.000 HD
ENDROOT
BRANCH   1   3
ATOM      3  N   UNL     1       2.214   7.708  18.853  0.00  0.00    +0.000 N 
ATOM      4  C   UNL     1       1.808   8.940  18.334  0.00  0.00    +0.000 C 
ATOM      5  O   UNL     1       2.158   9.352  17.229  0.00  0.00    +0.000 OA
ATOM      6  H   UNL     1       2.194   7.655  19.880  0.00  0.00    +0.000 HD
BRANCH   4   7
ATOM      7  C   UNL     1       0.882   9.700  19.191  0.00  0.00    +0.000 A 
ATOM      8  N   UNL     1       1.029   9.833  20.529  0.00  0.00    +0.000 NA
ATOM      9  N   UNL     1      -0.071  10.507  20.919  0.00  0.00    +0.000 N 
ATOM     10  C   UNL     1      -0.262  10.825  22.314  0.00  0.00    +0.000 C 
ATOM     11  C   UNL     1      -0.937  10.815  19.903  0.00  0.00    +0.000 A 
ATOM     12  C   UNL     1      -2.190  11.445  19.880  0.00  0.00    +0.000 A 
ATOM     13  C   UNL     1      -2.814  11.603  18.636  0.00  0.00    +0.000 A 
ATOM     14  C   UNL     1      -2.206  11.161  17.465  0.00  0.00    +0.000 A 
ATOM     15  C   UNL     1      -0.960  10.526  17.506  0.00  0.00    +0.000 A 
ATOM     16  C   UNL     1      -0.323  10.342  18.748  0.00  0.00    +0.000 A 
ENDBRANCH   4   7
ENDBRANCH   1   3
BRANCH   1  17
ATOM     17  C   UNL     1       3.798   5.812  18.834  0.00  0.00    +0.000 C 
BRANCH  17  18
ATOM     18  C   UNL     1       2.722   4.801  19.236  0.00  0.00    +0.000 A 
ATOM     19  C   UNL     1       2.423   4.592  20.590  0.00  0.00    +0.000 A 
ATOM     20  C   UNL     1       1.440   3.671  20.963  0.00  0.00    +0.000 A 
ATOM     21  C   UNL     1       0.747   2.949  19.991  0.00  0.00    +0.000 A 
ATOM     22  C   UNL     1       1.045   3.135  18.646  0.00  0.00    +0.000 A 
ATOM     23  C   UNL     1       2.030   4.049  18.270  0.00  0.00    +0.000 A 
ENDBRANCH  17  18
BRANCH  17  24
ATOM     24  P   UNL     1       5.165   5.065  17.873  0.00  0.00    +0.000 P 
ATOM     25  O   UNL     1       5.655   4.308  19.127  0.00  0.00    +0.000 OA
BRANCH  24  26
ATOM     26  O   UNL     1       6.457   4.359  16.965  0.00  0.00    +0.000 OA
BRANCH  26  28
ATOM     27  C   UNL     1       6.910   4.834  14.703  0.00  0.00    +0.000 C 
ATOM     28  C   UNL     1       6.238   3.862  15.662  0.00  0.00    +0.000 C 
ENDBRANCH  26  28
ENDBRANCH  24  26
BRANCH  24  29
ATOM     29  O   UNL     1       5.924   6.541  17.703  0.00  0.00    +0.000 OA
BRANCH  29  30
ATOM     30  C   UNL     1       7.325   6.657  17.927  0.00  0.00    +0.000 C 
ATOM     31  C   UNL     1       7.811   8.050  17.574  0.00  0.00    +0.000 C 
ENDBRANCH  29  30
ENDBRANCH  24  29
ENDBRANCH  17  24
ENDBRANCH   1  17
TORSDOF 9
ENDMDL
MODEL 3
REMARK VINA RESULT:      -7.8      1.035      2.221
REMARK  Name = 
REMARK  12 active torsions:
REMARK  status: ('A' for Active; 'I' for Inactive)
REMARK    1  A    between atoms: C_1  and  C_2
REMARK    2  A    between atoms: C_2  and  O_3
REMARK    3  A    between atoms: O_3  and  P_4
REMARK    4  A    between atoms: P_4  and  O_6
REMARK    5  A    between atoms: P_4  and  C_9
REMARK    6  A    between atoms: O_6  and  C_7
REMARK    7  A    between atoms: C_7  and  C_8
REMARK    8  A    between atoms: C_9  and  N_10
REMARK    9  A    between atoms: C_9  and  C_24
REMARK   10  A    between atoms: N_10  and  N_11
REMARK   11  A    between atoms: C_12  and  C_14
REMARK   12  A    between atoms: N_16  and  C_17
REMARK                            x       y       z     vdW  Elec       q    Type
REMARK                         _______ _______ _______ _____ _____    ______ ____
ROOT
ATOM      1  N   UNL     1       3.049   7.154  18.082  0.00  0.00    +0.000 NA
ATOM      2  H   UNL     1       2.462   6.903  17.284  0.00  0.00    +0.000 HD
ENDROOT
BRANCH   1   3
ATOM      3  N   UNL     1       2.209   7.799  19.034  0.00  0.00    +0.000 N 
ATOM      4  C   UNL     1       1.675   9.045  18.695  0.00  0.00    +0.000 C 
ATOM      5  O   UNL     1       1.812   9.556  17.585  0.00  0.00    +0.000 OA
ATOM      6  H   UNL     1       2.371   7.668  20.041  0.00  0.00    +0.000 HD
BRANCH   4   7
ATOM      7  C   UNL     1       0.886   9.692  19.758  0.00  0.00    +0.000 A 
ATOM      8  N   UNL     1       0.819   9.238  21.031  0.00  0.00    +0.000 NA
ATOM      9  N   UNL     1      -0.073  10.053  21.627  0.00  0.00    +0.000 N 
ATOM     10  C   UNL     1      -0.410   9.857  23.017  0.00  0.00    +0.000 C 
ATOM     11  C   UNL     1      -0.601  11.015  20.806  0.00  0.00    +0.000 A 
ATOM     12  C   UNL     1      -1.573  12.006  21.004  0.00  0.00    +0.000 A 
ATOM     13  C   UNL     1      -1.879  12.841  19.922  0.00  0.00    +0.000 A 
ATOM     14  C   UNL     1      -1.232  12.699  18.699  0.00  0.00    +0.000 A 
ATOM     15  C   UNL     1      -0.271  11.698  18.514  0.00  0.00    +0.000 A 
ATOM     16  C   UNL     1       0.040  10.838  19.583  0.00  0.00    +0.000 A 
ENDBRANCH   4   7
ENDBRANCH   1   3
BRANCH   1  17
ATOM     17  C   UNL     1       3.764   5.938  18.564  0.00  0.00    +0.000 C 
BRANCH  17  18
ATOM     18  C   UNL     1       2.751   4.895  19.040  0.00  0.00    +0.000 A 
ATOM     19  C   UNL     1       2.004   4.161  18.107  0.00  0.00    +0.000 A 
ATOM     20  C   UNL     1       1.078   3.207  18.536  0.00  0.00    +0.000 A 
ATOM     21  C   UNL     1       0.886   2.975  19.898  0.00  0.00    +0.000 A 
ATOM     22  C   UNL     1       1.608   3.706  20.834  0.00  0.00    +0.000 A 
ATOM     23  C   UNL     1       2.528   4.665  20.410  0.00  0.00    +0.000 A 
ENDBRANCH  17  18
BRANCH  17  24
ATOM     24  P   UNL     1       4.930   5.289  17.312  0.00  0.00    +0.000 P 
ATOM     25  O   UNL     1       5.467   4.253  18.323  0.00  0.00    +0.000 OA
BRANCH  24  26
ATOM     26  O   UNL     1       6.033   4.676  16.128  0.00  0.00    +0.000 OA
BRANCH  26  28
ATOM     27  C   UNL     1       6.796   4.550  13.903  0.00  0.00    +0.000 C 
ATOM     28  C   UNL     1       5.595   4.371  14.820  0.00  0.00    +0.000 C 
ENDBRANCH  26  28
ENDBRANCH  24  26
BRANCH  24  29
ATOM     29  O   UNL     1       5.823   6.698  17.335  0.00  0.00    +0.000 OA
BRANCH  29  30
ATOM     30  C   UNL     1       7.189   6.676  17.736  0.00  0.00    +0.000 C 
ATOM     31  C   UNL     1       7.810   8.053  17.599  0.00  0.00    +0.000 C 
ENDBRANCH  29  30
ENDBRANCH  24  29
ENDBRANCH  17  24
ENDBRANCH   1  17
TORSDOF 9
ENDMDL
MODEL 4
REMARK VINA RESULT:      -7.8      0.997      1.033
REMARK  Name = 
REMARK  12 active torsions:
REMARK  status: ('A' for Active; 'I' for Inactive)
REMARK    1  A    between atoms: C_1  and  C_2
REMARK    2  A    between atoms: C_2  and  O_3
REMARK    3  A    between atoms: O_3  and  P_4
REMARK    4  A    between atoms: P_4  and  O_6
REMARK    5  A    between atoms: P_4  and  C_9
REMARK    6  A    between atoms: O_6  and  C_7
REMARK    7  A    between atoms: C_7  and  C_8
REMARK    8  A    between atoms: C_9  and  N_10
REMARK    9  A    between atoms: C_9  and  C_24
REMARK   10  A    between atoms: N_10  and  N_11
REMARK   11  A    between atoms: C_12  and  C_14
REMARK   12  A    between atoms: N_16  and  C_17
REMARK                            x       y       z     vdW  Elec       q    Type
REMARK                         _______ _______ _______ _____ _____    ______ ____
ROOT
ATOM      1  N   UNL     1       3.090   7.306  17.906  0.00  0.00    +0.000 NA
ATOM      2  H   UNL     1       2.370   6.985  17.257  0.00  0.00    +0.000 HD
ENDROOT
BRANCH   1   3
ATOM      3  N   UNL     1       2.463   8.198  18.822  0.00  0.00    +0.000 N 
ATOM      4  C   UNL     1       1.648   9.204  18.298  0.00  0.00    +0.000 C 
ATOM      5  O   UNL     1       1.368   9.290  17.104  0.00  0.00    +0.000 OA
ATOM      6  H   UNL     1       2.929   8.447  19.705  0.00  0.00    +0.000 HD
BRANCH   4   7
ATOM      7  C   UNL     1       1.101  10.142  19.295  0.00  0.00    +0.000 A 
ATOM      8  N   UNL     1       1.179  11.487  19.188  0.00  0.00    +0.000 NA
ATOM      9  N   UNL     1       0.653  11.944  20.342  0.00  0.00    +0.000 N 
ATOM     10  C   UNL     1       0.580  13.364  20.588  0.00  0.00    +0.000 C 
ATOM     11  C   UNL     1       0.240  10.961  21.205  0.00  0.00    +0.000 A 
ATOM     12  C   UNL     1      -0.301  10.998  22.498  0.00  0.00    +0.000 A 
ATOM     13  C   UNL     1      -0.618   9.775  23.103  0.00  0.00    +0.000 A 
ATOM     14  C   UNL     1      -0.415   8.569  22.438  0.00  0.00    +0.000 A 
ATOM     15  C   UNL     1       0.134   8.550  21.152  0.00  0.00    +0.000 A 
ATOM     16  C   UNL     1       0.476   9.766  20.532  0.00  0.00    +0.000 A 
ENDBRANCH   4   7
ENDBRANCH   1   3
BRANCH   1  17
ATOM     17  C   UNL     1       3.765   6.121  18.511  0.00  0.00    +0.000 C 
BRANCH  17  18
ATOM     18  C   UNL     1       2.715   5.139  19.036  0.00  0.00    +0.000 A 
ATOM     19  C   UNL     1       2.442   5.067  20.410  0.00  0.00    +0.000 A 
ATOM     20  C   UNL     1       1.484   4.174  20.895  0.00  0.00    +0.000 A 
ATOM     21  C   UNL     1       0.789   3.342  20.017  0.00  0.00    +0.000 A 
ATOM     22  C   UNL     1       1.061   3.391  18.654  0.00  0.00    +0.000 A 
ATOM     23  C   UNL     1       2.022   4.277  18.167  0.00  0.00    +0.000 A 
ENDBRANCH  17  18
BRANCH  17  24
ATOM     24  P   UNL     1       4.957   5.351  17.356  0.00  0.00    +0.000 P 
ATOM     25  O   UNL     1       5.469   4.421  18.478  0.00  0.00    +0.000 OA
BRANCH  24  26
ATOM     26  O   UNL     1       6.085   4.622  16.265  0.00  0.00    +0.000 OA
BRANCH  26  28
ATOM     27  C   UNL     1       6.161   3.905  14.023  0.00  0.00    +0.000 C 
ATOM     28  C   UNL     1       6.236   5.110  14.948  0.00  0.00    +0.000 C 
ENDBRANCH  26  28
ENDBRANCH  24  26
BRANCH  24  29
ATOM     29  O   UNL     1       5.852   6.755  17.258  0.00  0.00    +0.000 OA
BRANCH  29  30
ATOM     30  C   UNL     1       7.143   6.827  17.854  0.00  0.00    +0.000 C 
ATOM     31  C   UNL     1       7.744   8.207  17.666  0.00  0.00    +0.000 C 
ENDBRANCH  29  30
ENDBRANCH  24  29
ENDBRANCH  17  24
ENDBRANCH   1  17
TORSDOF 9
ENDMDL
MODEL 5
REMARK VINA RESULT:      -7.6      2.291      4.220
REMARK  Name = 
REMARK  12 active torsions:
REMARK  status: ('A' for Active; 'I' for Inactive)
REMARK    1  A    between atoms: C_1  and  C_2
REMARK    2  A    between atoms: C_2  and  O_3
REMARK    3  A    between atoms: O_3  and  P_4
REMARK    4  A    between atoms: P_4  and  O_6
REMARK    5  A    between atoms: P_4  and  C_9
REMARK    6  A    between atoms: O_6  and  C_7
REMARK    7  A    between atoms: C_7  and  C_8
REMARK    8  A    between atoms: C_9  and  N_10
REMARK    9  A    between atoms: C_9  and  C_24
REMARK   10  A    between atoms: N_10  and  N_11
REMARK   11  A    between atoms: C_12  and  C_14
REMARK   12  A    between atoms: N_16  and  C_17
REMARK                            x       y       z     vdW  Elec       q    Type
REMARK                         _______ _______ _______ _____ _____    ______ ____
ROOT
ATOM      1  N   UNL     1       2.961   6.668  19.134  0.00  0.00    +0.000 NA
ATOM      2  H   UNL     1       3.932   6.955  19.271  0.00  0.00    +0.000 HD
ENDROOT
BRANCH   1   3
ATOM      3  N   UNL     1       2.174   7.854  19.089  0.00  0.00    +0.000 N 
ATOM      4  C   UNL     1       1.480   8.220  20.245  0.00  0.00    +0.000 C 
ATOM      5  O   UNL     1       1.599   7.628  21.317  0.00  0.00    +0.000 OA
ATOM      6  H   UNL     1       1.719   8.141  18.213  0.00  0.00    +0.000 HD
BRANCH   4   7
ATOM      7  C   UNL     1       0.621   9.408  20.102  0.00  0.00    +0.000 A 
ATOM      8  N   UNL     1       0.492  10.113  18.955  0.00  0.00    +0.000 NA
ATOM      9  N   UNL     1      -0.296  11.153  19.291  0.00  0.00    +0.000 N 
ATOM     10  C   UNL     1      -0.645  12.142  18.299  0.00  0.00    +0.000 C 
ATOM     11  C   UNL     1      -0.684  11.170  20.605  0.00  0.00    +0.000 A 
ATOM     12  C   UNL     1      -1.440  12.076  21.362  0.00  0.00    +0.000 A 
ATOM     13  C   UNL     1      -1.651  11.776  22.714  0.00  0.00    +0.000 A 
ATOM     14  C   UNL     1      -1.139  10.613  23.280  0.00  0.00    +0.000 A 
ATOM     15  C   UNL     1      -0.378   9.723  22.514  0.00  0.00    +0.000 A 
ATOM     16  C   UNL     1      -0.139  10.014  21.158  0.00  0.00    +0.000 A 
ENDBRANCH   4   7
ENDBRANCH   1   3
BRANCH   1  17
ATOM     17  C   UNL     1       2.878   5.786  17.934  0.00  0.00    +0.000 C 
BRANCH  17  18
ATOM     18  C   UNL     1       4.266   5.626  17.310  0.00  0.00    +0.000 A 
ATOM     19  C   UNL     1       5.235   6.626  17.481  0.00  0.00    +0.000 A 
ATOM     20  C   UNL     1       6.505   6.485  16.915  0.00  0.00    +0.000 A 
ATOM     21  C   UNL     1       6.821   5.347  16.174  0.00  0.00    +0.000 A 
ATOM     22  C   UNL     1       5.866   4.354  15.983  0.00  0.00    +0.000 A 
ATOM     23  C   UNL     1       4.595   4.496  16.540  0.00  0.00    +0.000 A 
ENDBRANCH  17  18
BRANCH  17  24
ATOM     24  P   UNL     1       2.071   4.188  18.315  0.00  0.00    +0.000 P 
ATOM     25  O   UNL     1       1.083   4.389  17.146  0.00  0.00    +0.000 OA
BRANCH  24  26
ATOM     26  O   UNL     1       1.309   2.677  18.675  0.00  0.00    +0.000 OA
BRANCH  26  28
ATOM     27  C   UNL     1       3.471   1.744  18.612  0.00  0.00    +0.000 C 
ATOM     28  C   UNL     1       1.984   1.456  18.460  0.00  0.00    +0.000 C 
ENDBRANCH  26  28
ENDBRANCH  24  26
BRANCH  24  29
ATOM     29  O   UNL     1       1.461   4.777  19.751  0.00  0.00    +0.000 OA
BRANCH  29  30
ATOM     30  C   UNL     1       1.110   3.883  20.802  0.00  0.00    +0.000 C 
ATOM     31  C   UNL     1       2.311   3.594  21.684  0.00  0.00    +0.000 C 
ENDBRANCH  29  30
ENDBRANCH  24  29
ENDBRANCH  17  24
ENDBRANCH   1  17
TORSDOF 9
ENDMDL
MODEL 6
REMARK VINA RESULT:      -7.6      1.960      4.020
REMARK  Name = 
REMARK  12 active torsions:
REMARK  status: ('A' for Active; 'I' for Inactive)
REMARK    1  A    between atoms: C_1  and  C_2
REMARK    2  A    between atoms: C_2  and  O_3
REMARK    3  A    between atoms: O_3  and  P_4
REMARK    4  A    between atoms: P_4  and  O_6
REMARK    5  A    between atoms: P_4  and  C_9
REMARK    6  A    between atoms: O_6  and  C_7
REMARK    7  A    between atoms: C_7  and  C_8
REMARK    8  A    between atoms: C_9  and  N_10
REMARK    9  A    between atoms: C_9  and  C_24
REMARK   10  A    between atoms: N_10  and  N_11
REMARK   11  A    between atoms: C_12  and  C_14
REMARK   12  A    between atoms: N_16  and  C_17
REMARK                            x       y       z     vdW  Elec       q    Type
REMARK                         _______ _______ _______ _____ _____    ______ ____
ROOT
ATOM      1  N   UNL     1       3.172   6.473  19.205  0.00  0.00    +0.000 NA
ATOM      2  H   UNL     1       4.013   7.047  19.130  0.00  0.00    +0.000 HD
ENDROOT
BRANCH   1   3
ATOM      3  N   UNL     1       2.094   7.346  19.529  0.00  0.00    +0.000 N 
ATOM      4  C   UNL     1       2.009   8.560  18.842  0.00  0.00    +0.000 C 
ATOM      5  O   UNL     1       2.753   8.859  17.909  0.00  0.00    +0.000 OA
ATOM      6  H   UNL     1       1.719   7.374  20.486  0.00  0.00    +0.000 HD
BRANCH   4   7
ATOM      7  C   UNL     1       0.922   9.449  19.286  0.00  0.00    +0.000 A 
ATOM      8  N   UNL     1       0.247  10.285  18.465  0.00  0.00    +0.000 NA
ATOM      9  N   UNL     1      -0.573  10.969  19.288  0.00  0.00    +0.000 N 
ATOM     10  C   UNL     1      -1.454  11.977  18.750  0.00  0.00    +0.000 C 
ATOM     11  C   UNL     1      -0.463  10.628  20.611  0.00  0.00    +0.000 A 
ATOM     12  C   UNL     1      -1.076  11.117  21.773  0.00  0.00    +0.000 A 
ATOM     13  C   UNL     1      -0.723  10.524  22.992  0.00  0.00    +0.000 A 
ATOM     14  C   UNL     1       0.193   9.478  23.044  0.00  0.00    +0.000 A 
ATOM     15  C   UNL     1       0.803   9.007  21.876  0.00  0.00    +0.000 A 
ATOM     16  C   UNL     1       0.476   9.601  20.642  0.00  0.00    +0.000 A 
ENDBRANCH   4   7
ENDBRANCH   1   3
BRANCH   1  17
ATOM     17  C   UNL     1       3.011   5.679  17.952  0.00  0.00    +0.000 C 
BRANCH  17  18
ATOM     18  C   UNL     1       4.367   5.520  17.261  0.00  0.00    +0.000 A 
ATOM     19  C   UNL     1       5.390   6.450  17.495  0.00  0.00    +0.000 A 
ATOM     20  C   UNL     1       6.631   6.310  16.868  0.00  0.00    +0.000 A 
ATOM     21  C   UNL     1       6.864   5.242  16.001  0.00  0.00    +0.000 A 
ATOM     22  C   UNL     1       5.853   4.321  15.748  0.00  0.00    +0.000 A 
ATOM     23  C   UNL     1       4.611   4.463  16.367  0.00  0.00    +0.000 A 
ENDBRANCH  17  18
BRANCH  17  24
ATOM     24  P   UNL     1       2.168   4.084  18.259  0.00  0.00    +0.000 P 
ATOM     25  O   UNL     1       1.062   4.454  17.246  0.00  0.00    +0.000 OA
BRANCH  24  26
ATOM     26  O   UNL     1       1.371   2.576  18.548  0.00  0.00    +0.000 OA
BRANCH  26  28
ATOM     27  C   UNL     1       3.533   1.706  18.205  0.00  0.00    +0.000 C 
ATOM     28  C   UNL     1       2.101   1.368  18.592  0.00  0.00    +0.000 C 
ENDBRANCH  26  28
ENDBRANCH  24  26
BRANCH  24  29
ATOM     29  O   UNL     1       1.762   4.534  19.812  0.00  0.00    +0.000 OA
BRANCH  29  30
ATOM     30  C   UNL     1       2.441   3.964  20.926  0.00  0.00    +0.000 C 
ATOM     31  C   UNL     1       1.512   3.061  21.715  0.00  0.00    +0.000 C 
ENDBRANCH  29  30
ENDBRANCH  24  29
ENDBRANCH  17  24
ENDBRANCH   1  17
TORSDOF 9
ENDMDL
MODEL 7
REMARK VINA RESULT:      -7.6      1.585      4.184
REMARK  Name = 
REMARK  12 active torsions:
REMARK  status: ('A' for Active; 'I' for Inactive)
REMARK    1  A    between atoms: C_1  and  C_2
REMARK    2  A    between atoms: C_2  and  O_3
REMARK    3  A    between atoms: O_3  and  P_4
REMARK    4  A    between atoms: P_4  and  O_6
REMARK    5  A    between atoms: P_4  and  C_9
REMARK    6  A    between atoms: O_6  and  C_7
REMARK    7  A    between atoms: C_7  and  C_8
REMARK    8  A    between atoms: C_9  and  N_10
REMARK    9  A    between atoms: C_9  and  C_24
REMARK   10  A    between atoms: N_10  and  N_11
REMARK   11  A    between atoms: C_12  and  C_14
REMARK   12  A    between atoms: N_16  and  C_17
REMARK                            x       y       z     vdW  Elec       q    Type
REMARK                         _______ _______ _______ _____ _____    ______ ____
ROOT
ATOM      1  N   UNL     1       3.490   7.461  18.026  0.00  0.00    +0.000 NA
ATOM      2  H   UNL     1       3.734   8.087  17.257  0.00  0.00    +0.000 HD
ENDROOT
BRANCH   1   3
ATOM      3  N   UNL     1       2.338   8.005  18.662  0.00  0.00    +0.000 N 
ATOM      4  C   UNL     1       1.892   9.260  18.241  0.00  0.00    +0.000 C 
ATOM      5  O   UNL     1       2.382   9.862  17.287  0.00  0.00    +0.000 OA
ATOM      6  H   UNL     1       2.144   7.796  19.650  0.00  0.00    +0.000 HD
BRANCH   4   7
ATOM      7  C   UNL     1       0.749   9.798  18.999  0.00  0.00    +0.000 A 
ATOM      8  N   UNL     1      -0.241  10.537  18.448  0.00  0.00    +0.000 NA
ATOM      9  N   UNL     1      -1.008  10.897  19.495  0.00  0.00    +0.000 N 
ATOM     10  C   UNL     1      -2.176  11.718  19.283  0.00  0.00    +0.000 C 
ATOM     11  C   UNL     1      -0.565  10.438  20.708  0.00  0.00    +0.000 A 
ATOM     12  C   UNL     1      -1.025  10.621  22.020  0.00  0.00    +0.000 A 
ATOM     13  C   UNL     1      -0.317   9.990  23.051  0.00  0.00    +0.000 A 
ATOM     14  C   UNL     1       0.796   9.199  22.779  0.00  0.00    +0.000 A 
ATOM     15  C   UNL     1       1.248   9.034  21.465  0.00  0.00    +0.000 A 
ATOM     16  C   UNL     1       0.561   9.674  20.416  0.00  0.00    +0.000 A 
ENDBRANCH   4   7
ENDBRANCH   1   3
BRANCH   1  17
ATOM     17  C   UNL     1       3.347   6.073  17.499  0.00  0.00    +0.000 C 
BRANCH  17  18
ATOM     18  C   UNL     1       4.724   5.511  17.137  0.00  0.00    +0.000 A 
ATOM     19  C   UNL     1       4.840   4.482  16.191  0.00  0.00    +0.000 A 
ATOM     20  C   UNL     1       6.094   3.966  15.856  0.00  0.00    +0.000 A 
ATOM     21  C   UNL     1       7.246   4.470  16.461  0.00  0.00    +0.000 A 
ATOM     22  C   UNL     1       7.145   5.479  17.412  0.00  0.00    +0.000 A 
ATOM     23  C   UNL     1       5.894   5.991  17.754  0.00  0.00    +0.000 A 
ENDBRANCH  17  18
BRANCH  17  24
ATOM     24  P   UNL     1       2.411   4.998  18.647  0.00  0.00    +0.000 P 
ATOM     25  O   UNL     1       3.583   5.021  19.651  0.00  0.00    +0.000 OA
BRANCH  24  26
ATOM     26  O   UNL     1       1.525   3.983  19.732  0.00  0.00    +0.000 OA
BRANCH  26  28
ATOM     27  C   UNL     1       1.510   2.598  21.637  0.00  0.00    +0.000 C 
ATOM     28  C   UNL     1       1.789   4.001  21.119  0.00  0.00    +0.000 C 
ENDBRANCH  26  28
ENDBRANCH  24  26
BRANCH  24  29
ATOM     29  O   UNL     1       2.514   3.701  17.603  0.00  0.00    +0.000 OA
BRANCH  29  30
ATOM     30  C   UNL     1       2.244   2.383  18.067  0.00  0.00    +0.000 C 
ATOM     31  C   UNL     1       3.535   1.616  18.284  0.00  0.00    +0.000 C 
ENDBRANCH  29  30
ENDBRANCH  24  29
ENDBRANCH  17  24
ENDBRANCH   1  17
TORSDOF 9
ENDMDL
MODEL 8
REMARK VINA RESULT:      -7.6      1.504      2.503
REMARK  Name = 
REMARK  12 active torsions:
REMARK  status: ('A' for Active; 'I' for Inactive)
REMARK    1  A    between atoms: C_1  and  C_2
REMARK    2  A    between atoms: C_2  and  O_3
REMARK    3  A    between atoms: O_3  and  P_4
REMARK    4  A    between atoms: P_4  and  O_6
REMARK    5  A    between atoms: P_4  and  C_9
REMARK    6  A    between atoms: O_6  and  C_7
REMARK    7  A    between atoms: C_7  and  C_8
REMARK    8  A    between atoms: C_9  and  N_10
REMARK    9  A    between atoms: C_9  and  C_24
REMARK   10  A    between atoms: N_10  and  N_11
REMARK   11  A    between atoms: C_12  and  C_14
REMARK   12  A    between atoms: N_16  and  C_17
REMARK                            x       y       z     vdW  Elec       q    Type
REMARK                         _______ _______ _______ _____ _____    ______ ____
ROOT
ATOM      1  N   UNL     1       2.451   6.923  18.396  0.00  0.00    +0.000 NA
ATOM      2  H   UNL     1       1.742   6.331  17.960  0.00  0.00    +0.000 HD
ENDROOT
BRANCH   1   3
ATOM      3  N   UNL     1       1.764   7.947  19.108  0.00  0.00    +0.000 N 
ATOM      4  C   UNL     1       1.649   9.200  18.500  0.00  0.00    +0.000 C 
ATOM      5  O   UNL     1       2.018   9.425  17.349  0.00  0.00    +0.000 OA
ATOM      6  H   UNL     1       1.799   7.977  20.136  0.00  0.00    +0.000 HD
BRANCH   4   7
ATOM      7  C   UNL     1       1.002  10.234  19.327  0.00  0.00    +0.000 A 
ATOM      8  N   UNL     1       0.981  11.548  19.012  0.00  0.00    +0.000 NA
ATOM      9  N   UNL     1       0.387  12.135  20.069  0.00  0.00    +0.000 N 
ATOM     10  C   UNL     1       0.199  13.565  20.088  0.00  0.00    +0.000 C 
ATOM     11  C   UNL     1       0.024  11.269  21.068  0.00  0.00    +0.000 A 
ATOM     12  C   UNL     1      -0.558  11.462  22.329  0.00  0.00    +0.000 A 
ATOM     13  C   UNL     1      -0.799  10.327  23.113  0.00  0.00    +0.000 A 
ATOM     14  C   UNL     1      -0.486   9.053  22.650  0.00  0.00    +0.000 A 
ATOM     15  C   UNL     1       0.103   8.878  21.393  0.00  0.00    +0.000 A 
ATOM     16  C   UNL     1       0.370  10.006  20.596  0.00  0.00    +0.000 A 
ENDBRANCH   4   7
ENDBRANCH   1   3
BRANCH   1  17
ATOM     17  C   UNL     1       3.368   6.070  19.207  0.00  0.00    +0.000 C 
BRANCH  17  18
ATOM     18  C   UNL     1       2.576   4.936  19.862  0.00  0.00    +0.000 A 
ATOM     19  C   UNL     1       1.355   4.521  19.312  0.00  0.00    +0.000 A 
ATOM     20  C   UNL     1       0.628   3.484  19.904  0.00  0.00    +0.000 A 
ATOM     21  C   UNL     1       1.111   2.853  21.051  0.00  0.00    +0.000 A 
ATOM     22  C   UNL     1       2.312   3.265  21.615  0.00  0.00    +0.000 A 
ATOM     23  C   UNL     1       3.037   4.304  21.031  0.00  0.00    +0.000 A 
ENDBRANCH  17  18
BRANCH  17  24
ATOM     24  P   UNL     1       4.796   5.479  18.228  0.00  0.00    +0.000 P 
ATOM     25  O   UNL     1       4.734   6.743  17.343  0.00  0.00    +0.000 OA
BRANCH  24  26
ATOM     26  O   UNL     1       6.147   4.920  17.302  0.00  0.00    +0.000 OA
BRANCH  26  28
ATOM     27  C   UNL     1       7.356   5.628  19.195  0.00  0.00    +0.000 C 
ATOM     28  C   UNL     1       7.465   5.061  17.788  0.00  0.00    +0.000 C 
ENDBRANCH  26  28
ENDBRANCH  24  26
BRANCH  24  29
ATOM     29  O   UNL     1       3.905   4.225  17.583  0.00  0.00    +0.000 OA
BRANCH  29  30
ATOM     30  C   UNL     1       4.454   2.914  17.515  0.00  0.00    +0.000 C 
ATOM     31  C   UNL     1       3.422   1.878  17.919  0.00  0.00    +0.000 C 
ENDBRANCH  29  30
ENDBRANCH  24  29
ENDBRANCH  17  24
ENDBRANCH   1  17
TORSDOF 9
ENDMDL
MODEL 9
REMARK VINA RESULT:      -7.5      2.396      4.227
REMARK  Name = 
REMARK  12 active torsions:
REMARK  status: ('A' for Active; 'I' for Inactive)
REMARK    1  A    between atoms: C_1  and  C_2
REMARK    2  A    between atoms: C_2  and  O_3
REMARK    3  A    between atoms: O_3  and  P_4
REMARK    4  A    between atoms: P_4  and  O_6
REMARK    5  A    between atoms: P_4  and  C_9
REMARK    6  A    between atoms: O_6  and  C_7
REMARK    7  A    between atoms: C_7  and  C_8
REMARK    8  A    between atoms: C_9  and  N_10
REMARK    9  A    between atoms: C_9  and  C_24
REMARK   10  A    between atoms: N_10  and  N_11
REMARK   11  A    between atoms: C_12  and  C_14
REMARK   12  A    between atoms: N_16  and  C_17
REMARK                            x       y       z     vdW  Elec       q    Type
REMARK                         _______ _______ _______ _____ _____    ______ ____
ROOT
ATOM      1  N   UNL     1       2.602   6.833  19.678  0.00  0.00    +0.000 NA
ATOM      2  H   UNL     1       3.464   7.148  20.127  0.00  0.00    +0.000 HD
ENDROOT
BRANCH   1   3
ATOM      3  N   UNL     1       1.793   7.986  19.467  0.00  0.00    +0.000 N 
ATOM      4  C   UNL     1       1.246   8.613  20.588  0.00  0.00    +0.000 C 
ATOM      5  O   UNL     1       1.512   8.280  21.742  0.00  0.00    +0.000 OA
ATOM      6  H   UNL     1       1.225   8.071  18.614  0.00  0.00    +0.000 HD
BRANCH   4   7
ATOM      7  C   UNL     1       0.352   9.746  20.291  0.00  0.00    +0.000 A 
ATOM      8  N   UNL     1       0.232  10.312  19.069  0.00  0.00    +0.000 NA
ATOM      9  N   UNL     1      -0.598  11.356  19.266  0.00  0.00    +0.000 N 
ATOM     10  C   UNL     1      -0.951  12.213  18.161  0.00  0.00    +0.000 C 
ATOM     11  C   UNL     1      -1.021  11.507  20.561  0.00  0.00    +0.000 A 
ATOM     12  C   UNL     1      -1.827  12.465  21.192  0.00  0.00    +0.000 A 
ATOM     13  C   UNL     1      -2.064  12.312  22.564  0.00  0.00    +0.000 A 
ATOM     14  C   UNL     1      -1.530  11.239  23.271  0.00  0.00    +0.000 A 
ATOM     15  C   UNL     1      -0.720  10.296  22.628  0.00  0.00    +0.000 A 
ATOM     16  C   UNL     1      -0.455  10.441  21.254  0.00  0.00    +0.000 A 
ENDBRANCH   4   7
ENDBRANCH   1   3
BRANCH   1  17
ATOM     17  C   UNL     1       2.947   6.048  18.457  0.00  0.00    +0.000 C 
BRANCH  17  18
ATOM     18  C   UNL     1       4.465   6.039  18.258  0.00  0.00    +0.000 A 
ATOM     19  C   UNL     1       5.289   5.350  19.159  0.00  0.00    +0.000 A 
ATOM     20  C   UNL     1       6.675   5.336  18.982  0.00  0.00    +0.000 A 
ATOM     21  C   UNL     1       7.253   6.010  17.907  0.00  0.00    +0.000 A 
ATOM     22  C   UNL     1       6.449   6.711  17.014  0.00  0.00    +0.000 A 
ATOM     23  C   UNL     1       5.066   6.732  17.193  0.00  0.00    +0.000 A 
ENDBRANCH  17  18
BRANCH  17  24
ATOM     24  P   UNL     1       2.215   4.371  18.494  0.00  0.00    +0.000 P 
ATOM     25  O   UNL     1       1.295   4.728  17.306  0.00  0.00    +0.000 OA
BRANCH  24  26
ATOM     26  O   UNL     1       1.524   2.786  18.528  0.00  0.00    +0.000 OA
BRANCH  26  28
ATOM     27  C   UNL     1       3.700   2.121  17.921  0.00  0.00    +0.000 C 
ATOM     28  C   UNL     1       2.335   1.639  18.388  0.00  0.00    +0.000 C 
ENDBRANCH  26  28
ENDBRANCH  24  26
BRANCH  24  29
ATOM     29  O   UNL     1       1.478   4.666  19.960  0.00  0.00    +0.000 OA
BRANCH  29  30
ATOM     30  C   UNL     1       1.098   3.584  20.804  0.00  0.00    +0.000 C 
ATOM     31  C   UNL     1       2.194   3.276  21.806  0.00  0.00    +0.000 C 
ENDBRANCH  29  30
ENDBRANCH  24  29
ENDBRANCH  17  24
ENDBRANCH   1  17
TORSDOF 9
ENDMDL
