MODEL 1
REMARK VINA RESULT:      -8.9      0.000      0.000
REMARK  Name = 
REMARK  4 active torsions:
REMARK  status: ('A' for Active; 'I' for Inactive)
REMARK    1  A    between atoms: C_1  and  C_2
REMARK    2  A    between atoms: C_3  and  C_4
REMARK    3  A    between atoms: C_15  and  C_16
REMARK    4  A    between atoms: C_16  and  C_17
REMARK                            x       y       z     vdW  Elec       q    Type
REMARK                         _______ _______ _______ _____ _____    ______ ____
ROOT
ATOM      1  C   UNL     1       0.270   9.450  23.269  0.00  0.00    +0.000 C 
ATOM      2  C   UNL     1       0.157  10.042  21.895  0.00  0.00    +0.000 A 
ATOM      3  C   UNL     1      -0.534  11.202  21.556  0.00  0.00    +0.000 A 
ATOM      4  S   UNL     1      -0.430  11.509  19.869  0.00  0.00    +0.000 S 
ATOM      5  C   UNL     1       0.524  10.122  19.567  0.00  0.00    +0.000 A 
ATOM      6  C   UNL     1       1.016   9.690  18.320  0.00  0.00    +0.000 A 
ATOM      7  C   UNL     1       1.795   8.530  18.260  0.00  0.00    +0.000 A 
ATOM      8  C   UNL     1       2.096   7.808  19.413  0.00  0.00    +0.000 A 
ATOM      9  C   UNL     1       1.588   8.253  20.646  0.00  0.00    +0.000 A 
ATOM     10  C   UNL     1       0.785   9.422  20.742  0.00  0.00    +0.000 A 
ENDROOT
BRANCH   3  11
ATOM     11  C   UNL     1      -1.271  12.157  22.410  0.00  0.00    +0.000 A 
ATOM     12  C   UNL     1      -0.816  13.430  22.684  0.00  0.00    +0.000 A 
ATOM     13  C   UNL     1      -1.606  14.181  23.517  0.00  0.00    +0.000 A 
ATOM     14  N   UNL     1      -2.767  13.741  24.031  0.00  0.00    +0.000 NA
ATOM     15  C   UNL     1      -3.141  12.509  23.683  0.00  0.00    +0.000 A 
ATOM     16  N   UNL     1      -4.337  12.039  24.185  0.00  0.00    +0.000 N 
ATOM     17  N   UNL     1      -2.431  11.682  22.912  0.00  0.00    +0.000 NA
ATOM     18  H   UNL     1      -4.556  12.528  25.042  0.00  0.00    +0.000 HD
ATOM     19  H   UNL     1      -4.321  11.030  24.215  0.00  0.00    +0.000 HD
ENDBRANCH   3  11
BRANCH   8  20
ATOM     20  C   UNL     1       2.951   6.565  19.347  0.00  0.00    +0.000 C 
BRANCH  20  21
ATOM     21  C   UNL     1       2.175   5.269  19.371  0.00  0.00    +0.000 A 
ATOM     22  C   UNL     1       1.904   4.578  18.181  0.00  0.00    +0.000 A 
ATOM     23  C   UNL     1       1.226   3.357  18.208  0.00  0.00    +0.000 A 
ATOM     24  C   UNL     1       0.805   2.819  19.421  0.00  0.00    +0.000 A 
ATOM     25  C   UNL     1       1.047   3.506  20.609  0.00  0.00    +0.000 A 
ATOM     26  C   UNL     1       1.725   4.727  20.585  0.00  0.00    +0.000 A 
ENDBRANCH  20  21
ENDBRANCH   8  20
TORSDOF 3
ENDMDL
MODEL 2
REMARK VINA RESULT:      -8.6      0.450      1.083
REMARK  Name = 
REMARK  4 active torsions:
REMARK  status: ('A' for Active; 'I' for Inactive)
REMARK    1  A    between atoms: C_1  and  C_2
REMARK    2  A    between atoms: C_3  and  C_4
REMARK    3  A    between atoms: C_15  and  C_16
REMARK    4  A    between atoms: C_16  and  C_17
REMARK                            x       y       z     vdW  Elec       q    Type
REMARK                         _______ _______ _______ _____ _____    ______ ____
ROOT
ATOM      1  C   UNL     1       0.061   9.487  23.174  0.00  0.00    +0.000 C 
ATOM      2  C   UNL     1       0.021  10.048  21.784  0.00  0.00    +0.000 A 
ATOM      3  C   UNL     1      -0.659  11.193  21.381  0.00  0.00    +0.000 A 
ATOM      4  S   UNL     1      -0.461  11.466  19.697  0.00  0.00    +0.000 S 
ATOM      5  C   UNL     1       0.522  10.082  19.479  0.00  0.00    +0.000 A 
ATOM      6  C   UNL     1       1.089   9.630  18.272  0.00  0.00    +0.000 A 
ATOM      7  C   UNL     1       1.880   8.477  18.283  0.00  0.00    +0.000 A 
ATOM      8  C   UNL     1       2.120   7.783  19.466  0.00  0.00    +0.000 A 
ATOM      9  C   UNL     1       1.538   8.248  20.658  0.00  0.00    +0.000 A 
ATOM     10  C   UNL     1       0.721   9.410  20.682  0.00  0.00    +0.000 A 
ENDROOT
BRANCH   3  11
ATOM     11  C   UNL     1      -1.453  12.158  22.170  0.00  0.00    +0.000 A 
ATOM     12  C   UNL     1      -0.890  13.209  22.863  0.00  0.00    +0.000 A 
ATOM     13  C   UNL     1      -1.763  13.997  23.569  0.00  0.00    +0.000 A 
ATOM     14  N   UNL     1      -3.092  13.797  23.585  0.00  0.00    +0.000 NA
ATOM     15  C   UNL     1      -3.547  12.776  22.858  0.00  0.00    +0.000 A 
ATOM     16  N   UNL     1      -4.909  12.559  22.846  0.00  0.00    +0.000 N 
ATOM     17  N   UNL     1      -2.783  11.927  22.167  0.00  0.00    +0.000 NA
ATOM     18  H   UNL     1      -5.319  12.945  23.685  0.00  0.00    +0.000 HD
ATOM     19  H   UNL     1      -5.097  11.589  22.639  0.00  0.00    +0.000 HD
ENDBRANCH   3  11
BRANCH   8  20
ATOM     20  C   UNL     1       2.989   6.547  19.476  0.00  0.00    +0.000 C 
BRANCH  20  21
ATOM     21  C   UNL     1       2.225   5.244  19.438  0.00  0.00    +0.000 A 
ATOM     22  C   UNL     1       1.784   4.642  20.626  0.00  0.00    +0.000 A 
ATOM     23  C   UNL     1       1.039   3.462  20.589  0.00  0.00    +0.000 A 
ATOM     24  C   UNL     1       0.734   2.866  19.368  0.00  0.00    +0.000 A 
ATOM     25  C   UNL     1       1.186   3.441  18.182  0.00  0.00    +0.000 A 
ATOM     26  C   UNL     1       1.931   4.622  18.216  0.00  0.00    +0.000 A 
ENDBRANCH  20  21
ENDBRANCH   8  20
TORSDOF 3
ENDMDL
MODEL 3
REMARK VINA RESULT:      -8.5      0.883      1.456
REMARK  Name = 
REMARK  4 active torsions:
REMARK  status: ('A' for Active; 'I' for Inactive)
REMARK    1  A    between atoms: C_1  and  C_2
REMARK    2  A    between atoms: C_3  and  C_4
REMARK    3  A    between atoms: C_15  and  C_16
REMARK    4  A    between atoms: C_16  and  C_17
REMARK                            x       y       z     vdW  Elec       q    Type
REMARK                         _______ _______ _______ _____ _____    ______ ____
ROOT
ATOM      1  C   UNL     1       0.366   9.389  23.052  0.00  0.00    +0.000 C 
ATOM      2  C   UNL     1       0.274   9.999  21.685  0.00  0.00    +0.000 A 
ATOM      3  C   UNL     1      -0.388  11.178  21.356  0.00  0.00    +0.000 A 
ATOM      4  S   UNL     1      -0.266  11.503  19.673  0.00  0.00    +0.000 S 
ATOM      5  C   UNL     1       0.658  10.098  19.360  0.00  0.00    +0.000 A 
ATOM      6  C   UNL     1       1.148   9.670  18.111  0.00  0.00    +0.000 A 
ATOM      7  C   UNL     1       1.900   8.493  18.042  0.00  0.00    +0.000 A 
ATOM      8  C   UNL     1       2.177   7.751  19.189  0.00  0.00    +0.000 A 
ATOM      9  C   UNL     1       1.672   8.193  20.423  0.00  0.00    +0.000 A 
ATOM     10  C   UNL     1       0.895   9.378  20.528  0.00  0.00    +0.000 A 
ENDROOT
BRANCH   3  11
ATOM     11  C   UNL     1      -1.108  12.140  22.216  0.00  0.00    +0.000 A 
ATOM     12  C   UNL     1      -2.320  11.857  22.812  0.00  0.00    +0.000 A 
ATOM     13  C   UNL     1      -2.870  12.869  23.557  0.00  0.00    +0.000 A 
ATOM     14  N   UNL     1      -2.280  14.063  23.734  0.00  0.00    +0.000 NA
ATOM     15  C   UNL     1      -1.095  14.232  23.146  0.00  0.00    +0.000 A 
ATOM     16  N   UNL     1      -0.460  15.444  23.324  0.00  0.00    +0.000 N 
ATOM     17  N   UNL     1      -0.489  13.330  22.370  0.00  0.00    +0.000 NA
ATOM     18  H   UNL     1      -1.147  16.155  23.536  0.00  0.00    +0.000 HD
ATOM     19  H   UNL     1       0.167  15.617  22.553  0.00  0.00    +0.000 HD
ENDBRANCH   3  11
BRANCH   8  20
ATOM     20  C   UNL     1       3.004   6.489  19.112  0.00  0.00    +0.000 C 
BRANCH  20  21
ATOM     21  C   UNL     1       2.211   5.211  19.260  0.00  0.00    +0.000 A 
ATOM     22  C   UNL     1       1.864   4.454  18.132  0.00  0.00    +0.000 A 
ATOM     23  C   UNL     1       1.171   3.250  18.271  0.00  0.00    +0.000 A 
ATOM     24  C   UNL     1       0.811   2.794  19.537  0.00  0.00    +0.000 A 
ATOM     25  C   UNL     1       1.129   3.548  20.664  0.00  0.00    +0.000 A 
ATOM     26  C   UNL     1       1.822   4.753  20.528  0.00  0.00    +0.000 A 
ENDBRANCH  20  21
ENDBRANCH   8  20
TORSDOF 3
ENDMDL
MODEL 4
REMARK VINA RESULT:      -8.4      1.310      1.712
REMARK  Name = 
REMARK  4 active torsions:
REMARK  status: ('A' for Active; 'I' for Inactive)
REMARK    1  A    between atoms: C_1  and  C_2
REMARK    2  A    between atoms: C_3  and  C_4
REMARK    3  A    between atoms: C_15  and  C_16
REMARK    4  A    between atoms: C_16  and  C_17
REMARK                            x       y       z     vdW  Elec       q    Type
REMARK                         _______ _______ _______ _____ _____    ______ ____
ROOT
ATOM      1  C   UNL     1      -0.190   9.199  22.448  0.00  0.00    +0.000 C 
ATOM      2  C   UNL     1       0.081   9.788  21.096  0.00  0.00    +0.000 A 
ATOM      3  C   UNL     1      -0.441  10.979  20.601  0.00  0.00    +0.000 A 
ATOM      4  S   UNL     1       0.105  11.272  18.999  0.00  0.00    +0.000 S 
ATOM      5  C   UNL     1       1.034   9.836  18.939  0.00  0.00    +0.000 A 
ATOM      6  C   UNL     1       1.805   9.373  17.856  0.00  0.00    +0.000 A 
ATOM      7  C   UNL     1       2.513   8.175  17.987  0.00  0.00    +0.000 A 
ATOM      8  C   UNL     1       2.474   7.445  19.173  0.00  0.00    +0.000 A 
ATOM      9  C   UNL     1       1.691   7.922  20.239  0.00  0.00    +0.000 A 
ATOM     10  C   UNL     1       0.950   9.130  20.136  0.00  0.00    +0.000 A 
ENDROOT
BRANCH   3  11
ATOM     11  C   UNL     1      -1.322  11.975  21.245  0.00  0.00    +0.000 A 
ATOM     12  C   UNL     1      -1.104  12.464  22.517  0.00  0.00    +0.000 A 
ATOM     13  C   UNL     1      -2.032  13.363  22.979  0.00  0.00    +0.000 A 
ATOM     14  N   UNL     1      -3.085  13.777  22.255  0.00  0.00    +0.000 NA
ATOM     15  C   UNL     1      -3.194  13.274  21.025  0.00  0.00    +0.000 A 
ATOM     16  N   UNL     1      -4.259  13.696  20.255  0.00  0.00    +0.000 N 
ATOM     17  N   UNL     1      -2.371  12.368  20.492  0.00  0.00    +0.000 NA
ATOM     18  H   UNL     1      -5.007  14.009  20.858  0.00  0.00    +0.000 HD
ATOM     19  H   UNL     1      -4.480  12.992  19.566  0.00  0.00    +0.000 HD
ENDBRANCH   3  11
BRANCH   8  20
ATOM     20  C   UNL     1       3.253   6.160  19.317  0.00  0.00    +0.000 C 
BRANCH  20  21
ATOM     21  C   UNL     1       2.400   4.915  19.393  0.00  0.00    +0.000 A 
ATOM     22  C   UNL     1       1.984   4.410  20.633  0.00  0.00    +0.000 A 
ATOM     23  C   UNL     1       1.158   3.287  20.702  0.00  0.00    +0.000 A 
ATOM     24  C   UNL     1       0.747   2.650  19.533  0.00  0.00    +0.000 A 
ATOM     25  C   UNL     1       1.172   3.127  18.295  0.00  0.00    +0.000 A 
ATOM     26  C   UNL     1       1.998   4.251  18.224  0.00  0.00    +0.000 A 
ENDBRANCH  20  21
ENDBRANCH   8  20
TORSDOF 3
ENDMDL
MODEL 5
REMARK VINA RESULT:      -8.3      1.058      1.725
REMARK  Name = 
REMARK  4 active torsions:
REMARK  status: ('A' for Active; 'I' for Inactive)
REMARK    1  A    between atoms: C_1  and  C_2
REMARK    2  A    between atoms: C_3  and  C_4
REMARK    3  A    between atoms: C_15  and  C_16
REMARK    4  A    between atoms: C_16  and  C_17
REMARK                            x       y       z     vdW  Elec       q    Type
REMARK                         _______ _______ _______ _____ _____    ______ ____
ROOT
ATOM      1  C   UNL     1      -0.289   9.573  22.693  0.00  0.00    +0.000 C 
ATOM      2  C   UNL     1      -0.105  10.041  21.280  0.00  0.00    +0.000 A 
ATOM      3  C   UNL     1      -0.679  11.175  20.711  0.00  0.00    +0.000 A 
ATOM      4  S   UNL     1      -0.228  11.330  19.061  0.00  0.00    +0.000 S 
ATOM      5  C   UNL     1       0.727   9.911  19.077  0.00  0.00    +0.000 A 
ATOM      6  C   UNL     1       1.447   9.365  17.997  0.00  0.00    +0.000 A 
ATOM      7  C   UNL     1       2.187   8.195  18.195  0.00  0.00    +0.000 A 
ATOM      8  C   UNL     1       2.228   7.575  19.442  0.00  0.00    +0.000 A 
ATOM      9  C   UNL     1       1.495   8.132  20.504  0.00  0.00    +0.000 A 
ATOM     10  C   UNL     1       0.724   9.315  20.335  0.00  0.00    +0.000 A 
ENDROOT
BRANCH   3  11
ATOM     11  C   UNL     1      -1.545  12.210  21.312  0.00  0.00    +0.000 A 
ATOM     12  C   UNL     1      -2.813  12.494  20.850  0.00  0.00    +0.000 A 
ATOM     13  C   UNL     1      -3.475  13.504  21.502  0.00  0.00    +0.000 A 
ATOM     14  N   UNL     1      -2.957  14.177  22.543  0.00  0.00    +0.000 NA
ATOM     15  C   UNL     1      -1.738  13.809  22.939  0.00  0.00    +0.000 A 
ATOM     16  N   UNL     1      -1.190  14.474  24.016  0.00  0.00    +0.000 N 
ATOM     17  N   UNL     1      -0.993  12.868  22.354  0.00  0.00    +0.000 NA
ATOM     18  H   UNL     1      -1.610  15.389  24.096  0.00  0.00    +0.000 HD
ATOM     19  H   UNL     1      -0.183  14.427  23.969  0.00  0.00    +0.000 HD
ENDBRANCH   3  11
BRANCH   8  20
ATOM     20  C   UNL     1       3.042   6.320  19.656  0.00  0.00    +0.000 C 
BRANCH  20  21
ATOM     21  C   UNL     1       2.261   5.035  19.514  0.00  0.00    +0.000 A 
ATOM     22  C   UNL     1       1.736   4.391  20.643  0.00  0.00    +0.000 A 
ATOM     23  C   UNL     1       0.976   3.228  20.509  0.00  0.00    +0.000 A 
ATOM     24  C   UNL     1       0.739   2.691  19.245  0.00  0.00    +0.000 A 
ATOM     25  C   UNL     1       1.274   3.307  18.116  0.00  0.00    +0.000 A 
ATOM     26  C   UNL     1       2.035   4.471  18.249  0.00  0.00    +0.000 A 
ENDBRANCH  20  21
ENDBRANCH   8  20
TORSDOF 3
ENDMDL
MODEL 6
REMARK VINA RESULT:      -8.3      1.056      1.846
REMARK  Name = 
REMARK  4 active torsions:
REMARK  status: ('A' for Active; 'I' for Inactive)
REMARK    1  A    between atoms: C_1  and  C_2
REMARK    2  A    between atoms: C_3  and  C_4
REMARK    3  A    between atoms: C_15  and  C_16
REMARK    4  A    between atoms: C_16  and  C_17
REMARK                            x       y       z     vdW  Elec       q    Type
REMARK                         _______ _______ _______ _____ _____    ______ ____
ROOT
ATOM      1  C   UNL     1       0.582   9.266  22.883  0.00  0.00    +0.000 C 
ATOM      2  C   UNL     1       0.486   9.875  21.516  0.00  0.00    +0.000 A 
ATOM      3  C   UNL     1      -0.158  11.066  21.192  0.00  0.00    +0.000 A 
ATOM      4  S   UNL     1      -0.051  11.385  19.508  0.00  0.00    +0.000 S 
ATOM      5  C   UNL     1       0.842   9.962  19.186  0.00  0.00    +0.000 A 
ATOM      6  C   UNL     1       1.307   9.522  17.932  0.00  0.00    +0.000 A 
ATOM      7  C   UNL     1       2.036   8.331  17.856  0.00  0.00    +0.000 A 
ATOM      8  C   UNL     1       2.313   7.586  19.000  0.00  0.00    +0.000 A 
ATOM      9  C   UNL     1       1.832   8.039  20.240  0.00  0.00    +0.000 A 
ATOM     10  C   UNL     1       1.080   9.240  20.352  0.00  0.00    +0.000 A 
ENDROOT
BRANCH   3  11
ATOM     11  C   UNL     1      -0.849  12.043  22.059  0.00  0.00    +0.000 A 
ATOM     12  C   UNL     1      -2.045  11.775  22.692  0.00  0.00    +0.000 A 
ATOM     13  C   UNL     1      -2.569  12.800  23.439  0.00  0.00    +0.000 A 
ATOM     14  N   UNL     1      -1.967  13.993  23.583  0.00  0.00    +0.000 NA
ATOM     15  C   UNL     1      -0.798  14.146  22.961  0.00  0.00    +0.000 A 
ATOM     16  N   UNL     1      -0.152  15.357  23.106  0.00  0.00    +0.000 N 
ATOM     17  N   UNL     1      -0.219  13.231  22.181  0.00  0.00    +0.000 NA
ATOM     18  H   UNL     1      -0.828  16.074  23.327  0.00  0.00    +0.000 HD
ATOM     19  H   UNL     1       0.455  15.516  22.315  0.00  0.00    +0.000 HD
ENDBRANCH   3  11
BRANCH   8  20
ATOM     20  C   UNL     1       3.115   6.308  18.916  0.00  0.00    +0.000 C 
BRANCH  20  21
ATOM     21  C   UNL     1       2.377   5.074  19.383  0.00  0.00    +0.000 A 
ATOM     22  C   UNL     1       2.395   4.701  20.734  0.00  0.00    +0.000 A 
ATOM     23  C   UNL     1       1.677   3.587  21.173  0.00  0.00    +0.000 A 
ATOM     24  C   UNL     1       0.940   2.830  20.266  0.00  0.00    +0.000 A 
ATOM     25  C   UNL     1       0.932   3.175  18.916  0.00  0.00    +0.000 A 
ATOM     26  C   UNL     1       1.650   4.289  18.475  0.00  0.00    +0.000 A 
ENDBRANCH  20  21
ENDBRANCH   8  20
TORSDOF 3
ENDMDL
MODEL 7
REMARK VINA RESULT:      -8.1      1.660      2.631
REMARK  Name = 
REMARK  4 active torsions:
REMARK  status: ('A' for Active; 'I' for Inactive)
REMARK    1  A    between atoms: C_1  and  C_2
REMARK    2  A    between atoms: C_3  and  C_4
REMARK    3  A    between atoms: C_15  and  C_16
REMARK    4  A    between atoms: C_16  and  C_17
REMARK                            x       y       z     vdW  Elec       q    Type
REMARK                         _______ _______ _______ _____ _____    ______ ____
ROOT
ATOM      1  C   UNL     1      -1.205  12.525  19.975  0.00  0.00    +0.000 C 
ATOM      2  C   UNL     1      -0.794  11.482  20.972  0.00  0.00    +0.000 A 
ATOM      3  C   UNL     1      -1.137  11.456  22.321  0.00  0.00    +0.000 A 
ATOM      4  S   UNL     1      -0.436  10.100  23.108  0.00  0.00    +0.000 S 
ATOM      5  C   UNL     1       0.324   9.531  21.685  0.00  0.00    +0.000 A 
ATOM      6  C   UNL     1       1.137   8.388  21.560  0.00  0.00    +0.000 A 
ATOM      7  C   UNL     1       1.670   8.066  20.308  0.00  0.00    +0.000 A 
ATOM      8  C   UNL     1       1.400   8.852  19.189  0.00  0.00    +0.000 A 
ATOM      9  C   UNL     1       0.592   9.992  19.339  0.00  0.00    +0.000 A 
ATOM     10  C   UNL     1       0.042  10.355  20.598  0.00  0.00    +0.000 A 
ENDROOT
BRANCH   3  11
ATOM     11  C   UNL     1      -1.995  12.369  23.105  0.00  0.00    +0.000 A 
ATOM     12  C   UNL     1      -1.682  13.695  23.323  0.00  0.00    +0.000 A 
ATOM     13  C   UNL     1      -2.571  14.399  24.096  0.00  0.00    +0.000 A 
ATOM     14  N   UNL     1      -3.695  13.866  24.603  0.00  0.00    +0.000 NA
ATOM     15  C   UNL     1      -3.928  12.586  24.310  0.00  0.00    +0.000 A 
ATOM     16  N   UNL     1      -5.084  12.019  24.806  0.00  0.00    +0.000 N 
ATOM     17  N   UNL     1      -3.114  11.801  23.601  0.00  0.00    +0.000 NA
ATOM     18  H   UNL     1      -5.379  12.523  25.631  0.00  0.00    +0.000 HD
ATOM     19  H   UNL     1      -4.965  11.020  24.889  0.00  0.00    +0.000 HD
ENDBRANCH   3  11
BRANCH   8  20
ATOM     20  C   UNL     1       1.964   8.491  17.836  0.00  0.00    +0.000 C 
BRANCH  20  21
ATOM     21  C   UNL     1       2.726   7.187  17.802  0.00  0.00    +0.000 A 
ATOM     22  C   UNL     1       2.060   5.967  17.987  0.00  0.00    +0.000 A 
ATOM     23  C   UNL     1       2.755   4.759  17.911  0.00  0.00    +0.000 A 
ATOM     24  C   UNL     1       4.125   4.756  17.658  0.00  0.00    +0.000 A 
ATOM     25  C   UNL     1       4.804   5.962  17.495  0.00  0.00    +0.000 A 
ATOM     26  C   UNL     1       4.110   7.172  17.571  0.00  0.00    +0.000 A 
ENDBRANCH  20  21
ENDBRANCH   8  20
TORSDOF 3
ENDMDL
MODEL 8
REMARK VINA RESULT:      -8.0      3.112      4.816
REMARK  Name = 
REMARK  4 active torsions:
REMARK  status: ('A' for Active; 'I' for Inactive)
REMARK    1  A    between atoms: C_1  and  C_2
REMARK    2  A    between atoms: C_3  and  C_4
REMARK    3  A    between atoms: C_15  and  C_16
REMARK    4  A    between atoms: C_16  and  C_17
REMARK                            x       y       z     vdW  Elec       q    Type
REMARK                         _______ _______ _______ _____ _____    ______ ____
ROOT
ATOM      1  C   UNL     1       2.253   9.105  17.418  0.00  0.00    +0.000 C 
ATOM      2  C   UNL     1       1.863   8.532  18.748  0.00  0.00    +0.000 A 
ATOM      3  C   UNL     1       1.230   9.217  19.782  0.00  0.00    +0.000 A 
ATOM      4  S   UNL     1       0.988   8.193  21.140  0.00  0.00    +0.000 S 
ATOM      5  C   UNL     1       1.710   6.839  20.384  0.00  0.00    +0.000 A 
ATOM      6  C   UNL     1       1.887   5.557  20.937  0.00  0.00    +0.000 A 
ATOM      7  C   UNL     1       2.493   4.561  20.165  0.00  0.00    +0.000 A 
ATOM      8  C   UNL     1       2.910   4.818  18.861  0.00  0.00    +0.000 A 
ATOM      9  C   UNL     1       2.731   6.107  18.332  0.00  0.00    +0.000 A 
ATOM     10  C   UNL     1       2.128   7.146  19.091  0.00  0.00    +0.000 A 
ENDROOT
BRANCH   3  11
ATOM     11  C   UNL     1       0.745  10.611  19.846  0.00  0.00    +0.000 A 
ATOM     12  C   UNL     1       0.998  11.449  20.912  0.00  0.00    +0.000 A 
ATOM     13  C   UNL     1       0.452  12.705  20.828  0.00  0.00    +0.000 A 
ATOM     14  N   UNL     1      -0.270  13.129  19.777  0.00  0.00    +0.000 NA
ATOM     15  C   UNL     1      -0.433  12.259  18.780  0.00  0.00    +0.000 A 
ATOM     16  N   UNL     1      -1.158  12.676  17.682  0.00  0.00    +0.000 N 
ATOM     17  N   UNL     1       0.022  11.004  18.776  0.00  0.00    +0.000 NA
ATOM     18  H   UNL     1      -1.784  13.420  17.955  0.00  0.00    +0.000 HD
ATOM     19  H   UNL     1      -1.561  11.876  17.217  0.00  0.00    +0.000 HD
ENDBRANCH   3  11
BRANCH   8  20
ATOM     20  C   UNL     1       3.549   3.734  18.025  0.00  0.00    +0.000 C 
BRANCH  20  21
ATOM     21  C   UNL     1       4.859   4.128  17.383  0.00  0.00    +0.000 A 
ATOM     22  C   UNL     1       5.976   4.434  18.173  0.00  0.00    +0.000 A 
ATOM     23  C   UNL     1       7.199   4.753  17.580  0.00  0.00    +0.000 A 
ATOM     24  C   UNL     1       7.316   4.780  16.192  0.00  0.00    +0.000 A 
ATOM     25  C   UNL     1       6.208   4.502  15.395  0.00  0.00    +0.000 A 
ATOM     26  C   UNL     1       4.983   4.182  15.987  0.00  0.00    +0.000 A 
ENDBRANCH  20  21
ENDBRANCH   8  20
TORSDOF 3
ENDMDL
MODEL 9
REMARK VINA RESULT:      -7.7      1.723      2.490
REMARK  Name = 
REMARK  4 active torsions:
REMARK  status: ('A' for Active; 'I' for Inactive)
REMARK    1  A    between atoms: C_1  and  C_2
REMARK    2  A    between atoms: C_3  and  C_4
REMARK    3  A    between atoms: C_15  and  C_16
REMARK    4  A    between atoms: C_16  and  C_17
REMARK                            x       y       z     vdW  Elec       q    Type
REMARK                         _______ _______ _______ _____ _____    ______ ____
ROOT
ATOM      1  C   UNL     1       0.509   9.209  22.907  0.00  0.00    +0.000 C 
ATOM      2  C   UNL     1       0.505   9.761  21.512  0.00  0.00    +0.000 A 
ATOM      3  C   UNL     1      -0.066  10.965  21.108  0.00  0.00    +0.000 A 
ATOM      4  S   UNL     1       0.135  11.204  19.419  0.00  0.00    +0.000 S 
ATOM      5  C   UNL     1       0.975   9.730  19.201  0.00  0.00    +0.000 A 
ATOM      6  C   UNL     1       1.478   9.216  17.991  0.00  0.00    +0.000 A 
ATOM      7  C   UNL     1       2.154   7.991  18.001  0.00  0.00    +0.000 A 
ATOM      8  C   UNL     1       2.342   7.286  19.188  0.00  0.00    +0.000 A 
ATOM      9  C   UNL     1       1.824   7.814  20.382  0.00  0.00    +0.000 A 
ATOM     10  C   UNL     1       1.124   9.051  20.407  0.00  0.00    +0.000 A 
ENDROOT
BRANCH   3  11
ATOM     11  C   UNL     1      -0.752  12.008  21.899  0.00  0.00    +0.000 A 
ATOM     12  C   UNL     1      -0.270  13.294  22.028  0.00  0.00    +0.000 A 
ATOM     13  C   UNL     1      -1.011  14.134  22.821  0.00  0.00    +0.000 A 
ATOM     14  N   UNL     1      -2.151  13.763  23.428  0.00  0.00    +0.000 NA
ATOM     15  C   UNL     1      -2.554  12.510  23.217  0.00  0.00    +0.000 A 
ATOM     16  N   UNL     1      -3.730  12.109  23.817  0.00  0.00    +0.000 N 
ATOM     17  N   UNL     1      -1.891  11.602  22.497  0.00  0.00    +0.000 NA
ATOM     18  H   UNL     1      -3.904  12.681  24.632  0.00  0.00    +0.000 HD
ATOM     19  H   UNL     1      -3.724  11.108  23.943  0.00  0.00    +0.000 HD
ENDBRANCH   3  11
BRANCH   8  20
ATOM     20  C   UNL     1       3.086   5.971  19.197  0.00  0.00    +0.000 C 
BRANCH  20  21
ATOM     21  C   UNL     1       3.949   5.732  17.980  0.00  0.00    +0.000 A 
ATOM     22  C   UNL     1       3.856   4.529  17.265  0.00  0.00    +0.000 A 
ATOM     23  C   UNL     1       4.619   4.325  16.114  0.00  0.00    +0.000 A 
ATOM     24  C   UNL     1       5.491   5.317  15.670  0.00  0.00    +0.000 A 
ATOM     25  C   UNL     1       5.611   6.508  16.384  0.00  0.00    +0.000 A 
ATOM     26  C   UNL     1       4.848   6.714  17.535  0.00  0.00    +0.000 A 
ENDBRANCH  20  21
ENDBRANCH   8  20
TORSDOF 3
ENDMDL
