MODEL 1
REMARK VINA RESULT:      -8.7      0.000      0.000
REMARK  Name = 
REMARK  7 active torsions:
REMARK  status: ('A' for Active; 'I' for Inactive)
REMARK    1  A    between atoms: C_1  and  O_2
REMARK    2  A    between atoms: O_2  and  C_3
REMARK    3  A    between atoms: C_5  and  O_6
REMARK    4  A    between atoms: O_6  and  C_7
REMARK    5  A    between atoms: C_8  and  C_9
REMARK    6  A    between atoms: C_14  and  C_15
REMARK    7  A    between atoms: C_18  and  C_19
REMARK                            x       y       z     vdW  Elec       q    Type
REMARK                         _______ _______ _______ _____ _____    ______ ____
ROOT
ATOM      1  C   UNL     1      -1.699  12.172  21.832  0.00  0.00    +0.000 A 
ATOM      2  C   UNL     1      -1.102  11.501  22.879  0.00  0.00    +0.000 A 
ATOM      3  N   UNL     1      -0.294  10.550  22.315  0.00  0.00    +0.000 N 
ATOM      4  C   UNL     1       0.523   9.611  22.932  0.00  0.00    +0.000 A 
ATOM      5  C   UNL     1       1.217   8.752  22.170  0.00  0.00    +0.000 A 
ATOM      6  C   UNL     1       1.078   8.809  20.711  0.00  0.00    +0.000 A 
ATOM      7  C   UNL     1       0.289   9.743  20.129  0.00  0.00    +0.000 A 
ATOM      8  C   UNL     1      -0.432  10.667  20.941  0.00  0.00    +0.000 A 
ATOM      9  N   UNL     1      -1.269  11.636  20.630  0.00  0.00    +0.000 NA
ENDROOT
BRANCH   1  13
ATOM     10  C   UNL     1      -4.339  15.552  21.890  0.00  0.00    +0.000 A 
ATOM     11  C   UNL     1      -4.683  14.402  22.600  0.00  0.00    +0.000 A 
ATOM     12  C   UNL     1      -3.853  13.272  22.624  0.00  0.00    +0.000 A 
ATOM     13  C   UNL     1      -2.650  13.279  21.889  0.00  0.00    +0.000 A 
ATOM     14  C   UNL     1      -2.334  14.430  21.137  0.00  0.00    +0.000 A 
ATOM     15  C   UNL     1      -3.166  15.552  21.136  0.00  0.00    +0.000 A 
ATOM     16 CL   UNL     1      -2.690  16.930  20.210  0.00  0.00    +0.000 Cl
BRANCH  10  18
ATOM     17  C   UNL     1      -6.116  16.733  22.908  0.00  0.00    +0.000 C 
ATOM     18  O   UNL     1      -5.127  16.673  21.881  0.00  0.00    +0.000 OA
ENDBRANCH  10  18
BRANCH  12  19
ATOM     19  O   UNL     1      -4.166  12.173  23.384  0.00  0.00    +0.000 OA
ATOM     20  C   UNL     1      -4.539  12.389  24.742  0.00  0.00    +0.000 C 
ENDBRANCH  12  19
ENDBRANCH   1  13
BRANCH   6  21
ATOM     21  C   UNL     1       1.697   7.785  19.856  0.00  0.00    +0.000 A 
ATOM     22  C   UNL     1       2.209   8.085  18.590  0.00  0.00    +0.000 A 
ATOM     23  C   UNL     1       2.866   7.093  17.850  0.00  0.00    +0.000 A 
ATOM     24  C   UNL     1       3.027   5.802  18.374  0.00  0.00    +0.000 A 
ATOM     25  C   UNL     1       2.552   5.530  19.660  0.00  0.00    +0.000 A 
ATOM     26  C   UNL     1       1.857   6.501  20.380  0.00  0.00    +0.000 A 
BRANCH  24  27
ATOM     27  C   UNL     1       3.844   4.813  17.620  0.00  0.00    +0.000 C 
ATOM     28  O   UNL     1       3.245   3.863  17.116  0.00  0.00    +0.000 OA
ATOM     29  N   UNL     1       5.212   4.999  17.450  0.00  0.00    +0.000 N 
ATOM     30  C   UNL     1       5.913   4.220  16.428  0.00  0.00    +0.000 C 
ATOM     31  C   UNL     1       6.670   5.167  15.476  0.00  0.00    +0.000 C 
ATOM     32  N   UNL     1       7.589   6.084  16.182  0.00  0.00    +0.000 NA
ATOM     33  C   UNL     1       6.880   6.812  17.251  0.00  0.00    +0.000 C 
ATOM     34  C   UNL     1       6.113   5.875  18.209  0.00  0.00    +0.000 C 
ATOM     35  H   UNL     1       7.969   6.754  15.512  0.00  0.00    +0.000 HD
ENDBRANCH  24  27
ENDBRANCH   6  21
TORSDOF 5
ENDMDL
MODEL 2
REMARK VINA RESULT:      -8.7      2.365      3.330
REMARK  Name = 
REMARK  7 active torsions:
REMARK  status: ('A' for Active; 'I' for Inactive)
REMARK    1  A    between atoms: C_1  and  O_2
REMARK    2  A    between atoms: O_2  and  C_3
REMARK    3  A    between atoms: C_5  and  O_6
REMARK    4  A    between atoms: O_6  and  C_7
REMARK    5  A    between atoms: C_8  and  C_9
REMARK    6  A    between atoms: C_14  and  C_15
REMARK    7  A    between atoms: C_18  and  C_19
REMARK                            x       y       z     vdW  Elec       q    Type
REMARK                         _______ _______ _______ _____ _____    ______ ____
ROOT
ATOM      1  C   UNL     1      -1.364  13.287  22.095  0.00  0.00    +0.000 A 
ATOM      2  C   UNL     1      -1.875  13.085  20.830  0.00  0.00    +0.000 A 
ATOM      3  N   UNL     1      -1.231  11.985  20.328  0.00  0.00    +0.000 N 
ATOM      4  C   UNL     1      -1.379  11.367  19.092  0.00  0.00    +0.000 A 
ATOM      5  C   UNL     1      -0.615  10.302  18.802  0.00  0.00    +0.000 A 
ATOM      6  C   UNL     1       0.369   9.832  19.783  0.00  0.00    +0.000 A 
ATOM      7  C   UNL     1       0.485  10.438  20.989  0.00  0.00    +0.000 A 
ATOM      8  C   UNL     1      -0.341  11.559  21.301  0.00  0.00    +0.000 A 
ATOM      9  N   UNL     1      -0.406  12.325  22.371  0.00  0.00    +0.000 NA
ENDROOT
BRANCH   1  13
ATOM     10  C   UNL     1      -2.216  16.466  24.845  0.00  0.00    +0.000 A 
ATOM     11  C   UNL     1      -2.915  15.264  24.951  0.00  0.00    +0.000 A 
ATOM     12  C   UNL     1      -2.670  14.188  24.085  0.00  0.00    +0.000 A 
ATOM     13  C   UNL     1      -1.713  14.328  23.058  0.00  0.00    +0.000 A 
ATOM     14  C   UNL     1      -1.045  15.564  22.932  0.00  0.00    +0.000 A 
ATOM     15  C   UNL     1      -1.293  16.620  23.812  0.00  0.00    +0.000 A 
ATOM     16 CL   UNL     1      -0.410  18.090  23.602  0.00  0.00    +0.000 Cl
BRANCH  10  18
ATOM     17  C   UNL     1      -3.587  18.299  25.436  0.00  0.00    +0.000 C 
ATOM     18  O   UNL     1      -2.425  17.515  25.703  0.00  0.00    +0.000 OA
ENDBRANCH  10  18
BRANCH  12  19
ATOM     19  O   UNL     1      -3.310  12.985  24.243  0.00  0.00    +0.000 OA
ATOM     20  C   UNL     1      -4.733  12.975  24.171  0.00  0.00    +0.000 C 
ENDBRANCH  12  19
ENDBRANCH   1  13
BRANCH   6  21
ATOM     21  C   UNL     1       1.328   8.772  19.439  0.00  0.00    +0.000 A 
ATOM     22  C   UNL     1       1.652   7.745  20.329  0.00  0.00    +0.000 A 
ATOM     23  C   UNL     1       2.505   6.711  19.923  0.00  0.00    +0.000 A 
ATOM     24  C   UNL     1       3.028   6.690  18.621  0.00  0.00    +0.000 A 
ATOM     25  C   UNL     1       2.658   7.698  17.727  0.00  0.00    +0.000 A 
ATOM     26  C   UNL     1       1.847   8.752  18.142  0.00  0.00    +0.000 A 
BRANCH  24  27
ATOM     27  C   UNL     1       3.821   5.510  18.182  0.00  0.00    +0.000 C 
ATOM     28  O   UNL     1       5.045   5.645  18.139  0.00  0.00    +0.000 OA
ATOM     29  N   UNL     1       3.200   4.299  17.893  0.00  0.00    +0.000 N 
ATOM     30  C   UNL     1       4.014   3.085  17.811  0.00  0.00    +0.000 C 
ATOM     31  C   UNL     1       3.451   2.013  18.764  0.00  0.00    +0.000 C 
ATOM     32  N   UNL     1       2.022   1.722  18.529  0.00  0.00    +0.000 NA
ATOM     33  C   UNL     1       1.227   2.964  18.551  0.00  0.00    +0.000 C 
ATOM     34  C   UNL     1       1.783   4.049  17.604  0.00  0.00    +0.000 C 
ATOM     35  H   UNL     1       1.686   1.094  19.261  0.00  0.00    +0.000 HD
ENDBRANCH  24  27
ENDBRANCH   6  21
TORSDOF 5
ENDMDL
MODEL 3
REMARK VINA RESULT:      -8.6      1.882      2.715
REMARK  Name = 
REMARK  7 active torsions:
REMARK  status: ('A' for Active; 'I' for Inactive)
REMARK    1  A    between atoms: C_1  and  O_2
REMARK    2  A    between atoms: O_2  and  C_3
REMARK    3  A    between atoms: C_5  and  O_6
REMARK    4  A    between atoms: O_6  and  C_7
REMARK    5  A    between atoms: C_8  and  C_9
REMARK    6  A    between atoms: C_14  and  C_15
REMARK    7  A    between atoms: C_18  and  C_19
REMARK                            x       y       z     vdW  Elec       q    Type
REMARK                         _______ _______ _______ _____ _____    ______ ____
ROOT
ATOM      1  C   UNL     1      -2.534  12.671  21.860  0.00  0.00    +0.000 A 
ATOM      2  C   UNL     1      -2.134  11.933  22.955  0.00  0.00    +0.000 A 
ATOM      3  N   UNL     1      -1.195  11.047  22.498  0.00  0.00    +0.000 N 
ATOM      4  C   UNL     1      -0.483  10.081  23.199  0.00  0.00    +0.000 A 
ATOM      5  C   UNL     1       0.380   9.298  22.533  0.00  0.00    +0.000 A 
ATOM      6  C   UNL     1       0.533   9.466  21.083  0.00  0.00    +0.000 A 
ATOM      7  C   UNL     1      -0.157  10.426  20.423  0.00  0.00    +0.000 A 
ATOM      8  C   UNL     1      -1.060  11.267  21.137  0.00  0.00    +0.000 A 
ATOM      9  N   UNL     1      -1.853  12.240  20.733  0.00  0.00    +0.000 NA
ENDROOT
BRANCH   1  13
ATOM     10  C   UNL     1      -5.254  15.986  21.739  0.00  0.00    +0.000 A 
ATOM     11  C   UNL     1      -5.754  14.686  21.664  0.00  0.00    +0.000 A 
ATOM     12  C   UNL     1      -4.912  13.566  21.709  0.00  0.00    +0.000 A 
ATOM     13  C   UNL     1      -3.517  13.750  21.803  0.00  0.00    +0.000 A 
ATOM     14  C   UNL     1      -3.018  15.069  21.831  0.00  0.00    +0.000 A 
ATOM     15  C   UNL     1      -3.874  16.173  21.799  0.00  0.00    +0.000 A 
ATOM     16 CL   UNL     1      -3.180  17.754  21.866  0.00  0.00    +0.000 Cl
BRANCH  10  18
ATOM     17  C   UNL     1      -6.851  17.283  22.902  0.00  0.00    +0.000 C 
ATOM     18  O   UNL     1      -6.068  17.088  21.725  0.00  0.00    +0.000 OA
ENDBRANCH  10  18
BRANCH  12  19
ATOM     19  O   UNL     1      -5.419  12.291  21.708  0.00  0.00    +0.000 OA
ATOM     20  C   UNL     1      -6.125  11.856  20.549  0.00  0.00    +0.000 C 
ENDBRANCH  12  19
ENDBRANCH   1  13
BRANCH   6  21
ATOM     21  C   UNL     1       1.347   8.526  20.299  0.00  0.00    +0.000 A 
ATOM     22  C   UNL     1       1.764   7.294  20.814  0.00  0.00    +0.000 A 
ATOM     23  C   UNL     1       2.464   6.397  19.998  0.00  0.00    +0.000 A 
ATOM     24  C   UNL     1       2.740   6.717  18.661  0.00  0.00    +0.000 A 
ATOM     25  C   UNL     1       2.276   7.931  18.146  0.00  0.00    +0.000 A 
ATOM     26  C   UNL     1       1.620   8.845  18.967  0.00  0.00    +0.000 A 
BRANCH  24  27
ATOM     27  C   UNL     1       3.367   5.689  17.787  0.00  0.00    +0.000 C 
ATOM     28  O   UNL     1       4.455   5.971  17.285  0.00  0.00    +0.000 OA
ATOM     29  N   UNL     1       2.767   4.447  17.602  0.00  0.00    +0.000 N 
ATOM     30  C   UNL     1       3.560   3.352  17.041  0.00  0.00    +0.000 C 
ATOM     31  C   UNL     1       3.506   2.132  17.981  0.00  0.00    +0.000 C 
ATOM     32  N   UNL     1       2.128   1.698  18.290  0.00  0.00    +0.000 NA
ATOM     33  C   UNL     1       1.326   2.829  18.793  0.00  0.00    +0.000 C 
ATOM     34  C   UNL     1       1.375   4.061  17.863  0.00  0.00    +0.000 C 
ATOM     35  H   UNL     1       2.161   0.967  19.000  0.00  0.00    +0.000 HD
ENDBRANCH  24  27
ENDBRANCH   6  21
TORSDOF 5
ENDMDL
MODEL 4
REMARK VINA RESULT:      -8.5      1.633      2.214
REMARK  Name = 
REMARK  7 active torsions:
REMARK  status: ('A' for Active; 'I' for Inactive)
REMARK    1  A    between atoms: C_1  and  O_2
REMARK    2  A    between atoms: O_2  and  C_3
REMARK    3  A    between atoms: C_5  and  O_6
REMARK    4  A    between atoms: O_6  and  C_7
REMARK    5  A    between atoms: C_8  and  C_9
REMARK    6  A    between atoms: C_14  and  C_15
REMARK    7  A    between atoms: C_18  and  C_19
REMARK                            x       y       z     vdW  Elec       q    Type
REMARK                         _______ _______ _______ _____ _____    ______ ____
ROOT
ATOM      1  C   UNL     1      -1.932  12.288  21.218  0.00  0.00    +0.000 A 
ATOM      2  C   UNL     1      -1.484  11.673  22.368  0.00  0.00    +0.000 A 
ATOM      3  N   UNL     1      -0.589  10.717  21.968  0.00  0.00    +0.000 N 
ATOM      4  C   UNL     1       0.144   9.821  22.738  0.00  0.00    +0.000 A 
ATOM      5  C   UNL     1       0.954   8.946  22.122  0.00  0.00    +0.000 A 
ATOM      6  C   UNL     1       1.028   8.940  20.657  0.00  0.00    +0.000 A 
ATOM      7  C   UNL     1       0.318   9.834  19.927  0.00  0.00    +0.000 A 
ATOM      8  C   UNL     1      -0.527  10.774  20.585  0.00  0.00    +0.000 A 
ATOM      9  N   UNL     1      -1.324  11.713  20.114  0.00  0.00    +0.000 NA
ENDROOT
BRANCH   1  13
ATOM     10  C   UNL     1      -4.920  15.333  20.773  0.00  0.00    +0.000 A 
ATOM     11  C   UNL     1      -3.600  15.702  21.033  0.00  0.00    +0.000 A 
ATOM     12  C   UNL     1      -2.582  14.749  21.178  0.00  0.00    +0.000 A 
ATOM     13  C   UNL     1      -2.897  13.377  21.088  0.00  0.00    +0.000 A 
ATOM     14  C   UNL     1      -4.242  13.014  20.871  0.00  0.00    +0.000 A 
ATOM     15  C   UNL     1      -5.242  13.978  20.716  0.00  0.00    +0.000 A 
ATOM     16 CL   UNL     1      -6.859  13.447  20.425  0.00  0.00    +0.000 Cl
BRANCH  10  18
ATOM     17  C   UNL     1      -6.009  16.822  19.295  0.00  0.00    +0.000 C 
ATOM     18  O   UNL     1      -5.920  16.255  20.601  0.00  0.00    +0.000 OA
ENDBRANCH  10  18
BRANCH  12  19
ATOM     19  O   UNL     1      -1.275  15.124  21.361  0.00  0.00    +0.000 OA
ATOM     20  C   UNL     1      -0.542  15.561  20.220  0.00  0.00    +0.000 C 
ENDBRANCH  12  19
ENDBRANCH   1  13
BRANCH   6  21
ATOM     21  C   UNL     1       1.779   7.896  19.945  0.00  0.00    +0.000 A 
ATOM     22  C   UNL     1       1.923   6.603  20.459  0.00  0.00    +0.000 A 
ATOM     23  C   UNL     1       2.573   5.620  19.703  0.00  0.00    +0.000 A 
ATOM     24  C   UNL     1       3.071   5.917  18.425  0.00  0.00    +0.000 A 
ATOM     25  C   UNL     1       2.877   7.200  17.905  0.00  0.00    +0.000 A 
ATOM     26  C   UNL     1       2.272   8.193  18.672  0.00  0.00    +0.000 A 
BRANCH  24  27
ATOM     27  C   UNL     1       3.636   4.817  17.597  0.00  0.00    +0.000 C 
ATOM     28  O   UNL     1       2.842   3.982  17.162  0.00  0.00    +0.000 OA
ATOM     29  N   UNL     1       4.992   4.780  17.288  0.00  0.00    +0.000 N 
ATOM     30  C   UNL     1       5.450   3.909  16.204  0.00  0.00    +0.000 C 
ATOM     31  C   UNL     1       6.250   4.732  15.175  0.00  0.00    +0.000 C 
ATOM     32  N   UNL     1       7.373   5.479  15.779  0.00  0.00    +0.000 NA
ATOM     33  C   UNL     1       6.904   6.301  16.910  0.00  0.00    +0.000 C 
ATOM     34  C   UNL     1       6.095   5.490  17.946  0.00  0.00    +0.000 C 
ATOM     35  H   UNL     1       7.787   6.086  15.070  0.00  0.00    +0.000 HD
ENDBRANCH  24  27
ENDBRANCH   6  21
TORSDOF 5
ENDMDL
MODEL 5
REMARK VINA RESULT:      -8.5      2.466      3.618
REMARK  Name = 
REMARK  7 active torsions:
REMARK  status: ('A' for Active; 'I' for Inactive)
REMARK    1  A    between atoms: C_1  and  O_2
REMARK    2  A    between atoms: O_2  and  C_3
REMARK    3  A    between atoms: C_5  and  O_6
REMARK    4  A    between atoms: O_6  and  C_7
REMARK    5  A    between atoms: C_8  and  C_9
REMARK    6  A    between atoms: C_14  and  C_15
REMARK    7  A    between atoms: C_18  and  C_19
REMARK                            x       y       z     vdW  Elec       q    Type
REMARK                         _______ _______ _______ _____ _____    ______ ____
ROOT
ATOM      1  C   UNL     1      -1.683  13.122  21.719  0.00  0.00    +0.000 A 
ATOM      2  C   UNL     1      -1.844  13.097  20.350  0.00  0.00    +0.000 A 
ATOM      3  N   UNL     1      -1.144  12.010  19.900  0.00  0.00    +0.000 N 
ATOM      4  C   UNL     1      -0.984  11.541  18.602  0.00  0.00    +0.000 A 
ATOM      5  C   UNL     1      -0.224  10.455  18.391  0.00  0.00    +0.000 A 
ATOM      6  C   UNL     1       0.436   9.806  19.529  0.00  0.00    +0.000 A 
ATOM      7  C   UNL     1       0.253  10.269  20.788  0.00  0.00    +0.000 A 
ATOM      8  C   UNL     1      -0.570  11.412  21.011  0.00  0.00    +0.000 A 
ATOM      9  N   UNL     1      -0.883  12.062  22.113  0.00  0.00    +0.000 NA
ENDROOT
BRANCH   1  13
ATOM     10  C   UNL     1      -3.488  15.880  24.463  0.00  0.00    +0.000 A 
ATOM     11  C   UNL     1      -2.099  15.847  24.340  0.00  0.00    +0.000 A 
ATOM     12  C   UNL     1      -1.457  14.972  23.452  0.00  0.00    +0.000 A 
ATOM     13  C   UNL     1      -2.227  14.078  22.679  0.00  0.00    +0.000 A 
ATOM     14  C   UNL     1      -3.628  14.089  22.845  0.00  0.00    +0.000 A 
ATOM     15  C   UNL     1      -4.252  14.977  23.725  0.00  0.00    +0.000 A 
ATOM     16 CL   UNL     1      -5.974  14.941  23.847  0.00  0.00    +0.000 Cl
BRANCH  10  18
ATOM     17  C   UNL     1      -3.589  18.069  25.350  0.00  0.00    +0.000 C 
ATOM     18  O   UNL     1      -4.130  16.749  25.306  0.00  0.00    +0.000 OA
ENDBRANCH  10  18
BRANCH  12  19
ATOM     19  O   UNL     1      -0.095  14.998  23.285  0.00  0.00    +0.000 OA
ATOM     20  C   UNL     1       0.435  15.846  22.271  0.00  0.00    +0.000 C 
ENDBRANCH  12  19
ENDBRANCH   1  13
BRANCH   6  21
ATOM     21  C   UNL     1       1.400   8.716  19.318  0.00  0.00    +0.000 A 
ATOM     22  C   UNL     1       1.589   7.699  20.259  0.00  0.00    +0.000 A 
ATOM     23  C   UNL     1       2.455   6.636  19.973  0.00  0.00    +0.000 A 
ATOM     24  C   UNL     1       3.126   6.574  18.742  0.00  0.00    +0.000 A 
ATOM     25  C   UNL     1       2.889   7.572  17.793  0.00  0.00    +0.000 A 
ATOM     26  C   UNL     1       2.065   8.655  18.091  0.00  0.00    +0.000 A 
BRANCH  24  27
ATOM     27  C   UNL     1       3.932   5.366  18.419  0.00  0.00    +0.000 C 
ATOM     28  O   UNL     1       5.155   5.465  18.534  0.00  0.00    +0.000 OA
ATOM     29  N   UNL     1       3.317   4.171  18.063  0.00  0.00    +0.000 N 
ATOM     30  C   UNL     1       4.097   2.932  18.098  0.00  0.00    +0.000 C 
ATOM     31  C   UNL     1       3.382   1.889  18.980  0.00  0.00    +0.000 C 
ATOM     32  N   UNL     1       1.987   1.637  18.565  0.00  0.00    +0.000 NA
ATOM     33  C   UNL     1       1.234   2.903  18.472  0.00  0.00    +0.000 C 
ATOM     34  C   UNL     1       1.941   3.959  17.596  0.00  0.00    +0.000 C 
ATOM     35  H   UNL     1       1.540   1.030  19.252  0.00  0.00    +0.000 HD
ENDBRANCH  24  27
ENDBRANCH   6  21
TORSDOF 5
ENDMDL
MODEL 6
REMARK VINA RESULT:      -8.5      0.994      1.339
REMARK  Name = 
REMARK  7 active torsions:
REMARK  status: ('A' for Active; 'I' for Inactive)
REMARK    1  A    between atoms: C_1  and  O_2
REMARK    2  A    between atoms: O_2  and  C_3
REMARK    3  A    between atoms: C_5  and  O_6
REMARK    4  A    between atoms: O_6  and  C_7
REMARK    5  A    between atoms: C_8  and  C_9
REMARK    6  A    between atoms: C_14  and  C_15
REMARK    7  A    between atoms: C_18  and  C_19
REMARK                            x       y       z     vdW  Elec       q    Type
REMARK                         _______ _______ _______ _____ _____    ______ ____
ROOT
ATOM      1  C   UNL     1      -2.187  12.493  21.567  0.00  0.00    +0.000 A 
ATOM      2  C   UNL     1      -1.815  11.794  22.696  0.00  0.00    +0.000 A 
ATOM      3  N   UNL     1      -0.915  10.848  22.282  0.00  0.00    +0.000 N 
ATOM      4  C   UNL     1      -0.242   9.888  23.028  0.00  0.00    +0.000 A 
ATOM      5  C   UNL     1       0.586   9.039  22.400  0.00  0.00    +0.000 A 
ATOM      6  C   UNL     1       0.743   9.130  20.944  0.00  0.00    +0.000 A 
ATOM      7  C   UNL     1       0.091  10.085  20.239  0.00  0.00    +0.000 A 
ATOM      8  C   UNL     1      -0.774  10.997  20.911  0.00  0.00    +0.000 A 
ATOM      9  N   UNL     1      -1.527  11.981  20.462  0.00  0.00    +0.000 NA
ENDROOT
BRANCH   1  13
ATOM     10  C   UNL     1      -4.768  15.908  21.292  0.00  0.00    +0.000 A 
ATOM     11  C   UNL     1      -5.320  14.628  21.258  0.00  0.00    +0.000 A 
ATOM     12  C   UNL     1      -4.524  13.477  21.354  0.00  0.00    +0.000 A 
ATOM     13  C   UNL     1      -3.124  13.608  21.459  0.00  0.00    +0.000 A 
ATOM     14  C   UNL     1      -2.573  14.907  21.445  0.00  0.00    +0.000 A 
ATOM     15  C   UNL     1      -3.382  16.042  21.362  0.00  0.00    +0.000 A 
ATOM     16 CL   UNL     1      -2.626  17.595  21.380  0.00  0.00    +0.000 Cl
BRANCH  10  18
ATOM     17  C   UNL     1      -6.080  17.481  22.471  0.00  0.00    +0.000 C 
ATOM     18  O   UNL     1      -5.536  17.041  21.228  0.00  0.00    +0.000 OA
ENDBRANCH  10  18
BRANCH  12  19
ATOM     19  O   UNL     1      -5.084  12.225  21.393  0.00  0.00    +0.000 OA
ATOM     20  C   UNL     1      -6.501  12.125  21.284  0.00  0.00    +0.000 C 
ENDBRANCH  12  19
ENDBRANCH   1  13
BRANCH   6  21
ATOM     21  C   UNL     1       1.515   8.120  20.206  0.00  0.00    +0.000 A 
ATOM     22  C   UNL     1       1.737   6.837  20.714  0.00  0.00    +0.000 A 
ATOM     23  C   UNL     1       2.405   5.883  19.935  0.00  0.00    +0.000 A 
ATOM     24  C   UNL     1       2.843   6.201  18.640  0.00  0.00    +0.000 A 
ATOM     25  C   UNL     1       2.571   7.473  18.128  0.00  0.00    +0.000 A 
ATOM     26  C   UNL     1       1.949   8.438  18.917  0.00  0.00    +0.000 A 
BRANCH  24  27
ATOM     27  C   UNL     1       3.428   5.128  17.793  0.00  0.00    +0.000 C 
ATOM     28  O   UNL     1       2.646   4.299  17.323  0.00  0.00    +0.000 OA
ATOM     29  N   UNL     1       4.788   5.108  17.503  0.00  0.00    +0.000 N 
ATOM     30  C   UNL     1       5.268   4.269  16.403  0.00  0.00    +0.000 C 
ATOM     31  C   UNL     1       6.078   5.124  15.408  0.00  0.00    +0.000 C 
ATOM     32  N   UNL     1       7.186   5.863  16.048  0.00  0.00    +0.000 NA
ATOM     33  C   UNL     1       6.694   6.651  17.193  0.00  0.00    +0.000 C 
ATOM     34  C   UNL     1       5.877   5.808  18.196  0.00  0.00    +0.000 C 
ATOM     35  H   UNL     1       7.606   6.491  15.362  0.00  0.00    +0.000 HD
ENDBRANCH  24  27
ENDBRANCH   6  21
TORSDOF 5
ENDMDL
MODEL 7
REMARK VINA RESULT:      -8.4      2.260      3.287
REMARK  Name = 
REMARK  7 active torsions:
REMARK  status: ('A' for Active; 'I' for Inactive)
REMARK    1  A    between atoms: C_1  and  O_2
REMARK    2  A    between atoms: O_2  and  C_3
REMARK    3  A    between atoms: C_5  and  O_6
REMARK    4  A    between atoms: O_6  and  C_7
REMARK    5  A    between atoms: C_8  and  C_9
REMARK    6  A    between atoms: C_14  and  C_15
REMARK    7  A    between atoms: C_18  and  C_19
REMARK                            x       y       z     vdW  Elec       q    Type
REMARK                         _______ _______ _______ _____ _____    ______ ____
ROOT
ATOM      1  C   UNL     1      -2.188  13.128  21.657  0.00  0.00    +0.000 A 
ATOM      2  C   UNL     1      -2.236  13.152  20.279  0.00  0.00    +0.000 A 
ATOM      3  N   UNL     1      -1.477  12.095  19.850  0.00  0.00    +0.000 N 
ATOM      4  C   UNL     1      -1.201  11.678  18.554  0.00  0.00    +0.000 A 
ATOM      5  C   UNL     1      -0.403  10.616  18.368  0.00  0.00    +0.000 A 
ATOM      6  C   UNL     1       0.175   9.937  19.533  0.00  0.00    +0.000 A 
ATOM      7  C   UNL     1      -0.120  10.348  20.789  0.00  0.00    +0.000 A 
ATOM      8  C   UNL     1      -0.983  11.467  20.983  0.00  0.00    +0.000 A 
ATOM      9  N   UNL     1      -1.400  12.069  22.078  0.00  0.00    +0.000 NA
ENDROOT
BRANCH   1  13
ATOM     10  C   UNL     1      -3.866  15.877  24.491  0.00  0.00    +0.000 A 
ATOM     11  C   UNL     1      -4.694  14.942  23.870  0.00  0.00    +0.000 A 
ATOM     12  C   UNL     1      -4.197  14.014  22.944  0.00  0.00    +0.000 A 
ATOM     13  C   UNL     1      -2.829  14.038  22.603  0.00  0.00    +0.000 A 
ATOM     14  C   UNL     1      -2.009  15.017  23.202  0.00  0.00    +0.000 A 
ATOM     15  C   UNL     1      -2.520  15.925  24.133  0.00  0.00    +0.000 A 
ATOM     16 CL   UNL     1      -1.440  17.074  24.839  0.00  0.00    +0.000 Cl
BRANCH  10  18
ATOM     17  C   UNL     1      -5.015  17.904  24.885  0.00  0.00    +0.000 C 
ATOM     18  O   UNL     1      -4.333  16.770  25.419  0.00  0.00    +0.000 OA
ENDBRANCH  10  18
BRANCH  12  19
ATOM     19  O   UNL     1      -5.007  13.051  22.394  0.00  0.00    +0.000 OA
ATOM     20  C   UNL     1      -6.320  12.903  22.926  0.00  0.00    +0.000 C 
ENDBRANCH  12  19
ENDBRANCH   1  13
BRANCH   6  21
ATOM     21  C   UNL     1       1.176   8.873  19.363  0.00  0.00    +0.000 A 
ATOM     22  C   UNL     1       1.412   7.911  20.350  0.00  0.00    +0.000 A 
ATOM     23  C   UNL     1       2.314   6.867  20.105  0.00  0.00    +0.000 A 
ATOM     24  C   UNL     1       2.974   6.771  18.871  0.00  0.00    +0.000 A 
ATOM     25  C   UNL     1       2.692   7.712  17.878  0.00  0.00    +0.000 A 
ATOM     26  C   UNL     1       1.831   8.778  18.133  0.00  0.00    +0.000 A 
BRANCH  24  27
ATOM     27  C   UNL     1       3.822   5.579  18.598  0.00  0.00    +0.000 C 
ATOM     28  O   UNL     1       5.034   5.703  18.775  0.00  0.00    +0.000 OA
ATOM     29  N   UNL     1       3.251   4.369  18.216  0.00  0.00    +0.000 N 
ATOM     30  C   UNL     1       4.053   3.147  18.299  0.00  0.00    +0.000 C 
ATOM     31  C   UNL     1       3.316   2.093  19.148  0.00  0.00    +0.000 C 
ATOM     32  N   UNL     1       1.949   1.810  18.661  0.00  0.00    +0.000 NA
ATOM     33  C   UNL     1       1.177   3.059  18.523  0.00  0.00    +0.000 C 
ATOM     34  C   UNL     1       1.906   4.126  17.679  0.00  0.00    +0.000 C 
ATOM     35  H   UNL     1       1.480   1.196  19.328  0.00  0.00    +0.000 HD
ENDBRANCH  24  27
ENDBRANCH   6  21
TORSDOF 5
ENDMDL
MODEL 8
REMARK VINA RESULT:      -8.4      1.725      2.378
REMARK  Name = 
REMARK  7 active torsions:
REMARK  status: ('A' for Active; 'I' for Inactive)
REMARK    1  A    between atoms: C_1  and  O_2
REMARK    2  A    between atoms: O_2  and  C_3
REMARK    3  A    between atoms: C_5  and  O_6
REMARK    4  A    between atoms: O_6  and  C_7
REMARK    5  A    between atoms: C_8  and  C_9
REMARK    6  A    between atoms: C_14  and  C_15
REMARK    7  A    between atoms: C_18  and  C_19
REMARK                            x       y       z     vdW  Elec       q    Type
REMARK                         _______ _______ _______ _____ _____    ______ ____
ROOT
ATOM      1  C   UNL     1      -2.562  12.840  22.126  0.00  0.00    +0.000 A 
ATOM      2  C   UNL     1      -2.112  12.078  23.183  0.00  0.00    +0.000 A 
ATOM      3  N   UNL     1      -1.234  11.169  22.654  0.00  0.00    +0.000 N 
ATOM      4  C   UNL     1      -0.506  10.173  23.294  0.00  0.00    +0.000 A 
ATOM      5  C   UNL     1       0.285   9.374  22.562  0.00  0.00    +0.000 A 
ATOM      6  C   UNL     1       0.344   9.555  21.107  0.00  0.00    +0.000 A 
ATOM      7  C   UNL     1      -0.361  10.543  20.505  0.00  0.00    +0.000 A 
ATOM      8  C   UNL     1      -1.186  11.402  21.289  0.00  0.00    +0.000 A 
ATOM      9  N   UNL     1      -1.974  12.403  20.951  0.00  0.00    +0.000 NA
ENDROOT
BRANCH   1  13
ATOM     10  C   UNL     1      -5.183  16.237  22.148  0.00  0.00    +0.000 A 
ATOM     11  C   UNL     1      -5.675  14.990  22.533  0.00  0.00    +0.000 A 
ATOM     12  C   UNL     1      -4.860  13.848  22.554  0.00  0.00    +0.000 A 
ATOM     13  C   UNL     1      -3.513  13.949  22.149  0.00  0.00    +0.000 A 
ATOM     14  C   UNL     1      -3.038  15.205  21.717  0.00  0.00    +0.000 A 
ATOM     15  C   UNL     1      -3.861  16.335  21.715  0.00  0.00    +0.000 A 
ATOM     16 CL   UNL     1      -3.191  17.840  21.197  0.00  0.00    +0.000 Cl
BRANCH  10  18
ATOM     17  C   UNL     1      -6.080  18.021  23.411  0.00  0.00    +0.000 C 
ATOM     18  O   UNL     1      -5.960  17.366  22.150  0.00  0.00    +0.000 OA
ENDBRANCH  10  18
BRANCH  12  19
ATOM     19  O   UNL     1      -5.335  12.642  23.004  0.00  0.00    +0.000 OA
ATOM     20  C   UNL     1      -6.485  12.651  23.845  0.00  0.00    +0.000 C 
ENDBRANCH  12  19
ENDBRANCH   1  13
BRANCH   6  21
ATOM     21  C   UNL     1       1.072   8.600  20.259  0.00  0.00    +0.000 A 
ATOM     22  C   UNL     1       1.486   8.923  18.963  0.00  0.00    +0.000 A 
ATOM     23  C   UNL     1       2.253   8.010  18.227  0.00  0.00    +0.000 A 
ATOM     24  C   UNL     1       2.622   6.777  18.785  0.00  0.00    +0.000 A 
ATOM     25  C   UNL     1       2.242   6.488  20.099  0.00  0.00    +0.000 A 
ATOM     26  C   UNL     1       1.440   7.374  20.817  0.00  0.00    +0.000 A 
BRANCH  24  27
ATOM     27  C   UNL     1       3.546   5.890  18.028  0.00  0.00    +0.000 C 
ATOM     28  O   UNL     1       4.689   6.306  17.840  0.00  0.00    +0.000 OA
ATOM     29  N   UNL     1       3.141   4.626  17.611  0.00  0.00    +0.000 N 
ATOM     30  C   UNL     1       4.156   3.657  17.193  0.00  0.00    +0.000 C 
ATOM     31  C   UNL     1       4.000   2.354  18.002  0.00  0.00    +0.000 C 
ATOM     32  N   UNL     1       2.640   1.781  17.920  0.00  0.00    +0.000 NA
ATOM     33  C   UNL     1       1.627   2.791  18.282  0.00  0.00    +0.000 C 
ATOM     34  C   UNL     1       1.775   4.103  17.483  0.00  0.00    +0.000 C 
ATOM     35  H   UNL     1       2.573   0.992  18.563  0.00  0.00    +0.000 HD
ENDBRANCH  24  27
ENDBRANCH   6  21
TORSDOF 5
ENDMDL
MODEL 9
REMARK VINA RESULT:      -8.4      2.172      2.977
REMARK  Name = 
REMARK  7 active torsions:
REMARK  status: ('A' for Active; 'I' for Inactive)
REMARK    1  A    between atoms: C_1  and  O_2
REMARK    2  A    between atoms: O_2  and  C_3
REMARK    3  A    between atoms: C_5  and  O_6
REMARK    4  A    between atoms: O_6  and  C_7
REMARK    5  A    between atoms: C_8  and  C_9
REMARK    6  A    between atoms: C_14  and  C_15
REMARK    7  A    between atoms: C_18  and  C_19
REMARK                            x       y       z     vdW  Elec       q    Type
REMARK                         _______ _______ _______ _____ _____    ______ ____
ROOT
ATOM      1  C   UNL     1      -2.670  12.658  21.791  0.00  0.00    +0.000 A 
ATOM      2  C   UNL     1      -2.258  11.949  22.900  0.00  0.00    +0.000 A 
ATOM      3  N   UNL     1      -1.297  11.076  22.462  0.00  0.00    +0.000 N 
ATOM      4  C   UNL     1      -0.567  10.138  23.182  0.00  0.00    +0.000 A 
ATOM      5  C   UNL     1       0.317   9.364  22.533  0.00  0.00    +0.000 A 
ATOM      6  C   UNL     1       0.472   9.511  21.081  0.00  0.00    +0.000 A 
ATOM      7  C   UNL     1      -0.237  10.444  20.401  0.00  0.00    +0.000 A 
ATOM      8  C   UNL     1      -1.162  11.277  21.097  0.00  0.00    +0.000 A 
ATOM      9  N   UNL     1      -1.974  12.224  20.675  0.00  0.00    +0.000 NA
ENDROOT
BRANCH   1  13
ATOM     10  C   UNL     1      -5.734  15.635  21.401  0.00  0.00    +0.000 A 
ATOM     11  C   UNL     1      -4.613  15.904  22.187  0.00  0.00    +0.000 A 
ATOM     12  C   UNL     1      -3.577  14.972  22.341  0.00  0.00    +0.000 A 
ATOM     13  C   UNL     1      -3.677  13.714  21.712  0.00  0.00    +0.000 A 
ATOM     14  C   UNL     1      -4.835  13.434  20.958  0.00  0.00    +0.000 A 
ATOM     15  C   UNL     1      -5.851  14.381  20.804  0.00  0.00    +0.000 A 
ATOM     16 CL   UNL     1      -7.224  13.965  19.841  0.00  0.00    +0.000 Cl
BRANCH  10  18
ATOM     17  C   UNL     1      -6.340  17.788  20.637  0.00  0.00    +0.000 C 
ATOM     18  O   UNL     1      -6.740  16.547  21.219  0.00  0.00    +0.000 OA
ENDBRANCH  10  18
BRANCH  12  19
ATOM     19  O   UNL     1      -2.446  15.275  23.056  0.00  0.00    +0.000 OA
ATOM     20  C   UNL     1      -2.562  15.380  24.472  0.00  0.00    +0.000 C 
ENDBRANCH  12  19
ENDBRANCH   1  13
BRANCH   6  21
ATOM     21  C   UNL     1       1.311   8.576  20.316  0.00  0.00    +0.000 A 
ATOM     22  C   UNL     1       1.697   7.334  20.829  0.00  0.00    +0.000 A 
ATOM     23  C   UNL     1       2.424   6.444  20.028  0.00  0.00    +0.000 A 
ATOM     24  C   UNL     1       2.756   6.782  18.708  0.00  0.00    +0.000 A 
ATOM     25  C   UNL     1       2.321   8.006  18.193  0.00  0.00    +0.000 A 
ATOM     26  C   UNL     1       1.639   8.914  19.001  0.00  0.00    +0.000 A 
BRANCH  24  27
ATOM     27  C   UNL     1       3.409   5.762  17.844  0.00  0.00    +0.000 C 
ATOM     28  O   UNL     1       4.525   6.037  17.402  0.00  0.00    +0.000 OA
ATOM     29  N   UNL     1       2.802   4.533  17.605  0.00  0.00    +0.000 N 
ATOM     30  C   UNL     1       3.606   3.437  17.060  0.00  0.00    +0.000 C 
ATOM     31  C   UNL     1       3.490   2.200  17.972  0.00  0.00    +0.000 C 
ATOM     32  N   UNL     1       2.092   1.781  18.204  0.00  0.00    +0.000 NA
ATOM     33  C   UNL     1       1.283   2.914  18.691  0.00  0.00    +0.000 C 
ATOM     34  C   UNL     1       1.394   4.162  17.790  0.00  0.00    +0.000 C 
ATOM     35  H   UNL     1       2.081   1.035  18.901  0.00  0.00    +0.000 HD
ENDBRANCH  24  27
ENDBRANCH   6  21
TORSDOF 5
ENDMDL
