MODEL 1
REMARK VINA RESULT:      -8.0      0.000      0.000
REMARK  Name = 
REMARK  5 active torsions:
REMARK  status: ('A' for Active; 'I' for Inactive)
REMARK    1  A    between atoms: C_1  and  C_2
REMARK    2  A    between atoms: C_7  and  O_8
REMARK    3  A    between atoms: C_13  and  O_14
REMARK    4  A    between atoms: C_15  and  C_16
REMARK    5  A    between atoms: C_15  and  C_17
REMARK                            x       y       z     vdW  Elec       q    Type
REMARK                         _______ _______ _______ _____ _____    ______ ____
ROOT
ATOM      1  C   UNL     1       0.949   8.635  21.666  0.00  0.00    +0.000 C 
ATOM      2  C   UNL     1       1.575   8.158  20.388  0.00  0.00    +0.000 A 
ATOM      3  C   UNL     1       2.108   6.869  20.315  0.00  0.00    +0.000 A 
ATOM      4  C   UNL     1       2.751   6.426  19.153  0.00  0.00    +0.000 A 
ATOM      5  C   UNL     1       2.861   7.286  18.035  0.00  0.00    +0.000 A 
ATOM      6  C   UNL     1       2.299   8.563  18.091  0.00  0.00    +0.000 A 
ATOM      7  C   UNL     1       1.674   8.991  19.267  0.00  0.00    +0.000 A 
ATOM      8  C   UNL     1       3.597   6.842  16.830  0.00  0.00    +0.000 C 
ATOM      9  C   UNL     1       4.818   6.269  16.924  0.00  0.00    +0.000 C 
ATOM     10  C   UNL     1       5.393   5.512  15.750  0.00  0.00    +0.000 C 
ATOM     11  C   UNL     1       6.914   5.339  15.714  0.00  0.00    +0.000 C 
ATOM     12  C   UNL     1       7.541   5.121  17.093  0.00  0.00    +0.000 C 
ATOM     13  C   UNL     1       7.113   6.211  18.107  0.00  0.00    +0.000 C 
ATOM     14  C   UNL     1       7.800   5.986  19.470  0.00  0.00    +0.000 C 
ATOM     15  C   UNL     1       7.602   7.597  17.594  0.00  0.00    +0.000 C 
ATOM     16  C   UNL     1       5.561   6.248  18.262  0.00  0.00    +0.000 C 
ATOM     17  C   UNL     1       4.944   5.206  19.238  0.00  0.00    +0.000 C 
ATOM     18  C   UNL     1       3.417   5.070  19.146  0.00  0.00    +0.000 C 
ENDROOT
BRANCH   7  19
ATOM     19  O   UNL     1       1.164  10.257  19.356  0.00  0.00    +0.000 OA
ATOM     20  H   UNL     1       0.205  10.215  19.221  0.00  0.00    +0.000 HD
ENDBRANCH   7  19
BRANCH  12  21
ATOM     21  O   UNL     1       7.239   3.806  17.556  0.00  0.00    +0.000 OA
ATOM     22  H   UNL     1       8.044   3.412  17.926  0.00  0.00    +0.000 HD
ENDBRANCH  12  21
TORSDOF 2
ENDMDL
MODEL 2
REMARK VINA RESULT:      -7.2      2.544      5.874
REMARK  Name = 
REMARK  5 active torsions:
REMARK  status: ('A' for Active; 'I' for Inactive)
REMARK    1  A    between atoms: C_1  and  C_2
REMARK    2  A    between atoms: C_7  and  O_8
REMARK    3  A    between atoms: C_13  and  O_14
REMARK    4  A    between atoms: C_15  and  C_16
REMARK    5  A    between atoms: C_15  and  C_17
REMARK                            x       y       z     vdW  Elec       q    Type
REMARK                         _______ _______ _______ _____ _____    ______ ____
ROOT
ATOM      1  C   UNL     1       7.768   7.507  17.243  0.00  0.00    +0.000 C 
ATOM      2  C   UNL     1       6.628   6.541  17.098  0.00  0.00    +0.000 A 
ATOM      3  C   UNL     1       5.344   6.916  17.499  0.00  0.00    +0.000 A 
ATOM      4  C   UNL     1       4.280   6.009  17.429  0.00  0.00    +0.000 A 
ATOM      5  C   UNL     1       4.499   4.699  16.943  0.00  0.00    +0.000 A 
ATOM      6  C   UNL     1       5.774   4.331  16.508  0.00  0.00    +0.000 A 
ATOM      7  C   UNL     1       6.826   5.247  16.601  0.00  0.00    +0.000 A 
ATOM      8  C   UNL     1       3.389   3.720  16.929  0.00  0.00    +0.000 C 
ATOM      9  C   UNL     1       2.598   3.540  18.011  0.00  0.00    +0.000 C 
ATOM     10  C   UNL     1       1.278   2.817  17.874  0.00  0.00    +0.000 C 
ATOM     11  C   UNL     1       0.689   2.202  19.146  0.00  0.00    +0.000 C 
ATOM     12  C   UNL     1       0.926   3.042  20.403  0.00  0.00    +0.000 C 
ATOM     13  C   UNL     1       2.419   3.411  20.584  0.00  0.00    +0.000 C 
ATOM     14  C   UNL     1       2.628   4.217  21.883  0.00  0.00    +0.000 C 
ATOM     15  C   UNL     1       3.246   2.102  20.745  0.00  0.00    +0.000 C 
ATOM     16  C   UNL     1       2.953   4.197  19.347  0.00  0.00    +0.000 C 
ATOM     17  C   UNL     1       2.658   5.724  19.325  0.00  0.00    +0.000 C 
ATOM     18  C   UNL     1       2.929   6.409  17.977  0.00  0.00    +0.000 C 
ENDROOT
BRANCH   7  19
ATOM     19  O   UNL     1       8.091   4.885  16.228  0.00  0.00    +0.000 OA
ATOM     20  H   UNL     1       8.695   5.062  16.965  0.00  0.00    +0.000 HD
ENDBRANCH   7  19
BRANCH  12  21
ATOM     21  O   UNL     1       0.086   4.196  20.375  0.00  0.00    +0.000 OA
ATOM     22  H   UNL     1       0.546   4.907  19.901  0.00  0.00    +0.000 HD
ENDBRANCH  12  21
TORSDOF 2
ENDMDL
MODEL 3
REMARK VINA RESULT:      -6.8      2.634      5.779
REMARK  Name = 
REMARK  5 active torsions:
REMARK  status: ('A' for Active; 'I' for Inactive)
REMARK    1  A    between atoms: C_1  and  C_2
REMARK    2  A    between atoms: C_7  and  O_8
REMARK    3  A    between atoms: C_13  and  O_14
REMARK    4  A    between atoms: C_15  and  C_16
REMARK    5  A    between atoms: C_15  and  C_17
REMARK                            x       y       z     vdW  Elec       q    Type
REMARK                         _______ _______ _______ _____ _____    ______ ____
ROOT
ATOM      1  C   UNL     1       7.583   8.551  17.618  0.00  0.00    +0.000 C 
ATOM      2  C   UNL     1       7.017   7.172  17.802  0.00  0.00    +0.000 A 
ATOM      3  C   UNL     1       5.833   6.816  17.154  0.00  0.00    +0.000 A 
ATOM      4  C   UNL     1       5.256   5.557  17.362  0.00  0.00    +0.000 A 
ATOM      5  C   UNL     1       5.877   4.630  18.231  0.00  0.00    +0.000 A 
ATOM      6  C   UNL     1       7.080   4.970  18.853  0.00  0.00    +0.000 A 
ATOM      7  C   UNL     1       7.631   6.238  18.644  0.00  0.00    +0.000 A 
ATOM      8  C   UNL     1       5.234   3.324  18.501  0.00  0.00    +0.000 C 
ATOM      9  C   UNL     1       3.922   3.239  18.814  0.00  0.00    +0.000 C 
ATOM     10  C   UNL     1       3.209   1.909  18.739  0.00  0.00    +0.000 C 
ATOM     11  C   UNL     1       1.928   1.760  19.564  0.00  0.00    +0.000 C 
ATOM     12  C   UNL     1       1.081   3.033  19.619  0.00  0.00    +0.000 C 
ATOM     13  C   UNL     1       1.908   4.266  20.062  0.00  0.00    +0.000 C 
ATOM     14  C   UNL     1       1.013   5.519  20.150  0.00  0.00    +0.000 C 
ATOM     15  C   UNL     1       2.454   4.017  21.498  0.00  0.00    +0.000 C 
ATOM     16  C   UNL     1       3.111   4.505  19.098  0.00  0.00    +0.000 C 
ATOM     17  C   UNL     1       2.796   5.283  17.789  0.00  0.00    +0.000 C 
ATOM     18  C   UNL     1       3.916   5.245  16.737  0.00  0.00    +0.000 C 
ENDROOT
BRANCH   7  19
ATOM     19  O   UNL     1       8.781   6.604  19.287  0.00  0.00    +0.000 OA
ATOM     20  H   UNL     1       8.917   6.011  20.043  0.00  0.00    +0.000 HD
ENDBRANCH   7  19
BRANCH  12  21
ATOM     21  O   UNL     1       0.441   3.239  18.360  0.00  0.00    +0.000 OA
ATOM     22  H   UNL     1      -0.011   2.420  18.101  0.00  0.00    +0.000 HD
ENDBRANCH  12  21
TORSDOF 2
ENDMDL
MODEL 4
REMARK VINA RESULT:      -6.5      2.744      5.906
REMARK  Name = 
REMARK  5 active torsions:
REMARK  status: ('A' for Active; 'I' for Inactive)
REMARK    1  A    between atoms: C_1  and  C_2
REMARK    2  A    between atoms: C_7  and  O_8
REMARK    3  A    between atoms: C_13  and  O_14
REMARK    4  A    between atoms: C_15  and  C_16
REMARK    5  A    between atoms: C_15  and  C_17
REMARK                            x       y       z     vdW  Elec       q    Type
REMARK                         _______ _______ _______ _____ _____    ______ ____
ROOT
ATOM      1  C   UNL     1       7.306   5.115  14.712  0.00  0.00    +0.000 C 
ATOM      2  C   UNL     1       6.353   5.428  15.829  0.00  0.00    +0.000 A 
ATOM      3  C   UNL     1       6.499   4.795  17.065  0.00  0.00    +0.000 A 
ATOM      4  C   UNL     1       5.584   5.026  18.099  0.00  0.00    +0.000 A 
ATOM      5  C   UNL     1       4.501   5.914  17.898  0.00  0.00    +0.000 A 
ATOM      6  C   UNL     1       4.371   6.576  16.675  0.00  0.00    +0.000 A 
ATOM      7  C   UNL     1       5.288   6.319  15.651  0.00  0.00    +0.000 A 
ATOM      8  C   UNL     1       3.497   6.110  18.969  0.00  0.00    +0.000 C 
ATOM      9  C   UNL     1       2.944   5.058  19.613  0.00  0.00    +0.000 C 
ATOM     10  C   UNL     1       2.206   5.269  20.915  0.00  0.00    +0.000 C 
ATOM     11  C   UNL     1       1.195   4.194  21.322  0.00  0.00    +0.000 C 
ATOM     12  C   UNL     1       1.629   2.772  20.958  0.00  0.00    +0.000 C 
ATOM     13  C   UNL     1       2.029   2.648  19.467  0.00  0.00    +0.000 C 
ATOM     14  C   UNL     1       2.416   1.194  19.126  0.00  0.00    +0.000 C 
ATOM     15  C   UNL     1       0.794   2.990  18.584  0.00  0.00    +0.000 C 
ATOM     16  C   UNL     1       3.188   3.631  19.117  0.00  0.00    +0.000 C 
ATOM     17  C   UNL     1       4.625   3.148  19.463  0.00  0.00    +0.000 C 
ATOM     18  C   UNL     1       5.703   4.239  19.383  0.00  0.00    +0.000 C 
ENDROOT
BRANCH   7  19
ATOM     19  O   UNL     1       5.144   6.920  14.431  0.00  0.00    +0.000 OA
ATOM     20  H   UNL     1       4.629   7.733  14.545  0.00  0.00    +0.000 HD
ENDBRANCH   7  19
BRANCH  12  21
ATOM     21  O   UNL     1       2.676   2.351  21.833  0.00  0.00    +0.000 OA
ATOM     22  H   UNL     1       2.835   3.048  22.488  0.00  0.00    +0.000 HD
ENDBRANCH  12  21
TORSDOF 2
ENDMDL
MODEL 5
REMARK VINA RESULT:      -6.2      6.928      8.622
REMARK  Name = 
REMARK  5 active torsions:
REMARK  status: ('A' for Active; 'I' for Inactive)
REMARK    1  A    between atoms: C_1  and  C_2
REMARK    2  A    between atoms: C_7  and  O_8
REMARK    3  A    between atoms: C_13  and  O_14
REMARK    4  A    between atoms: C_15  and  C_16
REMARK    5  A    between atoms: C_15  and  C_17
REMARK                            x       y       z     vdW  Elec       q    Type
REMARK                         _______ _______ _______ _____ _____    ______ ____
ROOT
ATOM      1  C   UNL     1       5.554  13.666  24.440  0.00  0.00    +0.000 C 
ATOM      2  C   UNL     1       6.820  13.285  23.727  0.00  0.00    +0.000 A 
ATOM      3  C   UNL     1       7.393  14.169  22.811  0.00  0.00    +0.000 A 
ATOM      4  C   UNL     1       8.538  13.807  22.091  0.00  0.00    +0.000 A 
ATOM      5  C   UNL     1       9.129  12.538  22.294  0.00  0.00    +0.000 A 
ATOM      6  C   UNL     1       8.579  11.665  23.235  0.00  0.00    +0.000 A 
ATOM      7  C   UNL     1       7.426  12.040  23.932  0.00  0.00    +0.000 A 
ATOM      8  C   UNL     1      10.302  12.130  21.487  0.00  0.00    +0.000 C 
ATOM      9  C   UNL     1      10.320  12.290  20.144  0.00  0.00    +0.000 C 
ATOM     10  C   UNL     1      11.625  12.206  19.388  0.00  0.00    +0.000 C 
ATOM     11  C   UNL     1      11.542  11.882  17.894  0.00  0.00    +0.000 C 
ATOM     12  C   UNL     1      10.339  12.518  17.193  0.00  0.00    +0.000 C 
ATOM     13  C   UNL     1       9.008  12.207  17.921  0.00  0.00    +0.000 C 
ATOM     14  C   UNL     1       7.814  12.824  17.162  0.00  0.00    +0.000 C 
ATOM     15  C   UNL     1       8.779  10.668  17.918  0.00  0.00    +0.000 C 
ATOM     16  C   UNL     1       9.051  12.709  19.398  0.00  0.00    +0.000 C 
ATOM     17  C   UNL     1       8.732  14.214  19.620  0.00  0.00    +0.000 C 
ATOM     18  C   UNL     1       9.067  14.739  21.025  0.00  0.00    +0.000 C 
ENDROOT
BRANCH   7  19
ATOM     19  O   UNL     1       6.846  11.176  24.819  0.00  0.00    +0.000 OA
ATOM     20  H   UNL     1       6.794  11.609  25.685  0.00  0.00    +0.000 HD
ENDBRANCH   7  19
BRANCH  12  21
ATOM     21  O   UNL     1      10.556  13.921  17.044  0.00  0.00    +0.000 OA
ATOM     22  H   UNL     1      10.996  14.256  17.842  0.00  0.00    +0.000 HD
ENDBRANCH  12  21
TORSDOF 2
ENDMDL
MODEL 6
REMARK VINA RESULT:      -6.2      2.522      3.741
REMARK  Name = 
REMARK  5 active torsions:
REMARK  status: ('A' for Active; 'I' for Inactive)
REMARK    1  A    between atoms: C_1  and  C_2
REMARK    2  A    between atoms: C_7  and  O_8
REMARK    3  A    between atoms: C_13  and  O_14
REMARK    4  A    between atoms: C_15  and  C_16
REMARK    5  A    between atoms: C_15  and  C_17
REMARK                            x       y       z     vdW  Elec       q    Type
REMARK                         _______ _______ _______ _____ _____    ______ ____
ROOT
ATOM      1  C   UNL     1       0.968   1.350  18.990  0.00  0.00    +0.000 C 
ATOM      2  C   UNL     1       1.572   2.697  18.718  0.00  0.00    +0.000 A 
ATOM      3  C   UNL     1       2.355   2.890  17.578  0.00  0.00    +0.000 A 
ATOM      4  C   UNL     1       2.977   4.121  17.338  0.00  0.00    +0.000 A 
ATOM      5  C   UNL     1       2.810   5.187  18.253  0.00  0.00    +0.000 A 
ATOM      6  C   UNL     1       1.999   5.009  19.376  0.00  0.00    +0.000 A 
ATOM      7  C   UNL     1       1.399   3.766  19.604  0.00  0.00    +0.000 A 
ATOM      8  C   UNL     1       3.519   6.468  18.034  0.00  0.00    +0.000 C 
ATOM      9  C   UNL     1       4.836   6.499  17.733  0.00  0.00    +0.000 C 
ATOM     10  C   UNL     1       5.457   7.757  17.172  0.00  0.00    +0.000 C 
ATOM     11  C   UNL     1       6.971   7.914  17.331  0.00  0.00    +0.000 C 
ATOM     12  C   UNL     1       7.744   6.600  17.188  0.00  0.00    +0.000 C 
ATOM     13  C   UNL     1       7.183   5.491  18.112  0.00  0.00    +0.000 C 
ATOM     14  C   UNL     1       8.014   4.197  17.976  0.00  0.00    +0.000 C 
ATOM     15  C   UNL     1       7.326   5.947  19.593  0.00  0.00    +0.000 C 
ATOM     16  C   UNL     1       5.677   5.222  17.808  0.00  0.00    +0.000 C 
ATOM     17  C   UNL     1       5.377   4.273  16.614  0.00  0.00    +0.000 C 
ATOM     18  C   UNL     1       3.910   4.262  16.158  0.00  0.00    +0.000 C 
ENDROOT
BRANCH   7  19
ATOM     19  O   UNL     1       0.644   3.561  20.726  0.00  0.00    +0.000 OA
ATOM     20  H   UNL     1      -0.290   3.690  20.500  0.00  0.00    +0.000 HD
ENDBRANCH   7  19
BRANCH  12  21
ATOM     21  O   UNL     1       7.764   6.201  15.818  0.00  0.00    +0.000 OA
ATOM     22  H   UNL     1       6.872   6.299  15.451  0.00  0.00    +0.000 HD
ENDBRANCH  12  21
TORSDOF 2
ENDMDL
MODEL 7
REMARK VINA RESULT:      -6.1      7.562      8.992
REMARK  Name = 
REMARK  5 active torsions:
REMARK  status: ('A' for Active; 'I' for Inactive)
REMARK    1  A    between atoms: C_1  and  C_2
REMARK    2  A    between atoms: C_7  and  O_8
REMARK    3  A    between atoms: C_13  and  O_14
REMARK    4  A    between atoms: C_15  and  C_16
REMARK    5  A    between atoms: C_15  and  C_17
REMARK                            x       y       z     vdW  Elec       q    Type
REMARK                         _______ _______ _______ _____ _____    ______ ____
ROOT
ATOM      1  C   UNL     1       5.848  14.588  24.602  0.00  0.00    +0.000 C 
ATOM      2  C   UNL     1       6.871  13.829  23.807  0.00  0.00    +0.000 A 
ATOM      3  C   UNL     1       8.000  14.489  23.319  0.00  0.00    +0.000 A 
ATOM      4  C   UNL     1       8.934  13.814  22.524  0.00  0.00    +0.000 A 
ATOM      5  C   UNL     1       8.741  12.448  22.213  0.00  0.00    +0.000 A 
ATOM      6  C   UNL     1       7.631  11.775  22.728  0.00  0.00    +0.000 A 
ATOM      7  C   UNL     1       6.702  12.472  23.508  0.00  0.00    +0.000 A 
ATOM      8  C   UNL     1       9.694  11.751  21.319  0.00  0.00    +0.000 C 
ATOM      9  C   UNL     1      10.090  12.301  20.149  0.00  0.00    +0.000 C 
ATOM     10  C   UNL     1      11.305  11.762  19.431  0.00  0.00    +0.000 C 
ATOM     11  C   UNL     1      11.407  12.046  17.931  0.00  0.00    +0.000 C 
ATOM     12  C   UNL     1      10.883  13.427  17.529  0.00  0.00    +0.000 C 
ATOM     13  C   UNL     1       9.453  13.686  18.065  0.00  0.00    +0.000 C 
ATOM     14  C   UNL     1       8.939  15.065  17.603  0.00  0.00    +0.000 C 
ATOM     15  C   UNL     1       8.486  12.632  17.451  0.00  0.00    +0.000 C 
ATOM     16  C   UNL     1       9.410  13.566  19.620  0.00  0.00    +0.000 C 
ATOM     17  C   UNL     1       9.854  14.825  20.417  0.00  0.00    +0.000 C 
ATOM     18  C   UNL     1      10.084  14.584  21.917  0.00  0.00    +0.000 C 
ENDROOT
BRANCH   7  19
ATOM     19  O   UNL     1       5.584  11.840  23.976  0.00  0.00    +0.000 OA
ATOM     20  H   UNL     1       5.838  10.966  24.310  0.00  0.00    +0.000 HD
ENDBRANCH   7  19
BRANCH  12  21
ATOM     21  O   UNL     1      11.805  14.432  17.949  0.00  0.00    +0.000 OA
ATOM     22  H   UNL     1      11.921  14.369  18.910  0.00  0.00    +0.000 HD
ENDBRANCH  12  21
TORSDOF 2
ENDMDL
MODEL 8
REMARK VINA RESULT:      -6.0      3.273      3.973
REMARK  Name = 
REMARK  5 active torsions:
REMARK  status: ('A' for Active; 'I' for Inactive)
REMARK    1  A    between atoms: C_1  and  C_2
REMARK    2  A    between atoms: C_7  and  O_8
REMARK    3  A    between atoms: C_13  and  O_14
REMARK    4  A    between atoms: C_15  and  C_16
REMARK    5  A    between atoms: C_15  and  C_17
REMARK                            x       y       z     vdW  Elec       q    Type
REMARK                         _______ _______ _______ _____ _____    ______ ____
ROOT
ATOM      1  C   UNL     1       1.160   2.825  21.966  0.00  0.00    +0.000 C 
ATOM      2  C   UNL     1       1.828   2.786  20.622  0.00  0.00    +0.000 A 
ATOM      3  C   UNL     1       3.221   2.833  20.538  0.00  0.00    +0.000 A 
ATOM      4  C   UNL     1       3.860   2.860  19.293  0.00  0.00    +0.000 A 
ATOM      5  C   UNL     1       3.094   2.833  18.104  0.00  0.00    +0.000 A 
ATOM      6  C   UNL     1       1.702   2.750  18.184  0.00  0.00    +0.000 A 
ATOM      7  C   UNL     1       1.083   2.740  19.438  0.00  0.00    +0.000 A 
ATOM      8  C   UNL     1       3.767   2.927  16.788  0.00  0.00    +0.000 C 
ATOM      9  C   UNL     1       4.712   3.863  16.548  0.00  0.00    +0.000 C 
ATOM     10  C   UNL     1       5.626   3.728  15.352  0.00  0.00    +0.000 C 
ATOM     11  C   UNL     1       6.295   5.007  14.843  0.00  0.00    +0.000 C 
ATOM     12  C   UNL     1       6.699   5.976  15.956  0.00  0.00    +0.000 C 
ATOM     13  C   UNL     1       5.522   6.288  16.913  0.00  0.00    +0.000 C 
ATOM     14  C   UNL     1       5.952   7.301  17.994  0.00  0.00    +0.000 C 
ATOM     15  C   UNL     1       4.381   6.970  16.104  0.00  0.00    +0.000 C 
ATOM     16  C   UNL     1       4.969   4.980  17.561  0.00  0.00    +0.000 C 
ATOM     17  C   UNL     1       5.740   4.453  18.805  0.00  0.00    +0.000 C 
ATOM     18  C   UNL     1       5.361   3.028  19.235  0.00  0.00    +0.000 C 
ENDROOT
BRANCH   7  19
ATOM     19  O   UNL     1      -0.281   2.711  19.532  0.00  0.00    +0.000 OA
ATOM     20  H   UNL     1      -0.548   3.202  20.325  0.00  0.00    +0.000 HD
ENDBRANCH   7  19
BRANCH  12  21
ATOM     21  O   UNL     1       7.835   5.463  16.651  0.00  0.00    +0.000 OA
ATOM     22  H   UNL     1       7.972   4.539  16.387  0.00  0.00    +0.000 HD
ENDBRANCH  12  21
TORSDOF 2
ENDMDL
MODEL 9
REMARK VINA RESULT:      -6.0      6.582      8.242
REMARK  Name = 
REMARK  5 active torsions:
REMARK  status: ('A' for Active; 'I' for Inactive)
REMARK    1  A    between atoms: C_1  and  C_2
REMARK    2  A    between atoms: C_7  and  O_8
REMARK    3  A    between atoms: C_13  and  O_14
REMARK    4  A    between atoms: C_15  and  C_16
REMARK    5  A    between atoms: C_15  and  C_17
REMARK                            x       y       z     vdW  Elec       q    Type
REMARK                         _______ _______ _______ _____ _____    ______ ____
ROOT
ATOM      1  C   UNL     1       3.125  14.979  18.511  0.00  0.00    +0.000 C 
ATOM      2  C   UNL     1       4.579  15.019  18.883  0.00  0.00    +0.000 A 
ATOM      3  C   UNL     1       5.549  14.712  17.926  0.00  0.00    +0.000 A 
ATOM      4  C   UNL     1       6.906  14.684  18.269  0.00  0.00    +0.000 A 
ATOM      5  C   UNL     1       7.307  14.974  19.594  0.00  0.00    +0.000 A 
ATOM      6  C   UNL     1       6.343  15.316  20.545  0.00  0.00    +0.000 A 
ATOM      7  C   UNL     1       4.991  15.324  20.185  0.00  0.00    +0.000 A 
ATOM      8  C   UNL     1       8.735  14.882  19.972  0.00  0.00    +0.000 C 
ATOM      9  C   UNL     1       9.483  13.808  19.631  0.00  0.00    +0.000 C 
ATOM     10  C   UNL     1      10.991  13.880  19.707  0.00  0.00    +0.000 C 
ATOM     11  C   UNL     1      11.744  12.552  19.814  0.00  0.00    +0.000 C 
ATOM     12  C   UNL     1      11.113  11.419  19.001  0.00  0.00    +0.000 C 
ATOM     13  C   UNL     1       9.605  11.249  19.310  0.00  0.00    +0.000 C 
ATOM     14  C   UNL     1       9.014  10.071  18.508  0.00  0.00    +0.000 C 
ATOM     15  C   UNL     1       9.437  10.882  20.813  0.00  0.00    +0.000 C 
ATOM     16  C   UNL     1       8.825  12.569  19.021  0.00  0.00    +0.000 C 
ATOM     17  C   UNL     1       8.416  12.813  17.541  0.00  0.00    +0.000 C 
ATOM     18  C   UNL     1       7.920  14.236  17.241  0.00  0.00    +0.000 C 
ENDROOT
BRANCH   7  19
ATOM     19  O   UNL     1       4.032  15.606  21.118  0.00  0.00    +0.000 OA
ATOM     20  H   UNL     1       3.315  16.096  20.687  0.00  0.00    +0.000 HD
ENDBRANCH   7  19
BRANCH  12  21
ATOM     21  O   UNL     1      11.357  11.632  17.611  0.00  0.00    +0.000 OA
ATOM     22  H   UNL     1      12.028  12.327  17.514  0.00  0.00    +0.000 HD
ENDBRANCH  12  21
TORSDOF 2
ENDMDL
