MODEL 1
REMARK VINA RESULT:      -8.3      0.000      0.000
REMARK  Name = 
REMARK  9 active torsions:
REMARK  status: ('A' for Active; 'I' for Inactive)
REMARK    1  A    between atoms: C_1  and  C_2
REMARK    2  A    between atoms: C_2  and  C_3
REMARK    3  A    between atoms: C_4  and  C_5
REMARK    4  A    between atoms: C_5  and  O_6
REMARK    5  A    between atoms: O_6  and  C_7
REMARK    6  A    between atoms: C_10  and  C_11
REMARK    7  A    between atoms: C_14  and  C_15
REMARK    8  A    between atoms: C_18  and  C_19
REMARK    9  A    between atoms: C_19  and  N_20
REMARK                            x       y       z     vdW  Elec       q    Type
REMARK                         _______ _______ _______ _____ _____    ______ ____
ROOT
ATOM      1  C   UNL     1       3.363   5.642  18.600  0.00  0.00    +0.000 A 
ATOM      2  C   UNL     1       2.781   4.926  19.620  0.00  0.00    +0.000 A 
ATOM      3  N   UNL     1       2.019   5.748  20.403  0.00  0.00    +0.000 NA
ATOM      4  C   UNL     1       2.145   6.933  19.828  0.00  0.00    +0.000 A 
ATOM      5  O   UNL     1       2.951   6.940  18.720  0.00  0.00    +0.000 OA
ENDROOT
BRANCH   1   9
ATOM      6  C   UNL     1       6.042   4.747  15.404  0.00  0.00    +0.000 A 
ATOM      7  C   UNL     1       5.548   6.039  15.581  0.00  0.00    +0.000 A 
ATOM      8  C   UNL     1       4.675   6.317  16.628  0.00  0.00    +0.000 A 
ATOM      9  C   UNL     1       4.244   5.303  17.495  0.00  0.00    +0.000 A 
ATOM     10  C   UNL     1       4.688   3.993  17.264  0.00  0.00    +0.000 A 
ATOM     11  C   UNL     1       5.579   3.716  16.220  0.00  0.00    +0.000 A 
BRANCH   6  12
ATOM     12  O   UNL     1       6.991   4.409  14.474  0.00  0.00    +0.000 OA
BRANCH  12  13
ATOM     13  C   UNL     1       6.548   4.566  13.123  0.00  0.00    +0.000 C 
BRANCH  13  17
ATOM     14  C   UNL     1       5.927   1.287  11.118  0.00  0.00    +0.000 C 
ATOM     15  C   UNL     1       5.687   2.640  11.728  0.00  0.00    +0.000 C 
ATOM     16  C   UNL     1       4.325   3.248  11.534  0.00  0.00    +0.000 C 
ATOM     17  C   UNL     1       6.675   3.257  12.410  0.00  0.00    +0.000 C 
ENDBRANCH  13  17
ENDBRANCH  12  13
ENDBRANCH   6  12
ENDBRANCH   1   9
BRANCH   4  18
ATOM     18  C   UNL     1       1.551   8.199  20.246  0.00  0.00    +0.000 A 
ATOM     19  C   UNL     1       1.319   9.181  19.285  0.00  0.00    +0.000 A 
ATOM     20  C   UNL     1       0.776  10.394  19.682  0.00  0.00    +0.000 A 
ATOM     21  C   UNL     1       0.483  10.607  21.030  0.00  0.00    +0.000 A 
ATOM     22  C   UNL     1       0.740   9.567  21.919  0.00  0.00    +0.000 A 
ATOM     23  N   UNL     1       1.258   8.368  21.560  0.00  0.00    +0.000 NA
BRANCH  21  24
ATOM     24  C   UNL     1      -0.104  11.910  21.498  0.00  0.00    +0.000 C 
BRANCH  24  25
ATOM     25  N   UNL     1      -1.568  11.880  21.708  0.00  0.00    +0.000 NA
ATOM     26  C   UNL     1      -1.894  12.109  23.128  0.00  0.00    +0.000 C 
ATOM     27  C   UNL     1      -3.379  12.366  23.395  0.00  0.00    +0.000 C 
ATOM     28  C   UNL     1      -3.900  13.491  22.516  0.00  0.00    +0.000 C 
ATOM     29  C   UNL     1      -3.663  13.127  21.060  0.00  0.00    +0.000 C 
ATOM     30  C   UNL     1      -2.179  12.869  20.803  0.00  0.00    +0.000 C 
ENDBRANCH  24  25
ENDBRANCH  21  24
ENDBRANCH   4  18
TORSDOF 7
ENDMDL
MODEL 2
REMARK VINA RESULT:      -8.3      1.130      1.615
REMARK  Name = 
REMARK  9 active torsions:
REMARK  status: ('A' for Active; 'I' for Inactive)
REMARK    1  A    between atoms: C_1  and  C_2
REMARK    2  A    between atoms: C_2  and  C_3
REMARK    3  A    between atoms: C_4  and  C_5
REMARK    4  A    between atoms: C_5  and  O_6
REMARK    5  A    between atoms: O_6  and  C_7
REMARK    6  A    between atoms: C_10  and  C_11
REMARK    7  A    between atoms: C_14  and  C_15
REMARK    8  A    between atoms: C_18  and  C_19
REMARK    9  A    between atoms: C_19  and  N_20
REMARK                            x       y       z     vdW  Elec       q    Type
REMARK                         _______ _______ _______ _____ _____    ______ ____
ROOT
ATOM      1  C   UNL     1       3.171   6.277  18.692  0.00  0.00    +0.000 A 
ATOM      2  C   UNL     1       2.717   5.645  19.826  0.00  0.00    +0.000 A 
ATOM      3  N   UNL     1       1.932   6.490  20.560  0.00  0.00    +0.000 NA
ATOM      4  C   UNL     1       1.917   7.604  19.844  0.00  0.00    +0.000 A 
ATOM      5  O   UNL     1       2.652   7.542  18.689  0.00  0.00    +0.000 OA
ENDROOT
BRANCH   1   9
ATOM      6  C   UNL     1       5.734   5.216  15.452  0.00  0.00    +0.000 A 
ATOM      7  C   UNL     1       5.235   6.513  15.572  0.00  0.00    +0.000 A 
ATOM      8  C   UNL     1       4.401   6.845  16.635  0.00  0.00    +0.000 A 
ATOM      9  C   UNL     1       4.012   5.881  17.575  0.00  0.00    +0.000 A 
ATOM     10  C   UNL     1       4.458   4.562  17.403  0.00  0.00    +0.000 A 
ATOM     11  C   UNL     1       5.311   4.231  16.343  0.00  0.00    +0.000 A 
BRANCH   6  12
ATOM     12  O   UNL     1       6.650   4.831  14.507  0.00  0.00    +0.000 OA
BRANCH  12  13
ATOM     13  C   UNL     1       6.315   3.603  13.854  0.00  0.00    +0.000 C 
BRANCH  13  17
ATOM     14  C   UNL     1       3.825   3.507  10.863  0.00  0.00    +0.000 C 
ATOM     15  C   UNL     1       4.935   3.105  11.793  0.00  0.00    +0.000 C 
ATOM     16  C   UNL     1       5.708   1.863  11.444  0.00  0.00    +0.000 C 
ATOM     17  C   UNL     1       5.199   3.848  12.889  0.00  0.00    +0.000 C 
ENDBRANCH  13  17
ENDBRANCH  12  13
ENDBRANCH   6  12
ENDBRANCH   1   9
BRANCH   4  18
ATOM     18  C   UNL     1       1.237   8.858  20.153  0.00  0.00    +0.000 A 
ATOM     19  C   UNL     1       0.994   9.178  21.486  0.00  0.00    +0.000 A 
ATOM     20  C   UNL     1       0.328  10.358  21.783  0.00  0.00    +0.000 A 
ATOM     21  C   UNL     1      -0.090  11.191  20.743  0.00  0.00    +0.000 A 
ATOM     22  C   UNL     1       0.204  10.795  19.442  0.00  0.00    +0.000 A 
ATOM     23  N   UNL     1       0.863   9.656  19.122  0.00  0.00    +0.000 NA
BRANCH  21  24
ATOM     24  C   UNL     1      -0.816  12.476  21.026  0.00  0.00    +0.000 C 
BRANCH  24  25
ATOM     25  N   UNL     1      -1.286  12.619  22.422  0.00  0.00    +0.000 NA
ATOM     26  C   UNL     1      -1.056  13.993  22.910  0.00  0.00    +0.000 C 
ATOM     27  C   UNL     1      -1.751  14.309  24.235  0.00  0.00    +0.000 C 
ATOM     28  C   UNL     1      -3.234  13.986  24.160  0.00  0.00    +0.000 C 
ATOM     29  C   UNL     1      -3.400  12.520  23.794  0.00  0.00    +0.000 C 
ATOM     30  C   UNL     1      -2.701  12.212  22.471  0.00  0.00    +0.000 C 
ENDBRANCH  24  25
ENDBRANCH  21  24
ENDBRANCH   4  18
TORSDOF 7
ENDMDL
MODEL 3
REMARK VINA RESULT:      -7.8      1.175      1.682
REMARK  Name = 
REMARK  9 active torsions:
REMARK  status: ('A' for Active; 'I' for Inactive)
REMARK    1  A    between atoms: C_1  and  C_2
REMARK    2  A    between atoms: C_2  and  C_3
REMARK    3  A    between atoms: C_4  and  C_5
REMARK    4  A    between atoms: C_5  and  O_6
REMARK    5  A    between atoms: O_6  and  C_7
REMARK    6  A    between atoms: C_10  and  C_11
REMARK    7  A    between atoms: C_14  and  C_15
REMARK    8  A    between atoms: C_18  and  C_19
REMARK    9  A    between atoms: C_19  and  N_20
REMARK                            x       y       z     vdW  Elec       q    Type
REMARK                         _______ _______ _______ _____ _____    ______ ____
ROOT
ATOM      1  C   UNL     1       2.926   6.598  19.180  0.00  0.00    +0.000 A 
ATOM      2  C   UNL     1       2.300   5.828  20.133  0.00  0.00    +0.000 A 
ATOM      3  N   UNL     1       1.413   6.584  20.847  0.00  0.00    +0.000 NA
ATOM      4  C   UNL     1       1.511   7.784  20.298  0.00  0.00    +0.000 A 
ATOM      5  O   UNL     1       2.416   7.863  19.272  0.00  0.00    +0.000 OA
ENDROOT
BRANCH   1   9
ATOM      6  C   UNL     1       5.820   5.702  16.178  0.00  0.00    +0.000 A 
ATOM      7  C   UNL     1       5.747   4.945  17.348  0.00  0.00    +0.000 A 
ATOM      8  C   UNL     1       4.797   5.249  18.318  0.00  0.00    +0.000 A 
ATOM      9  C   UNL     1       3.930   6.338  18.161  0.00  0.00    +0.000 A 
ATOM     10  C   UNL     1       4.060   7.137  17.017  0.00  0.00    +0.000 A 
ATOM     11  C   UNL     1       5.005   6.823  16.032  0.00  0.00    +0.000 A 
BRANCH   6  12
ATOM     12  O   UNL     1       6.643   5.404  15.123  0.00  0.00    +0.000 OA
BRANCH  12  13
ATOM     13  C   UNL     1       6.641   4.018  14.769  0.00  0.00    +0.000 C 
BRANCH  13  17
ATOM     14  C   UNL     1       4.451   3.404  11.609  0.00  0.00    +0.000 C 
ATOM     15  C   UNL     1       5.666   3.584  12.476  0.00  0.00    +0.000 C 
ATOM     16  C   UNL     1       7.006   3.553  11.793  0.00  0.00    +0.000 C 
ATOM     17  C   UNL     1       5.526   3.759  13.807  0.00  0.00    +0.000 C 
ENDBRANCH  13  17
ENDBRANCH  12  13
ENDBRANCH   6  12
ENDBRANCH   1   9
BRANCH   4  18
ATOM     18  C   UNL     1       0.793   9.000  20.669  0.00  0.00    +0.000 A 
ATOM     19  C   UNL     1       0.153   9.732  19.671  0.00  0.00    +0.000 A 
ATOM     20  C   UNL     1      -0.510  10.900  20.016  0.00  0.00    +0.000 A 
ATOM     21  C   UNL     1      -0.515  11.320  21.348  0.00  0.00    +0.000 A 
ATOM     22  C   UNL     1       0.143  10.521  22.278  0.00  0.00    +0.000 A 
ATOM     23  N   UNL     1       0.789   9.370  21.974  0.00  0.00    +0.000 NA
BRANCH  21  24
ATOM     24  C   UNL     1      -1.221  12.581  21.759  0.00  0.00    +0.000 C 
BRANCH  24  25
ATOM     25  N   UNL     1      -2.635  12.390  22.151  0.00  0.00    +0.000 NA
ATOM     26  C   UNL     1      -2.764  12.333  23.620  0.00  0.00    +0.000 C 
ATOM     27  C   UNL     1      -4.206  12.411  24.124  0.00  0.00    +0.000 C 
ATOM     28  C   UNL     1      -4.914  13.628  23.552  0.00  0.00    +0.000 C 
ATOM     29  C   UNL     1      -4.871  13.552  22.034  0.00  0.00    +0.000 C 
ATOM     30  C   UNL     1      -3.428  13.471  21.539  0.00  0.00    +0.000 C 
ENDBRANCH  24  25
ENDBRANCH  21  24
ENDBRANCH   4  18
TORSDOF 7
ENDMDL
MODEL 4
REMARK VINA RESULT:      -7.7      1.743      2.415
REMARK  Name = 
REMARK  9 active torsions:
REMARK  status: ('A' for Active; 'I' for Inactive)
REMARK    1  A    between atoms: C_1  and  C_2
REMARK    2  A    between atoms: C_2  and  C_3
REMARK    3  A    between atoms: C_4  and  C_5
REMARK    4  A    between atoms: C_5  and  O_6
REMARK    5  A    between atoms: O_6  and  C_7
REMARK    6  A    between atoms: C_10  and  C_11
REMARK    7  A    between atoms: C_14  and  C_15
REMARK    8  A    between atoms: C_18  and  C_19
REMARK    9  A    between atoms: C_19  and  N_20
REMARK                            x       y       z     vdW  Elec       q    Type
REMARK                         _______ _______ _______ _____ _____    ______ ____
ROOT
ATOM      1  C   UNL     1       2.731   6.142  19.155  0.00  0.00    +0.000 A 
ATOM      2  C   UNL     1       2.193   5.520  20.258  0.00  0.00    +0.000 A 
ATOM      3  N   UNL     1       1.483   6.415  21.009  0.00  0.00    +0.000 NA
ATOM      4  C   UNL     1       1.595   7.548  20.335  0.00  0.00    +0.000 A 
ATOM      5  O   UNL     1       2.343   7.452  19.191  0.00  0.00    +0.000 OA
ENDROOT
BRANCH   1   9
ATOM      6  C   UNL     1       5.249   4.906  15.943  0.00  0.00    +0.000 A 
ATOM      7  C   UNL     1       5.149   6.252  16.294  0.00  0.00    +0.000 A 
ATOM      8  C   UNL     1       4.324   6.641  17.345  0.00  0.00    +0.000 A 
ATOM      9  C   UNL     1       3.550   5.701  18.039  0.00  0.00    +0.000 A 
ATOM     10  C   UNL     1       3.601   4.360  17.630  0.00  0.00    +0.000 A 
ATOM     11  C   UNL     1       4.443   3.967  16.583  0.00  0.00    +0.000 A 
BRANCH   6  12
ATOM     12  O   UNL     1       6.120   4.422  15.001  0.00  0.00    +0.000 OA
BRANCH  12  13
ATOM     13  C   UNL     1       5.606   4.473  13.667  0.00  0.00    +0.000 C 
BRANCH  13  17
ATOM     14  C   UNL     1       6.366   1.604  11.147  0.00  0.00    +0.000 C 
ATOM     15  C   UNL     1       5.647   2.733  11.832  0.00  0.00    +0.000 C 
ATOM     16  C   UNL     1       4.277   3.083  11.320  0.00  0.00    +0.000 C 
ATOM     17  C   UNL     1       6.235   3.385  12.856  0.00  0.00    +0.000 C 
ENDBRANCH  13  17
ENDBRANCH  12  13
ENDBRANCH   6  12
ENDBRANCH   1   9
BRANCH   4  18
ATOM     18  C   UNL     1       1.039   8.853  20.678  0.00  0.00    +0.000 A 
ATOM     19  C   UNL     1       0.512   9.044  21.953  0.00  0.00    +0.000 A 
ATOM     20  C   UNL     1      -0.038  10.276  22.276  0.00  0.00    +0.000 A 
ATOM     21  C   UNL     1      -0.059  11.291  21.317  0.00  0.00    +0.000 A 
ATOM     22  C   UNL     1       0.499  11.014  20.072  0.00  0.00    +0.000 A 
ATOM     23  N   UNL     1       1.053   9.826  19.732  0.00  0.00    +0.000 NA
BRANCH  21  24
ATOM     24  C   UNL     1      -0.648  12.638  21.630  0.00  0.00    +0.000 C 
BRANCH  24  25
ATOM     25  N   UNL     1      -0.067  13.754  20.852  0.00  0.00    +0.000 NA
ATOM     26  C   UNL     1      -1.127  14.666  20.380  0.00  0.00    +0.000 C 
ATOM     27  C   UNL     1      -0.607  15.985  19.806  0.00  0.00    +0.000 C 
ATOM     28  C   UNL     1       0.323  16.675  20.791  0.00  0.00    +0.000 C 
ATOM     29  C   UNL     1       1.470  15.735  21.124  0.00  0.00    +0.000 C 
ATOM     30  C   UNL     1       0.942  14.420  21.694  0.00  0.00    +0.000 C 
ENDBRANCH  24  25
ENDBRANCH  21  24
ENDBRANCH   4  18
TORSDOF 7
ENDMDL
MODEL 5
REMARK VINA RESULT:      -7.7      2.541      3.386
REMARK  Name = 
REMARK  9 active torsions:
REMARK  status: ('A' for Active; 'I' for Inactive)
REMARK    1  A    between atoms: C_1  and  C_2
REMARK    2  A    between atoms: C_2  and  C_3
REMARK    3  A    between atoms: C_4  and  C_5
REMARK    4  A    between atoms: C_5  and  O_6
REMARK    5  A    between atoms: O_6  and  C_7
REMARK    6  A    between atoms: C_10  and  C_11
REMARK    7  A    between atoms: C_14  and  C_15
REMARK    8  A    between atoms: C_18  and  C_19
REMARK    9  A    between atoms: C_19  and  N_20
REMARK                            x       y       z     vdW  Elec       q    Type
REMARK                         _______ _______ _______ _____ _____    ______ ____
ROOT
ATOM      1  C   UNL     1       2.467   6.936  19.284  0.00  0.00    +0.000 A 
ATOM      2  C   UNL     1       1.890   6.692  20.509  0.00  0.00    +0.000 A 
ATOM      3  N   UNL     1       1.169   7.778  20.920  0.00  0.00    +0.000 NA
ATOM      4  C   UNL     1       1.313   8.643  19.928  0.00  0.00    +0.000 A 
ATOM      5  O   UNL     1       2.093   8.193  18.895  0.00  0.00    +0.000 OA
ENDROOT
BRANCH   1   9
ATOM      6  C   UNL     1       5.064   4.748  16.703  0.00  0.00    +0.000 A 
ATOM      7  C   UNL     1       5.013   6.141  16.651  0.00  0.00    +0.000 A 
ATOM      8  C   UNL     1       4.162   6.842  17.500  0.00  0.00    +0.000 A 
ATOM      9  C   UNL     1       3.313   6.166  18.387  0.00  0.00    +0.000 A 
ATOM     10  C   UNL     1       3.317   4.764  18.380  0.00  0.00    +0.000 A 
ATOM     11  C   UNL     1       4.185   4.059  17.537  0.00  0.00    +0.000 A 
BRANCH   6  12
ATOM     12  O   UNL     1       5.952   3.985  15.989  0.00  0.00    +0.000 OA
BRANCH  12  13
ATOM     13  C   UNL     1       6.244   4.513  14.692  0.00  0.00    +0.000 C 
BRANCH  13  17
ATOM     14  C   UNL     1       4.446   3.133  11.527  0.00  0.00    +0.000 C 
ATOM     15  C   UNL     1       5.546   3.598  12.440  0.00  0.00    +0.000 C 
ATOM     16  C   UNL     1       6.940   3.623  11.877  0.00  0.00    +0.000 C 
ATOM     17  C   UNL     1       5.261   3.967  13.707  0.00  0.00    +0.000 C 
ENDBRANCH  13  17
ENDBRANCH  12  13
ENDBRANCH   6  12
ENDBRANCH   1   9
BRANCH   4  18
ATOM     18  C   UNL     1       0.763   9.991  19.829  0.00  0.00    +0.000 A 
ATOM     19  C   UNL     1       0.070  10.349  18.675  0.00  0.00    +0.000 A 
ATOM     20  C   UNL     1      -0.435  11.636  18.566  0.00  0.00    +0.000 A 
ATOM     21  C   UNL     1      -0.231  12.544  19.608  0.00  0.00    +0.000 A 
ATOM     22  C   UNL     1       0.466  12.096  20.727  0.00  0.00    +0.000 A 
ATOM     23  N   UNL     1       0.960  10.843  20.866  0.00  0.00    +0.000 NA
BRANCH  21  24
ATOM     24  C   UNL     1      -0.761  13.948  19.525  0.00  0.00    +0.000 C 
BRANCH  24  25
ATOM     25  N   UNL     1       0.275  15.000  19.627  0.00  0.00    +0.000 NA
ATOM     26  C   UNL     1       1.394  14.718  18.708  0.00  0.00    +0.000 C 
ATOM     27  C   UNL     1       2.375  15.880  18.544  0.00  0.00    +0.000 C 
ATOM     28  C   UNL     1       1.645  17.155  18.155  0.00  0.00    +0.000 C 
ATOM     29  C   UNL     1       0.603  17.467  19.217  0.00  0.00    +0.000 C 
ATOM     30  C   UNL     1      -0.371  16.301  19.377  0.00  0.00    +0.000 C 
ENDBRANCH  24  25
ENDBRANCH  21  24
ENDBRANCH   4  18
TORSDOF 7
ENDMDL
MODEL 6
REMARK VINA RESULT:      -7.7      3.656     10.815
REMARK  Name = 
REMARK  9 active torsions:
REMARK  status: ('A' for Active; 'I' for Inactive)
REMARK    1  A    between atoms: C_1  and  C_2
REMARK    2  A    between atoms: C_2  and  C_3
REMARK    3  A    between atoms: C_4  and  C_5
REMARK    4  A    between atoms: C_5  and  O_6
REMARK    5  A    between atoms: O_6  and  C_7
REMARK    6  A    between atoms: C_10  and  C_11
REMARK    7  A    between atoms: C_14  and  C_15
REMARK    8  A    between atoms: C_18  and  C_19
REMARK    9  A    between atoms: C_19  and  N_20
REMARK                            x       y       z     vdW  Elec       q    Type
REMARK                         _______ _______ _______ _____ _____    ______ ____
ROOT
ATOM      1  C   UNL     1      -0.720  10.268  19.329  0.00  0.00    +0.000 A 
ATOM      2  C   UNL     1      -0.064  10.541  20.507  0.00  0.00    +0.000 A 
ATOM      3  N   UNL     1       1.080   9.799  20.597  0.00  0.00    +0.000 NA
ATOM      4  C   UNL     1       1.097   9.110  19.467  0.00  0.00    +0.000 A 
ATOM      5  O   UNL     1       0.027   9.349  18.645  0.00  0.00    +0.000 OA
ENDROOT
BRANCH   1   9
ATOM      6  C   UNL     1      -4.375  11.542  17.539  0.00  0.00    +0.000 A 
ATOM      7  C   UNL     1      -3.646  10.483  16.997  0.00  0.00    +0.000 A 
ATOM      8  C   UNL     1      -2.456  10.078  17.592  0.00  0.00    +0.000 A 
ATOM      9  C   UNL     1      -1.947  10.747  18.714  0.00  0.00    +0.000 A 
ATOM     10  C   UNL     1      -2.649  11.856  19.206  0.00  0.00    +0.000 A 
ATOM     11  C   UNL     1      -3.855  12.254  18.617  0.00  0.00    +0.000 A 
BRANCH   6  12
ATOM     12  O   UNL     1      -5.611  11.932  17.089  0.00  0.00    +0.000 OA
BRANCH  12  13
ATOM     13  C   UNL     1      -6.620  11.914  18.103  0.00  0.00    +0.000 C 
BRANCH  13  17
ATOM     14  C   UNL     1      -7.288   8.691  20.181  0.00  0.00    +0.000 C 
ATOM     15  C   UNL     1      -7.199  10.146  19.816  0.00  0.00    +0.000 C 
ATOM     16  C   UNL     1      -7.551  11.144  20.886  0.00  0.00    +0.000 C 
ATOM     17  C   UNL     1      -6.818  10.509  18.573  0.00  0.00    +0.000 C 
ENDBRANCH  13  17
ENDBRANCH  12  13
ENDBRANCH   6  12
ENDBRANCH   1   9
BRANCH   4  18
ATOM     18  C   UNL     1       2.092   8.138  19.025  0.00  0.00    +0.000 A 
ATOM     19  C   UNL     1       2.733   8.343  17.805  0.00  0.00    +0.000 A 
ATOM     20  C   UNL     1       3.663   7.410  17.370  0.00  0.00    +0.000 A 
ATOM     21  C   UNL     1       3.928   6.287  18.156  0.00  0.00    +0.000 A 
ATOM     22  C   UNL     1       3.248   6.170  19.365  0.00  0.00    +0.000 A 
ATOM     23  N   UNL     1       2.344   7.069  19.821  0.00  0.00    +0.000 NA
BRANCH  21  24
ATOM     24  C   UNL     1       4.928   5.254  17.717  0.00  0.00    +0.000 C 
BRANCH  24  25
ATOM     25  N   UNL     1       4.484   3.855  17.905  0.00  0.00    +0.000 NA
ATOM     26  C   UNL     1       4.538   3.480  19.331  0.00  0.00    +0.000 C 
ATOM     27  C   UNL     1       3.844   2.155  19.655  0.00  0.00    +0.000 C 
ATOM     28  C   UNL     1       2.418   2.149  19.132  0.00  0.00    +0.000 C 
ATOM     29  C   UNL     1       2.444   2.398  17.633  0.00  0.00    +0.000 C 
ATOM     30  C   UNL     1       3.139   3.720  17.318  0.00  0.00    +0.000 C 
ENDBRANCH  24  25
ENDBRANCH  21  24
ENDBRANCH   4  18
TORSDOF 7
ENDMDL
MODEL 7
REMARK VINA RESULT:      -7.7      3.324      5.025
REMARK  Name = 
REMARK  9 active torsions:
REMARK  status: ('A' for Active; 'I' for Inactive)
REMARK    1  A    between atoms: C_1  and  C_2
REMARK    2  A    between atoms: C_2  and  C_3
REMARK    3  A    between atoms: C_4  and  C_5
REMARK    4  A    between atoms: C_5  and  O_6
REMARK    5  A    between atoms: O_6  and  C_7
REMARK    6  A    between atoms: C_10  and  C_11
REMARK    7  A    between atoms: C_14  and  C_15
REMARK    8  A    between atoms: C_18  and  C_19
REMARK    9  A    between atoms: C_19  and  N_20
REMARK                            x       y       z     vdW  Elec       q    Type
REMARK                         _______ _______ _______ _____ _____    ______ ____
ROOT
ATOM      1  C   UNL     1       1.308   9.447  19.065  0.00  0.00    +0.000 A 
ATOM      2  C   UNL     1       1.150  10.553  18.262  0.00  0.00    +0.000 A 
ATOM      3  N   UNL     1       0.282  11.438  18.838  0.00  0.00    +0.000 NA
ATOM      4  C   UNL     1      -0.049  10.855  19.979  0.00  0.00    +0.000 A 
ATOM      5  O   UNL     1       0.543   9.637  20.183  0.00  0.00    +0.000 OA
ENDROOT
BRANCH   1   9
ATOM      6  C   UNL     1       3.712   5.938  18.762  0.00  0.00    +0.000 A 
ATOM      7  C   UNL     1       3.666   6.863  17.720  0.00  0.00    +0.000 A 
ATOM      8  C   UNL     1       2.878   8.005  17.833  0.00  0.00    +0.000 A 
ATOM      9  C   UNL     1       2.087   8.224  18.969  0.00  0.00    +0.000 A 
ATOM     10  C   UNL     1       2.083   7.251  19.979  0.00  0.00    +0.000 A 
ATOM     11  C   UNL     1       2.888   6.111  19.873  0.00  0.00    +0.000 A 
BRANCH   6  12
ATOM     12  O   UNL     1       4.546   4.849  18.785  0.00  0.00    +0.000 OA
BRANCH  12  13
ATOM     13  C   UNL     1       4.229   3.867  17.795  0.00  0.00    +0.000 C 
BRANCH  13  17
ATOM     14  C   UNL     1       0.959   2.057  18.884  0.00  0.00    +0.000 C 
ATOM     15  C   UNL     1       1.875   3.040  18.210  0.00  0.00    +0.000 C 
ATOM     16  C   UNL     1       1.233   4.128  17.395  0.00  0.00    +0.000 C 
ATOM     17  C   UNL     1       3.213   2.920  18.349  0.00  0.00    +0.000 C 
ENDBRANCH  13  17
ENDBRANCH  12  13
ENDBRANCH   6  12
ENDBRANCH   1   9
BRANCH   4  18
ATOM     18  C   UNL     1      -0.964  11.348  21.004  0.00  0.00    +0.000 A 
ATOM     19  C   UNL     1      -0.767  10.953  22.325  0.00  0.00    +0.000 A 
ATOM     20  C   UNL     1      -1.647  11.400  23.299  0.00  0.00    +0.000 A 
ATOM     21  C   UNL     1      -2.712  12.226  22.935  0.00  0.00    +0.000 A 
ATOM     22  C   UNL     1      -2.826  12.577  21.593  0.00  0.00    +0.000 A 
ATOM     23  N   UNL     1      -1.976  12.166  20.622  0.00  0.00    +0.000 NA
BRANCH  21  24
ATOM     24  C   UNL     1      -3.688  12.728  23.962  0.00  0.00    +0.000 C 
BRANCH  24  25
ATOM     25  N   UNL     1      -4.987  13.168  23.407  0.00  0.00    +0.000 NA
ATOM     26  C   UNL     1      -6.103  12.490  24.095  0.00  0.00    +0.000 C 
ATOM     27  C   UNL     1      -7.480  13.078  23.781  0.00  0.00    +0.000 C 
ATOM     28  C   UNL     1      -7.499  14.576  24.034  0.00  0.00    +0.000 C 
ATOM     29  C   UNL     1      -6.421  15.231  23.187  0.00  0.00    +0.000 C 
ATOM     30  C   UNL     1      -5.050  14.637  23.504  0.00  0.00    +0.000 C 
ENDBRANCH  24  25
ENDBRANCH  21  24
ENDBRANCH   4  18
TORSDOF 7
ENDMDL
MODEL 8
REMARK VINA RESULT:      -7.7      0.975      1.094
REMARK  Name = 
REMARK  9 active torsions:
REMARK  status: ('A' for Active; 'I' for Inactive)
REMARK    1  A    between atoms: C_1  and  C_2
REMARK    2  A    between atoms: C_2  and  C_3
REMARK    3  A    between atoms: C_4  and  C_5
REMARK    4  A    between atoms: C_5  and  O_6
REMARK    5  A    between atoms: O_6  and  C_7
REMARK    6  A    between atoms: C_10  and  C_11
REMARK    7  A    between atoms: C_14  and  C_15
REMARK    8  A    between atoms: C_18  and  C_19
REMARK    9  A    between atoms: C_19  and  N_20
REMARK                            x       y       z     vdW  Elec       q    Type
REMARK                         _______ _______ _______ _____ _____    ______ ____
ROOT
ATOM      1  C   UNL     1       2.683   6.105  19.283  0.00  0.00    +0.000 A 
ATOM      2  C   UNL     1       2.189   5.387  20.348  0.00  0.00    +0.000 A 
ATOM      3  N   UNL     1       1.455   6.198  21.169  0.00  0.00    +0.000 NA
ATOM      4  C   UNL     1       1.509   7.378  20.573  0.00  0.00    +0.000 A 
ATOM      5  O   UNL     1       2.241   7.393  19.414  0.00  0.00    +0.000 OA
ENDROOT
BRANCH   1   9
ATOM      6  C   UNL     1       5.196   5.199  15.960  0.00  0.00    +0.000 A 
ATOM      7  C   UNL     1       5.058   6.511  16.413  0.00  0.00    +0.000 A 
ATOM      8  C   UNL     1       4.235   6.791  17.499  0.00  0.00    +0.000 A 
ATOM      9  C   UNL     1       3.501   5.777  18.128  0.00  0.00    +0.000 A 
ATOM     10  C   UNL     1       3.589   4.473  17.618  0.00  0.00    +0.000 A 
ATOM     11  C   UNL     1       4.429   4.188  16.535  0.00  0.00    +0.000 A 
BRANCH   6  12
ATOM     12  O   UNL     1       6.070   4.816  14.975  0.00  0.00    +0.000 OA
BRANCH  12  13
ATOM     13  C   UNL     1       5.425   4.410  13.765  0.00  0.00    +0.000 C 
BRANCH  13  17
ATOM     14  C   UNL     1       7.036   1.924  11.239  0.00  0.00    +0.000 C 
ATOM     15  C   UNL     1       6.019   2.816  11.892  0.00  0.00    +0.000 C 
ATOM     16  C   UNL     1       4.646   2.855  11.278  0.00  0.00    +0.000 C 
ATOM     17  C   UNL     1       6.355   3.542  12.979  0.00  0.00    +0.000 C 
ENDBRANCH  13  17
ENDBRANCH  12  13
ENDBRANCH   6  12
ENDBRANCH   1   9
BRANCH   4  18
ATOM     18  C   UNL     1       0.906   8.632  21.013  0.00  0.00    +0.000 A 
ATOM     19  C   UNL     1       0.478   9.545  20.051  0.00  0.00    +0.000 A 
ATOM     20  C   UNL     1      -0.075  10.747  20.465  0.00  0.00    +0.000 A 
ATOM     21  C   UNL     1      -0.183  11.020  21.830  0.00  0.00    +0.000 A 
ATOM     22  C   UNL     1       0.262  10.046  22.720  0.00  0.00    +0.000 A 
ATOM     23  N   UNL     1       0.795   8.858  22.346  0.00  0.00    +0.000 NA
BRANCH  21  24
ATOM     24  C   UNL     1      -0.774  12.313  22.317  0.00  0.00    +0.000 C 
BRANCH  24  25
ATOM     25  N   UNL     1      -2.183  12.528  21.920  0.00  0.00    +0.000 NA
ATOM     26  C   UNL     1      -3.078  12.396  23.086  0.00  0.00    +0.000 C 
ATOM     27  C   UNL     1      -4.511  12.866  22.831  0.00  0.00    +0.000 C 
ATOM     28  C   UNL     1      -4.525  14.282  22.278  0.00  0.00    +0.000 C 
ATOM     29  C   UNL     1      -3.704  14.317  20.999  0.00  0.00    +0.000 C 
ATOM     30  C   UNL     1      -2.276  13.843  21.262  0.00  0.00    +0.000 C 
ENDBRANCH  24  25
ENDBRANCH  21  24
ENDBRANCH   4  18
TORSDOF 7
ENDMDL
MODEL 9
REMARK VINA RESULT:      -7.7      2.483      3.324
REMARK  Name = 
REMARK  9 active torsions:
REMARK  status: ('A' for Active; 'I' for Inactive)
REMARK    1  A    between atoms: C_1  and  C_2
REMARK    2  A    between atoms: C_2  and  C_3
REMARK    3  A    between atoms: C_4  and  C_5
REMARK    4  A    between atoms: C_5  and  O_6
REMARK    5  A    between atoms: O_6  and  C_7
REMARK    6  A    between atoms: C_10  and  C_11
REMARK    7  A    between atoms: C_14  and  C_15
REMARK    8  A    between atoms: C_18  and  C_19
REMARK    9  A    between atoms: C_19  and  N_20
REMARK                            x       y       z     vdW  Elec       q    Type
REMARK                         _______ _______ _______ _____ _____    ______ ____
ROOT
ATOM      1  C   UNL     1       2.614   6.745  19.235  0.00  0.00    +0.000 A 
ATOM      2  C   UNL     1       1.985   6.439  20.419  0.00  0.00    +0.000 A 
ATOM      3  N   UNL     1       1.290   7.522  20.881  0.00  0.00    +0.000 NA
ATOM      4  C   UNL     1       1.502   8.447  19.959  0.00  0.00    +0.000 A 
ATOM      5  O   UNL     1       2.301   8.039  18.923  0.00  0.00    +0.000 OA
ENDROOT
BRANCH   1   9
ATOM      6  C   UNL     1       4.989   4.503  16.492  0.00  0.00    +0.000 A 
ATOM      7  C   UNL     1       4.255   3.862  17.490  0.00  0.00    +0.000 A 
ATOM      8  C   UNL     1       3.484   4.606  18.377  0.00  0.00    +0.000 A 
ATOM      9  C   UNL     1       3.463   6.006  18.315  0.00  0.00    +0.000 A 
ATOM     10  C   UNL     1       4.262   6.644  17.356  0.00  0.00    +0.000 A 
ATOM     11  C   UNL     1       5.026   5.895  16.452  0.00  0.00    +0.000 A 
BRANCH   6  12
ATOM     12  O   UNL     1       5.682   3.846  15.508  0.00  0.00    +0.000 OA
BRANCH  12  13
ATOM     13  C   UNL     1       5.515   4.423  14.210  0.00  0.00    +0.000 C 
BRANCH  13  17
ATOM     14  C   UNL     1       6.878   2.321  11.230  0.00  0.00    +0.000 C 
ATOM     15  C   UNL     1       5.927   3.103  12.092  0.00  0.00    +0.000 C 
ATOM     16  C   UNL     1       4.501   3.203  11.623  0.00  0.00    +0.000 C 
ATOM     17  C   UNL     1       6.367   3.682  13.229  0.00  0.00    +0.000 C 
ENDBRANCH  13  17
ENDBRANCH  12  13
ENDBRANCH   6  12
ENDBRANCH   1   9
BRANCH   4  18
ATOM     18  C   UNL     1       1.006   9.819  19.936  0.00  0.00    +0.000 A 
ATOM     19  C   UNL     1       1.218  10.591  18.795  0.00  0.00    +0.000 A 
ATOM     20  C   UNL     1       0.769  11.903  18.778  0.00  0.00    +0.000 A 
ATOM     21  C   UNL     1       0.124  12.423  19.902  0.00  0.00    +0.000 A 
ATOM     22  C   UNL     1      -0.053  11.577  20.993  0.00  0.00    +0.000 A 
ATOM     23  N   UNL     1       0.364  10.289  21.035  0.00  0.00    +0.000 NA
BRANCH  21  24
ATOM     24  C   UNL     1      -0.375  13.840  19.921  0.00  0.00    +0.000 C 
BRANCH  24  25
ATOM     25  N   UNL     1       0.543  14.820  19.299  0.00  0.00    +0.000 NA
ATOM     26  C   UNL     1      -0.217  15.908  18.654  0.00  0.00    +0.000 C 
ATOM     27  C   UNL     1       0.640  17.100  18.225  0.00  0.00    +0.000 C 
ATOM     28  C   UNL     1       1.471  17.615  19.388  0.00  0.00    +0.000 C 
ATOM     29  C   UNL     1       2.337  16.482  19.914  0.00  0.00    +0.000 C 
ATOM     30  C   UNL     1       1.474  15.295  20.337  0.00  0.00    +0.000 C 
ENDBRANCH  24  25
ENDBRANCH  21  24
ENDBRANCH   4  18
TORSDOF 7
ENDMDL
