MODEL 1
REMARK VINA RESULT:      -7.6      0.000      0.000
REMARK  Name = 
REMARK  17 active torsions:
REMARK  status: ('A' for Active; 'I' for Inactive)
REMARK    1  A    between atoms: C_1  and  C_2
REMARK    2  A    between atoms: C_2  and  C_3
REMARK    3  A    between atoms: C_3  and  C_4
REMARK    4  A    between atoms: C_4  and  C_5
REMARK    5  A    between atoms: C_5  and  C_6
REMARK    6  A    between atoms: C_6  and  O_7
REMARK    7  A    between atoms: O_7  and  C_8
REMARK    8  A    between atoms: C_12  and  O_13
REMARK    9  A    between atoms: C_14  and  C_15
REMARK   10  A    between atoms: C_15  and  C_17
REMARK   11  A    between atoms: C_18  and  C_19
REMARK   12  A    between atoms: C_22  and  O_23
REMARK   13  A    between atoms: O_23  and  C_24
REMARK   14  A    between atoms: C_24  and  C_25
REMARK   15  A    between atoms: C_25  and  C_26
REMARK   16  A    between atoms: C_26  and  C_27
REMARK   17  A    between atoms: C_27  and  C_28
REMARK                            x       y       z     vdW  Elec       q    Type
REMARK                         _______ _______ _______ _____ _____    ______ ____
ROOT
ATOM      1  C   UNL     1       5.240   5.028  18.924  0.00  0.00    +0.000 C 
ATOM      2  O   UNL     1       5.975   4.631  19.821  0.00  0.00    +0.000 OA
ENDROOT
BRANCH   1   8
ATOM      3  C   UNL     1       4.636   4.239  16.432  0.00  0.00    +0.000 A 
ATOM      4  C   UNL     1       5.054   4.194  15.071  0.00  0.00    +0.000 A 
ATOM      5  C   UNL     1       6.327   4.369  14.673  0.00  0.00    +0.000 A 
ATOM      6  C   UNL     1       7.279   4.676  15.651  0.00  0.00    +0.000 A 
ATOM      7  C   UNL     1       6.883   4.885  16.978  0.00  0.00    +0.000 A 
ATOM      8  C   UNL     1       5.554   4.745  17.435  0.00  0.00    +0.000 A 
BRANCH   7   9
ATOM      9  O   UNL     1       7.908   5.182  17.847  0.00  0.00    +0.000 OA
ATOM     10  H   UNL     1       7.536   5.414  18.715  0.00  0.00    +0.000 HD
ENDBRANCH   7   9
BRANCH   3  11
ATOM     11  O   UNL     1       3.365   3.691  16.661  0.00  0.00    +0.000 OA
BRANCH  11  12
ATOM     12  C   UNL     1       3.407   2.684  17.747  0.00  0.00    +0.000 C 
BRANCH  12  13
ATOM     13  C   UNL     1       2.053   2.170  18.198  0.00  0.00    +0.000 C 
BRANCH  13  14
ATOM     14  C   UNL     1       1.076   3.348  18.396  0.00  0.00    +0.000 C 
BRANCH  14  15
ATOM     15  C   UNL     1       1.076   3.897  19.817  0.00  0.00    +0.000 C 
BRANCH  15  17
ATOM     16  C   UNL     1       2.375   3.182  21.818  0.00  0.00    +0.000 C 
ATOM     17  C   UNL     1       1.235   2.818  20.885  0.00  0.00    +0.000 C 
ENDBRANCH  15  17
ENDBRANCH  14  15
ENDBRANCH  13  14
ENDBRANCH  12  13
ENDBRANCH  11  12
ENDBRANCH   3  11
ENDBRANCH   1   8
BRANCH   1  18
ATOM     18  C   UNL     1       3.924   5.767  19.340  0.00  0.00    +0.000 C 
ATOM     19  C   UNL     1       3.329   6.658  18.509  0.00  0.00    +0.000 C 
BRANCH  19  20
ATOM     20  C   UNL     1       2.488   7.860  18.851  0.00  0.00    +0.000 A 
ATOM     21  C   UNL     1       2.056   8.754  17.859  0.00  0.00    +0.000 A 
ATOM     22  C   UNL     1       0.947   9.613  18.025  0.00  0.00    +0.000 A 
ATOM     23  C   UNL     1       0.285   9.680  19.241  0.00  0.00    +0.000 A 
ATOM     24  C   UNL     1       0.770   8.891  20.285  0.00  0.00    +0.000 A 
ATOM     25  C   UNL     1       1.829   7.966  20.089  0.00  0.00    +0.000 A 
BRANCH  23  26
ATOM     26  O   UNL     1      -0.800  10.474  19.507  0.00  0.00    +0.000 OA
BRANCH  26  27
ATOM     27  C   UNL     1      -1.257  11.318  18.441  0.00  0.00    +0.000 C 
BRANCH  27  28
ATOM     28  C   UNL     1      -2.319  10.560  17.641  0.00  0.00    +0.000 C 
BRANCH  28  29
ATOM     29  C   UNL     1      -2.669  11.284  16.341  0.00  0.00    +0.000 C 
BRANCH  29  30
ATOM     30  C   UNL     1      -3.787  10.564  15.590  0.00  0.00    +0.000 C 
ATOM     31  C   UNL     1      -3.295  10.009  14.263  0.00  0.00    +0.000 C 
ENDBRANCH  29  30
ENDBRANCH  28  29
ENDBRANCH  27  28
ENDBRANCH  26  27
ENDBRANCH  23  26
ENDBRANCH  19  20
ENDBRANCH   1  18
TORSDOF 15
ENDMDL
MODEL 2
REMARK VINA RESULT:      -7.4      2.073      2.793
REMARK  Name = 
REMARK  17 active torsions:
REMARK  status: ('A' for Active; 'I' for Inactive)
REMARK    1  A    between atoms: C_1  and  C_2
REMARK    2  A    between atoms: C_2  and  C_3
REMARK    3  A    between atoms: C_3  and  C_4
REMARK    4  A    between atoms: C_4  and  C_5
REMARK    5  A    between atoms: C_5  and  C_6
REMARK    6  A    between atoms: C_6  and  O_7
REMARK    7  A    between atoms: O_7  and  C_8
REMARK    8  A    between atoms: C_12  and  O_13
REMARK    9  A    between atoms: C_14  and  C_15
REMARK   10  A    between atoms: C_15  and  C_17
REMARK   11  A    between atoms: C_18  and  C_19
REMARK   12  A    between atoms: C_22  and  O_23
REMARK   13  A    between atoms: O_23  and  C_24
REMARK   14  A    between atoms: C_24  and  C_25
REMARK   15  A    between atoms: C_25  and  C_26
REMARK   16  A    between atoms: C_26  and  C_27
REMARK   17  A    between atoms: C_27  and  C_28
REMARK                            x       y       z     vdW  Elec       q    Type
REMARK                         _______ _______ _______ _____ _____    ______ ____
ROOT
ATOM      1  C   UNL     1       5.652   5.375  18.857  0.00  0.00    +0.000 C 
ATOM      2  O   UNL     1       6.545   5.361  19.697  0.00  0.00    +0.000 OA
ENDROOT
BRANCH   1   8
ATOM      3  C   UNL     1       5.272   3.712  16.787  0.00  0.00    +0.000 A 
ATOM      4  C   UNL     1       5.484   3.486  15.396  0.00  0.00    +0.000 A 
ATOM      5  C   UNL     1       6.409   4.132  14.665  0.00  0.00    +0.000 A 
ATOM      6  C   UNL     1       7.158   5.130  15.298  0.00  0.00    +0.000 A 
ATOM      7  C   UNL     1       6.873   5.493  16.621  0.00  0.00    +0.000 A 
ATOM      8  C   UNL     1       5.890   4.865  17.415  0.00  0.00    +0.000 A 
BRANCH   7   9
ATOM      9  O   UNL     1       7.677   6.486  17.134  0.00  0.00    +0.000 OA
ATOM     10  H   UNL     1       8.609   6.227  17.034  0.00  0.00    +0.000 HD
ENDBRANCH   7   9
BRANCH   3  11
ATOM     11  O   UNL     1       4.527   2.709  17.425  0.00  0.00    +0.000 OA
BRANCH  11  12
ATOM     12  C   UNL     1       3.083   3.040  17.427  0.00  0.00    +0.000 C 
BRANCH  12  13
ATOM     13  C   UNL     1       2.175   1.948  17.961  0.00  0.00    +0.000 C 
BRANCH  13  14
ATOM     14  C   UNL     1       0.976   2.571  18.708  0.00  0.00    +0.000 C 
BRANCH  14  15
ATOM     15  C   UNL     1       1.262   3.969  19.241  0.00  0.00    +0.000 C 
BRANCH  15  17
ATOM     16  C   UNL     1       2.232   3.202  21.403  0.00  0.00    +0.000 C 
ATOM     17  C   UNL     1       1.166   4.071  20.761  0.00  0.00    +0.000 C 
ENDBRANCH  15  17
ENDBRANCH  14  15
ENDBRANCH  13  14
ENDBRANCH  12  13
ENDBRANCH  11  12
ENDBRANCH   3  11
ENDBRANCH   1   8
BRANCH   1  18
ATOM     18  C   UNL     1       4.235   5.856  19.315  0.00  0.00    +0.000 C 
ATOM     19  C   UNL     1       3.398   6.487  18.455  0.00  0.00    +0.000 C 
BRANCH  19  20
ATOM     20  C   UNL     1       2.332   7.510  18.747  0.00  0.00    +0.000 A 
ATOM     21  C   UNL     1       1.858   7.718  20.051  0.00  0.00    +0.000 A 
ATOM     22  C   UNL     1       1.215   8.908  20.458  0.00  0.00    +0.000 A 
ATOM     23  C   UNL     1       0.931   9.904  19.537  0.00  0.00    +0.000 A 
ATOM     24  C   UNL     1       1.282   9.673  18.207  0.00  0.00    +0.000 A 
ATOM     25  C   UNL     1       2.004   8.515  17.817  0.00  0.00    +0.000 A 
BRANCH  23  26
ATOM     26  O   UNL     1       0.317  11.095  19.826  0.00  0.00    +0.000 OA
BRANCH  26  27
ATOM     27  C   UNL     1       0.846  11.841  20.931  0.00  0.00    +0.000 C 
BRANCH  27  28
ATOM     28  C   UNL     1      -0.286  12.105  21.926  0.00  0.00    +0.000 C 
BRANCH  28  29
ATOM     29  C   UNL     1      -1.650  11.744  21.337  0.00  0.00    +0.000 C 
BRANCH  29  30
ATOM     30  C   UNL     1      -2.750  12.645  21.895  0.00  0.00    +0.000 C 
ATOM     31  C   UNL     1      -2.975  12.392  23.377  0.00  0.00    +0.000 C 
ENDBRANCH  29  30
ENDBRANCH  28  29
ENDBRANCH  27  28
ENDBRANCH  26  27
ENDBRANCH  23  26
ENDBRANCH  19  20
ENDBRANCH   1  18
TORSDOF 15
ENDMDL
MODEL 3
REMARK VINA RESULT:      -7.1      2.884      5.302
REMARK  Name = 
REMARK  17 active torsions:
REMARK  status: ('A' for Active; 'I' for Inactive)
REMARK    1  A    between atoms: C_1  and  C_2
REMARK    2  A    between atoms: C_2  and  C_3
REMARK    3  A    between atoms: C_3  and  C_4
REMARK    4  A    between atoms: C_4  and  C_5
REMARK    5  A    between atoms: C_5  and  C_6
REMARK    6  A    between atoms: C_6  and  O_7
REMARK    7  A    between atoms: O_7  and  C_8
REMARK    8  A    between atoms: C_12  and  O_13
REMARK    9  A    between atoms: C_14  and  C_15
REMARK   10  A    between atoms: C_15  and  C_17
REMARK   11  A    between atoms: C_18  and  C_19
REMARK   12  A    between atoms: C_22  and  O_23
REMARK   13  A    between atoms: O_23  and  C_24
REMARK   14  A    between atoms: C_24  and  C_25
REMARK   15  A    between atoms: C_25  and  C_26
REMARK   16  A    between atoms: C_26  and  C_27
REMARK   17  A    between atoms: C_27  and  C_28
REMARK                            x       y       z     vdW  Elec       q    Type
REMARK                         _______ _______ _______ _____ _____    ______ ____
ROOT
ATOM      1  C   UNL     1       3.891   4.794  17.652  0.00  0.00    +0.000 C 
ATOM      2  O   UNL     1       3.719   3.690  17.145  0.00  0.00    +0.000 OA
ENDROOT
BRANCH   1   8
ATOM      3  C   UNL     1       6.097   6.050  16.786  0.00  0.00    +0.000 A 
ATOM      4  C   UNL     1       7.314   6.694  17.155  0.00  0.00    +0.000 A 
ATOM      5  C   UNL     1       7.908   6.544  18.351  0.00  0.00    +0.000 A 
ATOM      6  C   UNL     1       7.255   5.760  19.309  0.00  0.00    +0.000 A 
ATOM      7  C   UNL     1       5.982   5.238  19.042  0.00  0.00    +0.000 A 
ATOM      8  C   UNL     1       5.307   5.398  17.813  0.00  0.00    +0.000 A 
BRANCH   7   9
ATOM      9  O   UNL     1       5.443   4.484  20.060  0.00  0.00    +0.000 OA
ATOM     10  H   UNL     1       4.494   4.354  19.893  0.00  0.00    +0.000 HD
ENDBRANCH   7   9
BRANCH   3  11
ATOM     11  O   UNL     1       5.840   6.054  15.407  0.00  0.00    +0.000 OA
BRANCH  11  12
ATOM     12  C   UNL     1       6.072   4.715  14.819  0.00  0.00    +0.000 C 
BRANCH  12  13
ATOM     13  C   UNL     1       6.881   4.708  13.535  0.00  0.00    +0.000 C 
BRANCH  13  14
ATOM     14  C   UNL     1       6.343   3.626  12.574  0.00  0.00    +0.000 C 
BRANCH  14  15
ATOM     15  C   UNL     1       4.834   3.692  12.380  0.00  0.00    +0.000 C 
BRANCH  15  17
ATOM     16  C   UNL     1       3.332   3.720  10.393  0.00  0.00    +0.000 C 
ATOM     17  C   UNL     1       4.340   2.897  11.175  0.00  0.00    +0.000 C 
ENDBRANCH  15  17
ENDBRANCH  14  15
ENDBRANCH  13  14
ENDBRANCH  12  13
ENDBRANCH  11  12
ENDBRANCH   3  11
ENDBRANCH   1   8
BRANCH   1  18
ATOM     18  C   UNL     1       2.619   5.608  18.060  0.00  0.00    +0.000 C 
ATOM     19  C   UNL     1       2.692   6.937  18.322  0.00  0.00    +0.000 C 
BRANCH  19  20
ATOM     20  C   UNL     1       1.843   7.771  19.245  0.00  0.00    +0.000 A 
ATOM     21  C   UNL     1       1.642   7.401  20.584  0.00  0.00    +0.000 A 
ATOM     22  C   UNL     1       1.249   8.315  21.586  0.00  0.00    +0.000 A 
ATOM     23  C   UNL     1       0.942   9.627  21.260  0.00  0.00    +0.000 A 
ATOM     24  C   UNL     1       1.016   9.992  19.915  0.00  0.00    +0.000 A 
ATOM     25  C   UNL     1       1.494   9.096  18.925  0.00  0.00    +0.000 A 
BRANCH  23  26
ATOM     26  O   UNL     1       0.556  10.593  22.152  0.00  0.00    +0.000 OA
BRANCH  26  27
ATOM     27  C   UNL     1      -0.839  10.637  22.488  0.00  0.00    +0.000 C 
BRANCH  27  28
ATOM     28  C   UNL     1      -1.438  11.920  21.909  0.00  0.00    +0.000 C 
BRANCH  28  29
ATOM     29  C   UNL     1      -1.570  13.010  22.974  0.00  0.00    +0.000 C 
BRANCH  29  30
ATOM     30  C   UNL     1      -3.007  13.518  23.071  0.00  0.00    +0.000 C 
ATOM     31  C   UNL     1      -3.809  12.720  24.087  0.00  0.00    +0.000 C 
ENDBRANCH  29  30
ENDBRANCH  28  29
ENDBRANCH  27  28
ENDBRANCH  26  27
ENDBRANCH  23  26
ENDBRANCH  19  20
ENDBRANCH   1  18
TORSDOF 15
ENDMDL
MODEL 4
REMARK VINA RESULT:      -7.0      1.788      2.713
REMARK  Name = 
REMARK  17 active torsions:
REMARK  status: ('A' for Active; 'I' for Inactive)
REMARK    1  A    between atoms: C_1  and  C_2
REMARK    2  A    between atoms: C_2  and  C_3
REMARK    3  A    between atoms: C_3  and  C_4
REMARK    4  A    between atoms: C_4  and  C_5
REMARK    5  A    between atoms: C_5  and  C_6
REMARK    6  A    between atoms: C_6  and  O_7
REMARK    7  A    between atoms: O_7  and  C_8
REMARK    8  A    between atoms: C_12  and  O_13
REMARK    9  A    between atoms: C_14  and  C_15
REMARK   10  A    between atoms: C_15  and  C_17
REMARK   11  A    between atoms: C_18  and  C_19
REMARK   12  A    between atoms: C_22  and  O_23
REMARK   13  A    between atoms: O_23  and  C_24
REMARK   14  A    between atoms: C_24  and  C_25
REMARK   15  A    between atoms: C_25  and  C_26
REMARK   16  A    between atoms: C_26  and  C_27
REMARK   17  A    between atoms: C_27  and  C_28
REMARK                            x       y       z     vdW  Elec       q    Type
REMARK                         _______ _______ _______ _____ _____    ______ ____
ROOT
ATOM      1  C   UNL     1       5.447   5.192  18.868  0.00  0.00    +0.000 C 
ATOM      2  O   UNL     1       6.300   4.974  19.722  0.00  0.00    +0.000 OA
ENDROOT
BRANCH   1   8
ATOM      3  C   UNL     1       4.830   3.737  16.700  0.00  0.00    +0.000 A 
ATOM      4  C   UNL     1       5.037   3.550  15.303  0.00  0.00    +0.000 A 
ATOM      5  C   UNL     1       6.084   4.055  14.627  0.00  0.00    +0.000 A 
ATOM      6  C   UNL     1       6.983   4.865  15.329  0.00  0.00    +0.000 A 
ATOM      7  C   UNL     1       6.731   5.203  16.665  0.00  0.00    +0.000 A 
ATOM      8  C   UNL     1       5.629   4.723  17.404  0.00  0.00    +0.000 A 
BRANCH   7   9
ATOM      9  O   UNL     1       7.687   6.004  17.248  0.00  0.00    +0.000 OA
ATOM     10  H   UNL     1       7.263   6.582  17.905  0.00  0.00    +0.000 HD
ENDBRANCH   7   9
BRANCH   3  11
ATOM     11  O   UNL     1       3.899   2.855  17.266  0.00  0.00    +0.000 OA
BRANCH  11  12
ATOM     12  C   UNL     1       2.538   3.439  17.256  0.00  0.00    +0.000 C 
BRANCH  12  13
ATOM     13  C   UNL     1       1.519   2.709  18.111  0.00  0.00    +0.000 C 
BRANCH  13  14
ATOM     14  C   UNL     1       1.096   3.593  19.304  0.00  0.00    +0.000 C 
BRANCH  14  15
ATOM     15  C   UNL     1       1.239   2.893  20.649  0.00  0.00    +0.000 C 
BRANCH  15  17
ATOM     16  C   UNL     1       3.692   2.501  20.820  0.00  0.00    +0.000 C 
ATOM     17  C   UNL     1       2.516   3.267  21.397  0.00  0.00    +0.000 C 
ENDBRANCH  15  17
ENDBRANCH  14  15
ENDBRANCH  13  14
ENDBRANCH  12  13
ENDBRANCH  11  12
ENDBRANCH   3  11
ENDBRANCH   1   8
BRANCH   1  18
ATOM     18  C   UNL     1       4.126   5.894  19.328  0.00  0.00    +0.000 C 
ATOM     19  C   UNL     1       3.435   6.705  18.488  0.00  0.00    +0.000 C 
BRANCH  19  20
ATOM     20  C   UNL     1       2.559   7.886  18.816  0.00  0.00    +0.000 A 
ATOM     21  C   UNL     1       2.159   8.795  17.825  0.00  0.00    +0.000 A 
ATOM     22  C   UNL     1       1.030   9.632  17.957  0.00  0.00    +0.000 A 
ATOM     23  C   UNL     1       0.311   9.663  19.142  0.00  0.00    +0.000 A 
ATOM     24  C   UNL     1       0.761   8.858  20.190  0.00  0.00    +0.000 A 
ATOM     25  C   UNL     1       1.842   7.955  20.025  0.00  0.00    +0.000 A 
BRANCH  23  26
ATOM     26  O   UNL     1      -0.798  10.434  19.375  0.00  0.00    +0.000 OA
BRANCH  26  27
ATOM     27  C   UNL     1      -0.568  11.816  19.680  0.00  0.00    +0.000 C 
BRANCH  27  28
ATOM     28  C   UNL     1      -0.654  12.001  21.196  0.00  0.00    +0.000 C 
BRANCH  28  29
ATOM     29  C   UNL     1      -2.090  12.261  21.651  0.00  0.00    +0.000 C 
BRANCH  29  30
ATOM     30  C   UNL     1      -2.279  11.899  23.123  0.00  0.00    +0.000 C 
ATOM     31  C   UNL     1      -3.470  12.625  23.725  0.00  0.00    +0.000 C 
ENDBRANCH  29  30
ENDBRANCH  28  29
ENDBRANCH  27  28
ENDBRANCH  26  27
ENDBRANCH  23  26
ENDBRANCH  19  20
ENDBRANCH   1  18
TORSDOF 15
ENDMDL
MODEL 5
REMARK VINA RESULT:      -7.0      5.882      7.683
REMARK  Name = 
REMARK  17 active torsions:
REMARK  status: ('A' for Active; 'I' for Inactive)
REMARK    1  A    between atoms: C_1  and  C_2
REMARK    2  A    between atoms: C_2  and  C_3
REMARK    3  A    between atoms: C_3  and  C_4
REMARK    4  A    between atoms: C_4  and  C_5
REMARK    5  A    between atoms: C_5  and  C_6
REMARK    6  A    between atoms: C_6  and  O_7
REMARK    7  A    between atoms: O_7  and  C_8
REMARK    8  A    between atoms: C_12  and  O_13
REMARK    9  A    between atoms: C_14  and  C_15
REMARK   10  A    between atoms: C_15  and  C_17
REMARK   11  A    between atoms: C_18  and  C_19
REMARK   12  A    between atoms: C_22  and  O_23
REMARK   13  A    between atoms: O_23  and  C_24
REMARK   14  A    between atoms: C_24  and  C_25
REMARK   15  A    between atoms: C_25  and  C_26
REMARK   16  A    between atoms: C_26  and  C_27
REMARK   17  A    between atoms: C_27  and  C_28
REMARK                            x       y       z     vdW  Elec       q    Type
REMARK                         _______ _______ _______ _____ _____    ______ ____
ROOT
ATOM      1  C   UNL     1       7.437   6.744  18.057  0.00  0.00    +0.000 C 
ATOM      2  O   UNL     1       7.583   6.293  19.188  0.00  0.00    +0.000 OA
ENDROOT
BRANCH   1   8
ATOM      3  C   UNL     1       5.457   6.303  16.302  0.00  0.00    +0.000 A 
ATOM      4  C   UNL     1       5.010   5.531  15.192  0.00  0.00    +0.000 A 
ATOM      5  C   UNL     1       5.538   4.343  14.845  0.00  0.00    +0.000 A 
ATOM      6  C   UNL     1       6.633   3.878  15.582  0.00  0.00    +0.000 A 
ATOM      7  C   UNL     1       7.202   4.678  16.580  0.00  0.00    +0.000 A 
ATOM      8  C   UNL     1       6.702   5.944  16.955  0.00  0.00    +0.000 A 
BRANCH   7   9
ATOM      9  O   UNL     1       8.273   4.112  17.234  0.00  0.00    +0.000 OA
ATOM     10  H   UNL     1       8.012   3.242  17.581  0.00  0.00    +0.000 HD
ENDBRANCH   7   9
BRANCH   3  11
ATOM     11  O   UNL     1       4.564   7.310  16.697  0.00  0.00    +0.000 OA
BRANCH  11  12
ATOM     12  C   UNL     1       3.948   6.990  18.006  0.00  0.00    +0.000 C 
BRANCH  12  13
ATOM     13  C   UNL     1       2.850   5.944  17.960  0.00  0.00    +0.000 C 
BRANCH  13  14
ATOM     14  C   UNL     1       3.074   4.890  19.065  0.00  0.00    +0.000 C 
BRANCH  14  15
ATOM     15  C   UNL     1       4.259   3.974  18.790  0.00  0.00    +0.000 C 
BRANCH  15  17
ATOM     16  C   UNL     1       3.424   1.699  18.213  0.00  0.00    +0.000 C 
ATOM     17  C   UNL     1       4.058   2.549  19.299  0.00  0.00    +0.000 C 
ENDBRANCH  15  17
ENDBRANCH  14  15
ENDBRANCH  13  14
ENDBRANCH  12  13
ENDBRANCH  11  12
ENDBRANCH   3  11
ENDBRANCH   1   8
BRANCH   1  18
ATOM     18  C   UNL     1       7.954   8.197  17.786  0.00  0.00    +0.000 C 
ATOM     19  C   UNL     1       8.828   8.798  18.630  0.00  0.00    +0.000 C 
BRANCH  19  20
ATOM     20  C   UNL     1       9.001  10.264  18.931  0.00  0.00    +0.000 A 
ATOM     21  C   UNL     1       9.600  10.698  20.123  0.00  0.00    +0.000 A 
ATOM     22  C   UNL     1      10.178  11.978  20.275  0.00  0.00    +0.000 A 
ATOM     23  C   UNL     1      10.086  12.916  19.259  0.00  0.00    +0.000 A 
ATOM     24  C   UNL     1       9.387  12.553  18.106  0.00  0.00    +0.000 A 
ATOM     25  C   UNL     1       8.884  11.239  17.923  0.00  0.00    +0.000 A 
BRANCH  23  26
ATOM     26  O   UNL     1      10.612  14.181  19.301  0.00  0.00    +0.000 OA
BRANCH  26  27
ATOM     27  C   UNL     1      10.611  14.836  20.577  0.00  0.00    +0.000 C 
BRANCH  27  28
ATOM     28  C   UNL     1       9.378  15.738  20.661  0.00  0.00    +0.000 C 
BRANCH  28  29
ATOM     29  C   UNL     1       8.549  15.444  21.912  0.00  0.00    +0.000 C 
BRANCH  29  30
ATOM     30  C   UNL     1       9.170  14.317  22.736  0.00  0.00    +0.000 C 
ATOM     31  C   UNL     1       8.170  13.737  23.722  0.00  0.00    +0.000 C 
ENDBRANCH  29  30
ENDBRANCH  28  29
ENDBRANCH  27  28
ENDBRANCH  26  27
ENDBRANCH  23  26
ENDBRANCH  19  20
ENDBRANCH   1  18
TORSDOF 15
ENDMDL
MODEL 6
REMARK VINA RESULT:      -6.9      2.215      3.216
REMARK  Name = 
REMARK  17 active torsions:
REMARK  status: ('A' for Active; 'I' for Inactive)
REMARK    1  A    between atoms: C_1  and  C_2
REMARK    2  A    between atoms: C_2  and  C_3
REMARK    3  A    between atoms: C_3  and  C_4
REMARK    4  A    between atoms: C_4  and  C_5
REMARK    5  A    between atoms: C_5  and  C_6
REMARK    6  A    between atoms: C_6  and  O_7
REMARK    7  A    between atoms: O_7  and  C_8
REMARK    8  A    between atoms: C_12  and  O_13
REMARK    9  A    between atoms: C_14  and  C_15
REMARK   10  A    between atoms: C_15  and  C_17
REMARK   11  A    between atoms: C_18  and  C_19
REMARK   12  A    between atoms: C_22  and  O_23
REMARK   13  A    between atoms: O_23  and  C_24
REMARK   14  A    between atoms: C_24  and  C_25
REMARK   15  A    between atoms: C_25  and  C_26
REMARK   16  A    between atoms: C_26  and  C_27
REMARK   17  A    between atoms: C_27  and  C_28
REMARK                            x       y       z     vdW  Elec       q    Type
REMARK                         _______ _______ _______ _____ _____    ______ ____
ROOT
ATOM      1  C   UNL     1       5.011   5.577  18.876  0.00  0.00    +0.000 C 
ATOM      2  O   UNL     1       5.921   5.540  19.698  0.00  0.00    +0.000 OA
ENDROOT
BRANCH   1   8
ATOM      3  C   UNL     1       4.801   3.763  16.911  0.00  0.00    +0.000 A 
ATOM      4  C   UNL     1       4.910   3.516  15.512  0.00  0.00    +0.000 A 
ATOM      5  C   UNL     1       5.578   4.314  14.661  0.00  0.00    +0.000 A 
ATOM      6  C   UNL     1       6.142   5.487  15.175  0.00  0.00    +0.000 A 
ATOM      7  C   UNL     1       5.925   5.846  16.511  0.00  0.00    +0.000 A 
ATOM      8  C   UNL     1       5.203   5.057  17.431  0.00  0.00    +0.000 A 
BRANCH   7   9
ATOM      9  O   UNL     1       6.531   7.020  16.899  0.00  0.00    +0.000 OA
ATOM     10  H   UNL     1       7.478   6.858  17.049  0.00  0.00    +0.000 HD
ENDBRANCH   7   9
BRANCH   3  11
ATOM     11  O   UNL     1       4.379   2.654  17.659  0.00  0.00    +0.000 OA
BRANCH  11  12
ATOM     12  C   UNL     1       2.962   2.328  17.373  0.00  0.00    +0.000 C 
BRANCH  12  13
ATOM     13  C   UNL     1       1.969   3.420  17.725  0.00  0.00    +0.000 C 
BRANCH  13  14
ATOM     14  C   UNL     1       0.847   2.849  18.619  0.00  0.00    +0.000 C 
BRANCH  14  15
ATOM     15  C   UNL     1       0.728   3.560  19.961  0.00  0.00    +0.000 C 
BRANCH  15  17
ATOM     16  C   UNL     1       2.402   3.611  21.804  0.00  0.00    +0.000 C 
ATOM     17  C   UNL     1       1.335   2.776  21.120  0.00  0.00    +0.000 C 
ENDBRANCH  15  17
ENDBRANCH  14  15
ENDBRANCH  13  14
ENDBRANCH  12  13
ENDBRANCH  11  12
ENDBRANCH   3  11
ENDBRANCH   1   8
BRANCH   1  18
ATOM     18  C   UNL     1       3.618   6.098  19.364  0.00  0.00    +0.000 C 
ATOM     19  C   UNL     1       2.920   7.011  18.643  0.00  0.00    +0.000 C 
BRANCH  19  20
ATOM     20  C   UNL     1       1.944   8.053  19.122  0.00  0.00    +0.000 A 
ATOM     21  C   UNL     1       1.545   8.115  20.466  0.00  0.00    +0.000 A 
ATOM     22  C   UNL     1       1.007   9.279  21.058  0.00  0.00    +0.000 A 
ATOM     23  C   UNL     1       0.754  10.406  20.291  0.00  0.00    +0.000 A 
ATOM     24  C   UNL     1       1.028  10.331  18.925  0.00  0.00    +0.000 A 
ATOM     25  C   UNL     1       1.647   9.191  18.350  0.00  0.00    +0.000 A 
BRANCH  23  26
ATOM     26  O   UNL     1       0.239  11.584  20.765  0.00  0.00    +0.000 OA
BRANCH  26  27
ATOM     27  C   UNL     1      -1.147  11.578  21.135  0.00  0.00    +0.000 C 
BRANCH  27  28
ATOM     28  C   UNL     1      -1.245  11.704  22.656  0.00  0.00    +0.000 C 
BRANCH  28  29
ATOM     29  C   UNL     1      -1.237  13.167  23.102  0.00  0.00    +0.000 C 
BRANCH  29  30
ATOM     30  C   UNL     1      -2.584  13.570  23.701  0.00  0.00    +0.000 C 
ATOM     31  C   UNL     1      -3.537  12.389  23.767  0.00  0.00    +0.000 C 
ENDBRANCH  29  30
ENDBRANCH  28  29
ENDBRANCH  27  28
ENDBRANCH  26  27
ENDBRANCH  23  26
ENDBRANCH  19  20
ENDBRANCH   1  18
TORSDOF 15
ENDMDL
MODEL 7
REMARK VINA RESULT:      -6.9      2.091      3.280
REMARK  Name = 
REMARK  17 active torsions:
REMARK  status: ('A' for Active; 'I' for Inactive)
REMARK    1  A    between atoms: C_1  and  C_2
REMARK    2  A    between atoms: C_2  and  C_3
REMARK    3  A    between atoms: C_3  and  C_4
REMARK    4  A    between atoms: C_4  and  C_5
REMARK    5  A    between atoms: C_5  and  C_6
REMARK    6  A    between atoms: C_6  and  O_7
REMARK    7  A    between atoms: O_7  and  C_8
REMARK    8  A    between atoms: C_12  and  O_13
REMARK    9  A    between atoms: C_14  and  C_15
REMARK   10  A    between atoms: C_15  and  C_17
REMARK   11  A    between atoms: C_18  and  C_19
REMARK   12  A    between atoms: C_22  and  O_23
REMARK   13  A    between atoms: O_23  and  C_24
REMARK   14  A    between atoms: C_24  and  C_25
REMARK   15  A    between atoms: C_25  and  C_26
REMARK   16  A    between atoms: C_26  and  C_27
REMARK   17  A    between atoms: C_27  and  C_28
REMARK                            x       y       z     vdW  Elec       q    Type
REMARK                         _______ _______ _______ _____ _____    ______ ____
ROOT
ATOM      1  C   UNL     1       5.456   5.263  18.758  0.00  0.00    +0.000 C 
ATOM      2  O   UNL     1       6.325   5.056  19.598  0.00  0.00    +0.000 OA
ENDROOT
BRANCH   1   8
ATOM      3  C   UNL     1       4.779   4.114  16.431  0.00  0.00    +0.000 A 
ATOM      4  C   UNL     1       5.052   4.015  15.036  0.00  0.00    +0.000 A 
ATOM      5  C   UNL     1       6.209   4.403  14.470  0.00  0.00    +0.000 A 
ATOM      6  C   UNL     1       7.170   4.997  15.296  0.00  0.00    +0.000 A 
ATOM      7  C   UNL     1       6.879   5.257  16.641  0.00  0.00    +0.000 A 
ATOM      8  C   UNL     1       5.667   4.897  17.269  0.00  0.00    +0.000 A 
BRANCH   7   9
ATOM      9  O   UNL     1       7.902   5.844  17.351  0.00  0.00    +0.000 OA
ATOM     10  H   UNL     1       8.460   6.358  16.742  0.00  0.00    +0.000 HD
ENDBRANCH   7   9
BRANCH   3  11
ATOM     11  O   UNL     1       3.686   3.345  16.857  0.00  0.00    +0.000 OA
BRANCH  11  12
ATOM     12  C   UNL     1       4.111   2.307  17.824  0.00  0.00    +0.000 C 
BRANCH  12  13
ATOM     13  C   UNL     1       3.094   1.978  18.902  0.00  0.00    +0.000 C 
BRANCH  13  14
ATOM     14  C   UNL     1       3.675   2.299  20.296  0.00  0.00    +0.000 C 
BRANCH  14  15
ATOM     15  C   UNL     1       2.606   2.630  21.329  0.00  0.00    +0.000 C 
BRANCH  15  17
ATOM     16  C   UNL     1       0.826   4.082  20.370  0.00  0.00    +0.000 C 
ATOM     17  C   UNL     1       2.080   4.059  21.224  0.00  0.00    +0.000 C 
ENDBRANCH  15  17
ENDBRANCH  14  15
ENDBRANCH  13  14
ENDBRANCH  12  13
ENDBRANCH  11  12
ENDBRANCH   3  11
ENDBRANCH   1   8
BRANCH   1  18
ATOM     18  C   UNL     1       4.089   5.839  19.258  0.00  0.00    +0.000 C 
ATOM     19  C   UNL     1       3.237   6.461  18.405  0.00  0.00    +0.000 C 
BRANCH  19  20
ATOM     20  C   UNL     1       2.238   7.550  18.689  0.00  0.00    +0.000 A 
ATOM     21  C   UNL     1       1.805   7.821  19.997  0.00  0.00    +0.000 A 
ATOM     22  C   UNL     1       1.240   9.056  20.382  0.00  0.00    +0.000 A 
ATOM     23  C   UNL     1       0.992  10.042  19.439  0.00  0.00    +0.000 A 
ATOM     24  C   UNL     1       1.299   9.753  18.108  0.00  0.00    +0.000 A 
ATOM     25  C   UNL     1       1.946   8.546  17.738  0.00  0.00    +0.000 A 
BRANCH  23  26
ATOM     26  O   UNL     1       0.452  11.272  19.705  0.00  0.00    +0.000 OA
BRANCH  26  27
ATOM     27  C   UNL     1       1.200  12.127  20.583  0.00  0.00    +0.000 C 
BRANCH  27  28
ATOM     28  C   UNL     1       2.073  13.053  19.734  0.00  0.00    +0.000 C 
BRANCH  28  29
ATOM     29  C   UNL     1       2.915  13.987  20.604  0.00  0.00    +0.000 C 
BRANCH  29  30
ATOM     30  C   UNL     1       2.604  15.452  20.305  0.00  0.00    +0.000 C 
ATOM     31  C   UNL     1       2.080  15.630  18.889  0.00  0.00    +0.000 C 
ENDBRANCH  29  30
ENDBRANCH  28  29
ENDBRANCH  27  28
ENDBRANCH  26  27
ENDBRANCH  23  26
ENDBRANCH  19  20
ENDBRANCH   1  18
TORSDOF 15
ENDMDL
MODEL 8
REMARK VINA RESULT:      -6.7      2.321      8.023
REMARK  Name = 
REMARK  17 active torsions:
REMARK  status: ('A' for Active; 'I' for Inactive)
REMARK    1  A    between atoms: C_1  and  C_2
REMARK    2  A    between atoms: C_2  and  C_3
REMARK    3  A    between atoms: C_3  and  C_4
REMARK    4  A    between atoms: C_4  and  C_5
REMARK    5  A    between atoms: C_5  and  C_6
REMARK    6  A    between atoms: C_6  and  O_7
REMARK    7  A    between atoms: O_7  and  C_8
REMARK    8  A    between atoms: C_12  and  O_13
REMARK    9  A    between atoms: C_14  and  C_15
REMARK   10  A    between atoms: C_15  and  C_17
REMARK   11  A    between atoms: C_18  and  C_19
REMARK   12  A    between atoms: C_22  and  O_23
REMARK   13  A    between atoms: O_23  and  C_24
REMARK   14  A    between atoms: C_24  and  C_25
REMARK   15  A    between atoms: C_25  and  C_26
REMARK   16  A    between atoms: C_26  and  C_27
REMARK   17  A    between atoms: C_27  and  C_28
REMARK                            x       y       z     vdW  Elec       q    Type
REMARK                         _______ _______ _______ _____ _____    ______ ____
ROOT
ATOM      1  C   UNL     1       0.760  10.079  18.671  0.00  0.00    +0.000 C 
ATOM      2  O   UNL     1      -0.031  10.680  17.951  0.00  0.00    +0.000 OA
ENDROOT
BRANCH   1   8
ATOM      3  C   UNL     1       1.132   8.965  21.082  0.00  0.00    +0.000 A 
ATOM      4  C   UNL     1       0.923   9.087  22.487  0.00  0.00    +0.000 A 
ATOM      5  C   UNL     1       0.009   9.903  23.040  0.00  0.00    +0.000 A 
ATOM      6  C   UNL     1      -0.732  10.725  22.184  0.00  0.00    +0.000 A 
ATOM      7  C   UNL     1      -0.449  10.752  20.813  0.00  0.00    +0.000 A 
ATOM      8  C   UNL     1       0.523   9.937  20.194  0.00  0.00    +0.000 A 
BRANCH   7   9
ATOM      9  O   UNL     1      -1.244  11.599  20.075  0.00  0.00    +0.000 OA
ATOM     10  H   UNL     1      -0.758  12.423  19.899  0.00  0.00    +0.000 HD
ENDBRANCH   7   9
BRANCH   3  11
ATOM     11  O   UNL     1       1.862   7.828  20.706  0.00  0.00    +0.000 OA
BRANCH  11  12
ATOM     12  C   UNL     1       1.130   6.588  21.051  0.00  0.00    +0.000 C 
BRANCH  12  13
ATOM     13  C   UNL     1       1.921   5.305  20.874  0.00  0.00    +0.000 C 
BRANCH  13  14
ATOM     14  C   UNL     1       0.992   4.171  20.390  0.00  0.00    +0.000 C 
BRANCH  14  15
ATOM     15  C   UNL     1       1.501   2.782  20.754  0.00  0.00    +0.000 C 
BRANCH  15  17
ATOM     16  C   UNL     1       1.440   2.634  18.269  0.00  0.00    +0.000 C 
ATOM     17  C   UNL     1       1.633   1.849  19.553  0.00  0.00    +0.000 C 
ENDBRANCH  15  17
ENDBRANCH  14  15
ENDBRANCH  13  14
ENDBRANCH  12  13
ENDBRANCH  11  12
ENDBRANCH   3  11
ENDBRANCH   1   8
BRANCH   1  18
ATOM     18  C   UNL     1       1.984   9.389  17.980  0.00  0.00    +0.000 C 
ATOM     19  C   UNL     1       2.041   8.041  17.840  0.00  0.00    +0.000 C 
BRANCH  19  20
ATOM     20  C   UNL     1       3.248   7.143  17.784  0.00  0.00    +0.000 A 
ATOM     21  C   UNL     1       3.118   5.754  17.635  0.00  0.00    +0.000 A 
ATOM     22  C   UNL     1       4.155   4.929  17.147  0.00  0.00    +0.000 A 
ATOM     23  C   UNL     1       5.409   5.458  16.882  0.00  0.00    +0.000 A 
ATOM     24  C   UNL     1       5.603   6.816  17.138  0.00  0.00    +0.000 A 
ATOM     25  C   UNL     1       4.536   7.658  17.545  0.00  0.00    +0.000 A 
BRANCH  23  26
ATOM     26  O   UNL     1       6.481   4.750  16.405  0.00  0.00    +0.000 OA
BRANCH  26  27
ATOM     27  C   UNL     1       6.809   4.936  15.021  0.00  0.00    +0.000 C 
BRANCH  27  28
ATOM     28  C   UNL     1       6.317   3.719  14.236  0.00  0.00    +0.000 C 
BRANCH  28  29
ATOM     29  C   UNL     1       6.508   3.905  12.730  0.00  0.00    +0.000 C 
BRANCH  29  30
ATOM     30  C   UNL     1       5.362   3.271  11.944  0.00  0.00    +0.000 C 
ATOM     31  C   UNL     1       5.751   1.907  11.400  0.00  0.00    +0.000 C 
ENDBRANCH  29  30
ENDBRANCH  28  29
ENDBRANCH  27  28
ENDBRANCH  26  27
ENDBRANCH  23  26
ENDBRANCH  19  20
ENDBRANCH   1  18
TORSDOF 15
ENDMDL
MODEL 9
REMARK VINA RESULT:      -6.7      1.934      2.453
REMARK  Name = 
REMARK  17 active torsions:
REMARK  status: ('A' for Active; 'I' for Inactive)
REMARK    1  A    between atoms: C_1  and  C_2
REMARK    2  A    between atoms: C_2  and  C_3
REMARK    3  A    between atoms: C_3  and  C_4
REMARK    4  A    between atoms: C_4  and  C_5
REMARK    5  A    between atoms: C_5  and  C_6
REMARK    6  A    between atoms: C_6  and  O_7
REMARK    7  A    between atoms: O_7  and  C_8
REMARK    8  A    between atoms: C_12  and  O_13
REMARK    9  A    between atoms: C_14  and  C_15
REMARK   10  A    between atoms: C_15  and  C_17
REMARK   11  A    between atoms: C_18  and  C_19
REMARK   12  A    between atoms: C_22  and  O_23
REMARK   13  A    between atoms: O_23  and  C_24
REMARK   14  A    between atoms: C_24  and  C_25
REMARK   15  A    between atoms: C_25  and  C_26
REMARK   16  A    between atoms: C_26  and  C_27
REMARK   17  A    between atoms: C_27  and  C_28
REMARK                            x       y       z     vdW  Elec       q    Type
REMARK                         _______ _______ _______ _____ _____    ______ ____
ROOT
ATOM      1  C   UNL     1       5.681   4.996  18.696  0.00  0.00    +0.000 C 
ATOM      2  O   UNL     1       6.215   4.263  19.521  0.00  0.00    +0.000 OA
ENDROOT
BRANCH   1   8
ATOM      3  C   UNL     1       5.109   3.809  16.359  0.00  0.00    +0.000 A 
ATOM      4  C   UNL     1       5.275   3.839  14.945  0.00  0.00    +0.000 A 
ATOM      5  C   UNL     1       6.244   4.531  14.319  0.00  0.00    +0.000 A 
ATOM      6  C   UNL     1       7.095   5.316  15.105  0.00  0.00    +0.000 A 
ATOM      7  C   UNL     1       6.868   5.438  16.482  0.00  0.00    +0.000 A 
ATOM      8  C   UNL     1       5.844   4.757  17.175  0.00  0.00    +0.000 A 
BRANCH   7   9
ATOM      9  O   UNL     1       7.771   6.236  17.147  0.00  0.00    +0.000 OA
ATOM     10  H   UNL     1       8.608   5.754  17.254  0.00  0.00    +0.000 HD
ENDBRANCH   7   9
BRANCH   3  11
ATOM     11  O   UNL     1       4.285   2.771  16.819  0.00  0.00    +0.000 OA
BRANCH  11  12
ATOM     12  C   UNL     1       2.880   3.224  16.946  0.00  0.00    +0.000 C 
BRANCH  12  13
ATOM     13  C   UNL     1       2.053   2.474  17.973  0.00  0.00    +0.000 C 
BRANCH  13  14
ATOM     14  C   UNL     1       1.038   3.428  18.638  0.00  0.00    +0.000 C 
BRANCH  14  15
ATOM     15  C   UNL     1       0.672   3.019  20.058  0.00  0.00    +0.000 C 
BRANCH  15  17
ATOM     16  C   UNL     1       2.618   2.800  21.596  0.00  0.00    +0.000 C 
ATOM     17  C   UNL     1       1.505   3.720  21.128  0.00  0.00    +0.000 C 
ENDBRANCH  15  17
ENDBRANCH  14  15
ENDBRANCH  13  14
ENDBRANCH  12  13
ENDBRANCH  11  12
ENDBRANCH   3  11
ENDBRANCH   1   8
BRANCH   1  18
ATOM     18  C   UNL     1       4.760   6.142  19.234  0.00  0.00    +0.000 C 
ATOM     19  C   UNL     1       3.414   6.088  19.080  0.00  0.00    +0.000 C 
BRANCH  19  20
ATOM     20  C   UNL     1       2.428   7.220  18.954  0.00  0.00    +0.000 A 
ATOM     21  C   UNL     1       1.734   7.710  20.071  0.00  0.00    +0.000 A 
ATOM     22  C   UNL     1       1.156   8.998  20.117  0.00  0.00    +0.000 A 
ATOM     23  C   UNL     1       1.166   9.813  18.996  0.00  0.00    +0.000 A 
ATOM     24  C   UNL     1       1.742   9.303  17.831  0.00  0.00    +0.000 A 
ATOM     25  C   UNL     1       2.397   8.044  17.814  0.00  0.00    +0.000 A 
BRANCH  23  26
ATOM     26  O   UNL     1       0.638  11.076  18.933  0.00  0.00    +0.000 OA
BRANCH  26  27
ATOM     27  C   UNL     1       0.091  11.606  20.148  0.00  0.00    +0.000 C 
BRANCH  27  28
ATOM     28  C   UNL     1      -0.902  12.714  19.793  0.00  0.00    +0.000 C 
BRANCH  28  29
ATOM     29  C   UNL     1      -0.473  13.474  18.537  0.00  0.00    +0.000 C 
BRANCH  29  30
ATOM     30  C   UNL     1       0.485  14.613  18.879  0.00  0.00    +0.000 C 
ATOM     31  C   UNL     1      -0.216  15.961  18.826  0.00  0.00    +0.000 C 
ENDBRANCH  29  30
ENDBRANCH  28  29
ENDBRANCH  27  28
ENDBRANCH  26  27
ENDBRANCH  23  26
ENDBRANCH  19  20
ENDBRANCH   1  18
TORSDOF 15
ENDMDL
