MODEL 1
REMARK VINA RESULT:      -6.5      0.000      0.000
REMARK  Name = 
REMARK  4 active torsions:
REMARK  status: ('A' for Active; 'I' for Inactive)
REMARK    1  A    between atoms: C_1  and  C_2
REMARK    2  A    between atoms: C_5  and  C_6
REMARK    3  A    between atoms: C_7  and  S_8
REMARK    4  A    between atoms: C_12  and  C_13
REMARK                            x       y       z     vdW  Elec       q    Type
REMARK                         _______ _______ _______ _____ _____    ______ ____
ROOT
ATOM      1  C   UNL     1       1.431   2.844  21.596  0.00  0.00    +0.000 C 
ATOM      2  C   UNL     1       2.233   3.308  20.417  0.00  0.00    +0.000 A 
ATOM      3  C   UNL     1       3.189   2.484  19.828  0.00  0.00    +0.000 A 
ATOM      4  C   UNL     1       3.928   2.931  18.728  0.00  0.00    +0.000 A 
ATOM      5  C   UNL     1       3.728   4.207  18.173  0.00  0.00    +0.000 A 
ATOM      6  C   UNL     1       2.767   5.051  18.772  0.00  0.00    +0.000 A 
ATOM      7  C   UNL     1       2.440   6.447  18.304  0.00  0.00    +0.000 C 
ATOM      8  C   UNL     1       2.033   4.586  19.886  0.00  0.00    +0.000 A 
ENDROOT
BRANCH   5   9
ATOM      9  C   UNL     1       4.561   4.648  17.035  0.00  0.00    +0.000 C 
ATOM     10  C   UNL     1       5.365   3.852  16.310  0.00  0.00    +0.000 C 
BRANCH  10  11
ATOM     11  S   UNL     1       6.261   4.531  14.993  0.00  0.00    +0.000 S 
ATOM     12  O   UNL     1       7.578   4.907  15.461  0.00  0.00    +0.000 OA
ATOM     13  O   UNL     1       6.084   3.724  13.801  0.00  0.00    +0.000 OA
ATOM     14  F   UNL     1       5.538   5.908  14.664  0.00  0.00    +0.000 F 
ENDBRANCH  10  11
ENDBRANCH   5   9
TORSDOF 2
ENDMDL
MODEL 2
REMARK VINA RESULT:      -6.4      0.923      1.097
REMARK  Name = 
REMARK  4 active torsions:
REMARK  status: ('A' for Active; 'I' for Inactive)
REMARK    1  A    between atoms: C_1  and  C_2
REMARK    2  A    between atoms: C_5  and  C_6
REMARK    3  A    between atoms: C_7  and  S_8
REMARK    4  A    between atoms: C_12  and  C_13
REMARK                            x       y       z     vdW  Elec       q    Type
REMARK                         _______ _______ _______ _____ _____    ______ ____
ROOT
ATOM      1  C   UNL     1       1.437   2.740  21.632  0.00  0.00    +0.000 C 
ATOM      2  C   UNL     1       2.234   3.266  20.476  0.00  0.00    +0.000 A 
ATOM      3  C   UNL     1       3.248   2.506  19.896  0.00  0.00    +0.000 A 
ATOM      4  C   UNL     1       3.982   3.010  18.818  0.00  0.00    +0.000 A 
ATOM      5  C   UNL     1       3.721   4.281  18.276  0.00  0.00    +0.000 A 
ATOM      6  C   UNL     1       2.701   5.060  18.866  0.00  0.00    +0.000 A 
ATOM      7  C   UNL     1       2.305   6.443  18.411  0.00  0.00    +0.000 C 
ATOM      8  C   UNL     1       1.973   4.538  19.958  0.00  0.00    +0.000 A 
ENDROOT
BRANCH   5   9
ATOM      9  C   UNL     1       4.550   4.785  17.162  0.00  0.00    +0.000 C 
ATOM     10  C   UNL     1       5.511   4.086  16.534  0.00  0.00    +0.000 C 
BRANCH  10  11
ATOM     11  S   UNL     1       6.377   4.826  15.230  0.00  0.00    +0.000 S 
ATOM     12  O   UNL     1       5.767   6.102  14.920  0.00  0.00    +0.000 OA
ATOM     13  O   UNL     1       7.806   4.705  15.449  0.00  0.00    +0.000 OA
ATOM     14  F   UNL     1       6.080   3.914  13.962  0.00  0.00    +0.000 F 
ENDBRANCH  10  11
ENDBRANCH   5   9
TORSDOF 2
ENDMDL
MODEL 3
REMARK VINA RESULT:      -6.3      2.346      2.591
REMARK  Name = 
REMARK  4 active torsions:
REMARK  status: ('A' for Active; 'I' for Inactive)
REMARK    1  A    between atoms: C_1  and  C_2
REMARK    2  A    between atoms: C_5  and  C_6
REMARK    3  A    between atoms: C_7  and  S_8
REMARK    4  A    between atoms: C_12  and  C_13
REMARK                            x       y       z     vdW  Elec       q    Type
REMARK                         _______ _______ _______ _____ _____    ______ ____
ROOT
ATOM      1  C   UNL     1       0.543   2.293  18.809  0.00  0.00    +0.000 C 
ATOM      2  C   UNL     1       1.663   3.234  18.478  0.00  0.00    +0.000 A 
ATOM      3  C   UNL     1       2.722   2.837  17.665  0.00  0.00    +0.000 A 
ATOM      4  C   UNL     1       3.758   3.726  17.366  0.00  0.00    +0.000 A 
ATOM      5  C   UNL     1       3.765   5.044  17.857  0.00  0.00    +0.000 A 
ATOM      6  C   UNL     1       2.700   5.450  18.691  0.00  0.00    +0.000 A 
ATOM      7  C   UNL     1       2.565   6.821  19.304  0.00  0.00    +0.000 C 
ATOM      8  C   UNL     1       1.664   4.537  18.987  0.00  0.00    +0.000 A 
ENDROOT
BRANCH   5   9
ATOM      9  C   UNL     1       4.902   5.935  17.545  0.00  0.00    +0.000 C 
ATOM     10  C   UNL     1       6.143   5.809  18.045  0.00  0.00    +0.000 C 
BRANCH  10  11
ATOM     11  S   UNL     1       7.367   6.934  17.556  0.00  0.00    +0.000 S 
ATOM     12  O   UNL     1       8.287   7.138  18.655  0.00  0.00    +0.000 OA
ATOM     13  O   UNL     1       7.840   6.608  16.224  0.00  0.00    +0.000 OA
ATOM     14  F   UNL     1       6.614   8.324  17.393  0.00  0.00    +0.000 F 
ENDBRANCH  10  11
ENDBRANCH   5   9
TORSDOF 2
ENDMDL
MODEL 4
REMARK VINA RESULT:      -6.3      4.523      5.885
REMARK  Name = 
REMARK  4 active torsions:
REMARK  status: ('A' for Active; 'I' for Inactive)
REMARK    1  A    between atoms: C_1  and  C_2
REMARK    2  A    between atoms: C_5  and  C_6
REMARK    3  A    between atoms: C_7  and  S_8
REMARK    4  A    between atoms: C_12  and  C_13
REMARK                            x       y       z     vdW  Elec       q    Type
REMARK                         _______ _______ _______ _____ _____    ______ ____
ROOT
ATOM      1  C   UNL     1       6.937   4.984  14.329  0.00  0.00    +0.000 C 
ATOM      2  C   UNL     1       5.915   4.895  15.423  0.00  0.00    +0.000 A 
ATOM      3  C   UNL     1       5.509   3.662  15.930  0.00  0.00    +0.000 A 
ATOM      4  C   UNL     1       4.555   3.595  16.950  0.00  0.00    +0.000 A 
ATOM      5  C   UNL     1       3.986   4.754  17.506  0.00  0.00    +0.000 A 
ATOM      6  C   UNL     1       4.386   6.006  16.990  0.00  0.00    +0.000 A 
ATOM      7  C   UNL     1       3.865   7.339  17.469  0.00  0.00    +0.000 C 
ATOM      8  C   UNL     1       5.347   6.056  15.955  0.00  0.00    +0.000 A 
ENDROOT
BRANCH   5   9
ATOM      9  C   UNL     1       2.954   4.630  18.556  0.00  0.00    +0.000 C 
ATOM     10  C   UNL     1       3.103   3.963  19.713  0.00  0.00    +0.000 C 
BRANCH  10  11
ATOM     11  S   UNL     1       1.792   3.934  20.845  0.00  0.00    +0.000 S 
ATOM     12  O   UNL     1       2.239   3.304  22.070  0.00  0.00    +0.000 OA
ATOM     13  O   UNL     1       1.116   5.217  20.857  0.00  0.00    +0.000 OA
ATOM     14  F   UNL     1       0.733   2.921  20.229  0.00  0.00    +0.000 F 
ENDBRANCH  10  11
ENDBRANCH   5   9
TORSDOF 2
ENDMDL
MODEL 5
REMARK VINA RESULT:      -6.3      1.472      1.525
REMARK  Name = 
REMARK  4 active torsions:
REMARK  status: ('A' for Active; 'I' for Inactive)
REMARK    1  A    between atoms: C_1  and  C_2
REMARK    2  A    between atoms: C_5  and  C_6
REMARK    3  A    between atoms: C_7  and  S_8
REMARK    4  A    between atoms: C_12  and  C_13
REMARK                            x       y       z     vdW  Elec       q    Type
REMARK                         _______ _______ _______ _____ _____    ______ ____
ROOT
ATOM      1  C   UNL     1       1.333   2.558  21.887  0.00  0.00    +0.000 C 
ATOM      2  C   UNL     1       2.251   2.999  20.785  0.00  0.00    +0.000 A 
ATOM      3  C   UNL     1       3.511   2.429  20.626  0.00  0.00    +0.000 A 
ATOM      4  C   UNL     1       4.355   2.851  19.594  0.00  0.00    +0.000 A 
ATOM      5  C   UNL     1       3.963   3.845  18.680  0.00  0.00    +0.000 A 
ATOM      6  C   UNL     1       2.690   4.436  18.843  0.00  0.00    +0.000 A 
ATOM      7  C   UNL     1       2.126   5.519  17.957  0.00  0.00    +0.000 C 
ATOM      8  C   UNL     1       1.853   4.001  19.895  0.00  0.00    +0.000 A 
ENDROOT
BRANCH   5   9
ATOM      9  C   UNL     1       4.904   4.285  17.630  0.00  0.00    +0.000 C 
ATOM     10  C   UNL     1       5.878   5.196  17.796  0.00  0.00    +0.000 C 
BRANCH  10  11
ATOM     11  S   UNL     1       6.909   5.582  16.459  0.00  0.00    +0.000 S 
ATOM     12  O   UNL     1       7.890   4.530  16.298  0.00  0.00    +0.000 OA
ATOM     13  O   UNL     1       6.116   6.054  15.339  0.00  0.00    +0.000 OA
ATOM     14  F   UNL     1       7.745   6.850  16.930  0.00  0.00    +0.000 F 
ENDBRANCH  10  11
ENDBRANCH   5   9
TORSDOF 2
ENDMDL
MODEL 6
REMARK VINA RESULT:      -6.2      1.119      1.330
REMARK  Name = 
REMARK  4 active torsions:
REMARK  status: ('A' for Active; 'I' for Inactive)
REMARK    1  A    between atoms: C_1  and  C_2
REMARK    2  A    between atoms: C_5  and  C_6
REMARK    3  A    between atoms: C_7  and  S_8
REMARK    4  A    between atoms: C_12  and  C_13
REMARK                            x       y       z     vdW  Elec       q    Type
REMARK                         _______ _______ _______ _____ _____    ______ ____
ROOT
ATOM      1  C   UNL     1       1.352   2.700  21.029  0.00  0.00    +0.000 C 
ATOM      2  C   UNL     1       2.161   3.192  19.865  0.00  0.00    +0.000 A 
ATOM      3  C   UNL     1       1.785   2.905  18.555  0.00  0.00    +0.000 A 
ATOM      4  C   UNL     1       2.549   3.372  17.481  0.00  0.00    +0.000 A 
ATOM      5  C   UNL     1       3.704   4.149  17.679  0.00  0.00    +0.000 A 
ATOM      6  C   UNL     1       4.096   4.433  19.005  0.00  0.00    +0.000 A 
ATOM      7  C   UNL     1       5.311   5.242  19.386  0.00  0.00    +0.000 C 
ATOM      8  C   UNL     1       3.316   3.950  20.079  0.00  0.00    +0.000 A 
ENDROOT
BRANCH   5   9
ATOM      9  C   UNL     1       4.500   4.585  16.513  0.00  0.00    +0.000 C 
ATOM     10  C   UNL     1       5.593   3.960  16.045  0.00  0.00    +0.000 C 
BRANCH  10  11
ATOM     11  S   UNL     1       6.398   4.599  14.651  0.00  0.00    +0.000 S 
ATOM     12  O   UNL     1       7.629   5.238  15.067  0.00  0.00    +0.000 OA
ATOM     13  O   UNL     1       6.377   3.627  13.574  0.00  0.00    +0.000 OA
ATOM     14  F   UNL     1       5.473   5.789  14.144  0.00  0.00    +0.000 F 
ENDBRANCH  10  11
ENDBRANCH   5   9
TORSDOF 2
ENDMDL
MODEL 7
REMARK VINA RESULT:      -6.2      2.155      2.384
REMARK  Name = 
REMARK  4 active torsions:
REMARK  status: ('A' for Active; 'I' for Inactive)
REMARK    1  A    between atoms: C_1  and  C_2
REMARK    2  A    between atoms: C_5  and  C_6
REMARK    3  A    between atoms: C_7  and  S_8
REMARK    4  A    between atoms: C_12  and  C_13
REMARK                            x       y       z     vdW  Elec       q    Type
REMARK                         _______ _______ _______ _____ _____    ______ ____
ROOT
ATOM      1  C   UNL     1       1.239   2.554  21.969  0.00  0.00    +0.000 C 
ATOM      2  C   UNL     1       2.184   3.249  21.034  0.00  0.00    +0.000 A 
ATOM      3  C   UNL     1       3.277   2.582  20.487  0.00  0.00    +0.000 A 
ATOM      4  C   UNL     1       4.148   3.243  19.616  0.00  0.00    +0.000 A 
ATOM      5  C   UNL     1       3.949   4.587  19.253  0.00  0.00    +0.000 A 
ATOM      6  C   UNL     1       2.849   5.273  19.813  0.00  0.00    +0.000 A 
ATOM      7  C   UNL     1       2.504   6.715  19.535  0.00  0.00    +0.000 C 
ATOM      8  C   UNL     1       1.982   4.591  20.695  0.00  0.00    +0.000 A 
ENDROOT
BRANCH   5   9
ATOM      9  C   UNL     1       4.919   5.254  18.361  0.00  0.00    +0.000 C 
ATOM     10  C   UNL     1       6.145   5.669  18.722  0.00  0.00    +0.000 C 
BRANCH  10  11
ATOM     11  S   UNL     1       7.165   6.419  17.540  0.00  0.00    +0.000 S 
ATOM     12  O   UNL     1       7.744   5.394  16.696  0.00  0.00    +0.000 OA
ATOM     13  O   UNL     1       6.502   7.579  16.974  0.00  0.00    +0.000 OA
ATOM     14  F   UNL     1       8.391   7.010  18.361  0.00  0.00    +0.000 F 
ENDBRANCH  10  11
ENDBRANCH   5   9
TORSDOF 2
ENDMDL
MODEL 8
REMARK VINA RESULT:      -6.1      1.176      1.379
REMARK  Name = 
REMARK  4 active torsions:
REMARK  status: ('A' for Active; 'I' for Inactive)
REMARK    1  A    between atoms: C_1  and  C_2
REMARK    2  A    between atoms: C_5  and  C_6
REMARK    3  A    between atoms: C_7  and  S_8
REMARK    4  A    between atoms: C_12  and  C_13
REMARK                            x       y       z     vdW  Elec       q    Type
REMARK                         _______ _______ _______ _____ _____    ______ ____
ROOT
ATOM      1  C   UNL     1       1.166   2.650  21.804  0.00  0.00    +0.000 C 
ATOM      2  C   UNL     1       1.881   3.268  20.639  0.00  0.00    +0.000 A 
ATOM      3  C   UNL     1       2.509   2.478  19.679  0.00  0.00    +0.000 A 
ATOM      4  C   UNL     1       3.170   3.069  18.598  0.00  0.00    +0.000 A 
ATOM      5  C   UNL     1       3.216   4.465  18.434  0.00  0.00    +0.000 A 
ATOM      6  C   UNL     1       2.591   5.271  19.410  0.00  0.00    +0.000 A 
ATOM      7  C   UNL     1       2.558   6.779  19.385  0.00  0.00    +0.000 C 
ATOM      8  C   UNL     1       1.931   4.658  20.498  0.00  0.00    +0.000 A 
ENDROOT
BRANCH   5   9
ATOM      9  C   UNL     1       3.961   5.043  17.296  0.00  0.00    +0.000 C 
ATOM     10  C   UNL     1       4.958   4.432  16.633  0.00  0.00    +0.000 C 
BRANCH  10  11
ATOM     11  S   UNL     1       5.713   5.249  15.306  0.00  0.00    +0.000 S 
ATOM     12  O   UNL     1       5.757   4.358  14.165  0.00  0.00    +0.000 OA
ATOM     13  O   UNL     1       5.195   6.599  15.192  0.00  0.00    +0.000 OA
ATOM     14  F   UNL     1       7.232   5.431  15.739  0.00  0.00    +0.000 F 
ENDBRANCH  10  11
ENDBRANCH   5   9
TORSDOF 2
ENDMDL
MODEL 9
REMARK VINA RESULT:      -6.1      4.542      6.044
REMARK  Name = 
REMARK  4 active torsions:
REMARK  status: ('A' for Active; 'I' for Inactive)
REMARK    1  A    between atoms: C_1  and  C_2
REMARK    2  A    between atoms: C_5  and  C_6
REMARK    3  A    between atoms: C_7  and  S_8
REMARK    4  A    between atoms: C_12  and  C_13
REMARK                            x       y       z     vdW  Elec       q    Type
REMARK                         _______ _______ _______ _____ _____    ______ ____
ROOT
ATOM      1  C   UNL     1       7.311   4.742  14.484  0.00  0.00    +0.000 C 
ATOM      2  C   UNL     1       6.374   4.633  15.650  0.00  0.00    +0.000 A 
ATOM      3  C   UNL     1       5.077   4.151  15.490  0.00  0.00    +0.000 A 
ATOM      4  C   UNL     1       4.216   4.054  16.587  0.00  0.00    +0.000 A 
ATOM      5  C   UNL     1       4.625   4.422  17.881  0.00  0.00    +0.000 A 
ATOM      6  C   UNL     1       5.935   4.922  18.049  0.00  0.00    +0.000 A 
ATOM      7  C   UNL     1       6.522   5.368  19.365  0.00  0.00    +0.000 C 
ATOM      8  C   UNL     1       6.791   5.018  16.929  0.00  0.00    +0.000 A 
ENDROOT
BRANCH   5   9
ATOM      9  C   UNL     1       3.666   4.339  19.002  0.00  0.00    +0.000 C 
ATOM     10  C   UNL     1       3.434   3.241  19.742  0.00  0.00    +0.000 C 
BRANCH  10  11
ATOM     11  S   UNL     1       2.286   3.323  21.035  0.00  0.00    +0.000 S 
ATOM     12  O   UNL     1       0.948   3.270  20.484  0.00  0.00    +0.000 OA
ATOM     13  O   UNL     1       2.693   2.449  22.119  0.00  0.00    +0.000 OA
ATOM     14  F   UNL     1       2.425   4.793  21.624  0.00  0.00    +0.000 F 
ENDBRANCH  10  11
ENDBRANCH   5   9
TORSDOF 2
ENDMDL
