MODEL 1
REMARK VINA RESULT:      -6.9      0.000      0.000
REMARK  Name = 
REMARK  27 active torsions:
REMARK  status: ('A' for Active; 'I' for Inactive)
REMARK    1  A    between atoms: C_1  and  C_2
REMARK    2  A    between atoms: C_2  and  C_3
REMARK    3  A    between atoms: C_3  and  C_4
REMARK    4  A    between atoms: C_4  and  C_5
REMARK    5  A    between atoms: C_5  and  C_6
REMARK    6  A    between atoms: C_6  and  C_7
REMARK    7  A    between atoms: C_7  and  C_8
REMARK    8  A    between atoms: C_8  and  C_9
REMARK    9  A    between atoms: C_9  and  C_10
REMARK   10  A    between atoms: C_10  and  C_11
REMARK   11  A    between atoms: C_11  and  C_12
REMARK   12  A    between atoms: C_12  and  C_13
REMARK   13  A    between atoms: C_12  and  O_25
REMARK   14  A    between atoms: C_13  and  C_14
REMARK   15  A    between atoms: C_18  and  C_19
REMARK   16  A    between atoms: C_19  and  C_20
REMARK   17  A    between atoms: C_20  and  C_21
REMARK   18  A    between atoms: C_21  and  C_22
REMARK   19  A    between atoms: C_22  and  C_23
REMARK   20  A    between atoms: C_23  and  C_24
REMARK   21  A    between atoms: O_25  and  C_26
REMARK   22  A    between atoms: C_26  and  C_28
REMARK   23  A    between atoms: C_28  and  C_29
REMARK   24  A    between atoms: C_28  and  N_33
REMARK   25  A    between atoms: C_29  and  C_30
REMARK   26  A    between atoms: C_30  and  C_31
REMARK   27  A    between atoms: C_30  and  C_32
REMARK                            x       y       z     vdW  Elec       q    Type
REMARK                         _______ _______ _______ _____ _____    ______ ____
ROOT
ATOM      1  C   UNL     1       4.008   5.924  17.381  0.00  0.00    +0.000 C 
ENDROOT
BRANCH   1   2
ATOM      2  O   UNL     1       4.347   4.668  18.035  0.00  0.00    +0.000 OA
BRANCH   2   3
ATOM      3  C   UNL     1       3.491   3.612  17.880  0.00  0.00    +0.000 C 
ATOM      4  O   UNL     1       3.000   3.237  16.823  0.00  0.00    +0.000 OA
BRANCH   3   5
ATOM      5  C   UNL     1       3.273   2.873  19.196  0.00  0.00    +0.000 C 
BRANCH   5   6
ATOM      6  N   UNL     1       4.141   1.721  19.021  0.00  0.00    +0.000 N 
ATOM      7  C   UNL     1       4.948   1.215  20.013  0.00  0.00    +0.000 C 
ATOM      8  O   UNL     1       5.098   1.670  21.141  0.00  0.00    +0.000 OA
ATOM      9  H   UNL     1       4.122   1.286  18.103  0.00  0.00    +0.000 HD
ENDBRANCH   5   6
BRANCH   5  10
ATOM     10  C   UNL     1       1.802   2.452  19.336  0.00  0.00    +0.000 C 
BRANCH  10  11
ATOM     11  C   UNL     1       1.072   2.965  20.601  0.00  0.00    +0.000 C 
ATOM     12  C   UNL     1       1.818   2.635  21.893  0.00  0.00    +0.000 C 
ATOM     13  C   UNL     1       0.867   4.482  20.520  0.00  0.00    +0.000 C 
ENDBRANCH  10  11
ENDBRANCH   5  10
ENDBRANCH   3   5
ENDBRANCH   2   3
ENDBRANCH   1   2
BRANCH   1  14
ATOM     14  C   UNL     1       5.154   6.936  17.588  0.00  0.00    +0.000 C 
BRANCH  14  15
ATOM     15  C   UNL     1       6.428   6.439  16.919  0.00  0.00    +0.000 C 
ATOM     16  O   UNL     1       7.440   6.087  17.902  0.00  0.00    +0.000 OA
ATOM     17  C   UNL     1       7.618   4.852  17.377  0.00  0.00    +0.000 C 
ATOM     18  O   UNL     1       8.418   4.008  17.707  0.00  0.00    +0.000 OA
ATOM     19  C   UNL     1       6.481   5.010  16.341  0.00  0.00    +0.000 C 
BRANCH  19  20
ATOM     20  C   UNL     1       6.885   4.934  14.876  0.00  0.00    +0.000 C 
BRANCH  20  21
ATOM     21  C   UNL     1       5.815   4.214  14.065  0.00  0.00    +0.000 C 
BRANCH  21  22
ATOM     22  C   UNL     1       6.403   3.594  12.804  0.00  0.00    +0.000 C 
BRANCH  22  23
ATOM     23  C   UNL     1       5.290   3.022  11.933  0.00  0.00    +0.000 C 
BRANCH  23  24
ATOM     24  C   UNL     1       5.722   1.711  11.289  0.00  0.00    +0.000 C 
ATOM     25  C   UNL     1       7.211   1.720  10.991  0.00  0.00    +0.000 C 
ENDBRANCH  23  24
ENDBRANCH  22  23
ENDBRANCH  21  22
ENDBRANCH  20  21
ENDBRANCH  19  20
ENDBRANCH  14  15
ENDBRANCH   1  14
BRANCH   1  26
ATOM     26  C   UNL     1       2.714   6.471  18.020  0.00  0.00    +0.000 C 
BRANCH  26  27
ATOM     27  C   UNL     1       2.776   7.988  18.212  0.00  0.00    +0.000 C 
BRANCH  27  28
ATOM     28  C   UNL     1       1.579   8.713  17.593  0.00  0.00    +0.000 C 
BRANCH  28  29
ATOM     29  C   UNL     1       1.281   9.988  18.383  0.00  0.00    +0.000 C 
BRANCH  29  30
ATOM     30  C   UNL     1      -0.177  10.066  18.822  0.00  0.00    +0.000 C 
BRANCH  30  31
ATOM     31  C   UNL     1      -0.839  11.326  18.267  0.00  0.00    +0.000 C 
BRANCH  31  32
ATOM     32  C   UNL     1      -1.545  12.098  19.377  0.00  0.00    +0.000 C 
BRANCH  32  33
ATOM     33  C   UNL     1      -0.539  12.796  20.289  0.00  0.00    +0.000 C 
BRANCH  33  34
ATOM     34  C   UNL     1       0.355  13.733  19.481  0.00  0.00    +0.000 C 
BRANCH  34  36
ATOM     35  C   UNL     1      -0.377  16.003  18.709  0.00  0.00    +0.000 C 
ATOM     36  C   UNL     1       0.133  15.188  19.884  0.00  0.00    +0.000 C 
ENDBRANCH  34  36
ENDBRANCH  33  34
ENDBRANCH  32  33
ENDBRANCH  31  32
ENDBRANCH  30  31
ENDBRANCH  29  30
ENDBRANCH  28  29
ENDBRANCH  27  28
ENDBRANCH  26  27
ENDBRANCH   1  26
TORSDOF 23
ENDMDL
MODEL 2
REMARK VINA RESULT:      -6.6      2.888      4.940
REMARK  Name = 
REMARK  27 active torsions:
REMARK  status: ('A' for Active; 'I' for Inactive)
REMARK    1  A    between atoms: C_1  and  C_2
REMARK    2  A    between atoms: C_2  and  C_3
REMARK    3  A    between atoms: C_3  and  C_4
REMARK    4  A    between atoms: C_4  and  C_5
REMARK    5  A    between atoms: C_5  and  C_6
REMARK    6  A    between atoms: C_6  and  C_7
REMARK    7  A    between atoms: C_7  and  C_8
REMARK    8  A    between atoms: C_8  and  C_9
REMARK    9  A    between atoms: C_9  and  C_10
REMARK   10  A    between atoms: C_10  and  C_11
REMARK   11  A    between atoms: C_11  and  C_12
REMARK   12  A    between atoms: C_12  and  C_13
REMARK   13  A    between atoms: C_12  and  O_25
REMARK   14  A    between atoms: C_13  and  C_14
REMARK   15  A    between atoms: C_18  and  C_19
REMARK   16  A    between atoms: C_19  and  C_20
REMARK   17  A    between atoms: C_20  and  C_21
REMARK   18  A    between atoms: C_21  and  C_22
REMARK   19  A    between atoms: C_22  and  C_23
REMARK   20  A    between atoms: C_23  and  C_24
REMARK   21  A    between atoms: O_25  and  C_26
REMARK   22  A    between atoms: C_26  and  C_28
REMARK   23  A    between atoms: C_28  and  C_29
REMARK   24  A    between atoms: C_28  and  N_33
REMARK   25  A    between atoms: C_29  and  C_30
REMARK   26  A    between atoms: C_30  and  C_31
REMARK   27  A    between atoms: C_30  and  C_32
REMARK                            x       y       z     vdW  Elec       q    Type
REMARK                         _______ _______ _______ _____ _____    ______ ____
ROOT
ATOM      1  C   UNL     1       2.714   6.011  17.753  0.00  0.00    +0.000 C 
ENDROOT
BRANCH   1   2
ATOM      2  O   UNL     1       2.202   5.125  18.788  0.00  0.00    +0.000 OA
BRANCH   2   3
ATOM      3  C   UNL     1       1.364   4.112  18.410  0.00  0.00    +0.000 C 
ATOM      4  O   UNL     1       0.895   3.950  17.291  0.00  0.00    +0.000 OA
BRANCH   3   5
ATOM      5  C   UNL     1       1.138   3.122  19.548  0.00  0.00    +0.000 C 
BRANCH   5   6
ATOM      6  N   UNL     1       1.570   3.902  20.694  0.00  0.00    +0.000 N 
ATOM      7  C   UNL     1       1.746   3.377  21.953  0.00  0.00    +0.000 C 
ATOM      8  O   UNL     1       1.523   2.225  22.306  0.00  0.00    +0.000 OA
ATOM      9  H   UNL     1       1.747   4.887  20.519  0.00  0.00    +0.000 HD
ENDBRANCH   5   6
BRANCH   5  10
ATOM     10  C   UNL     1       2.015   1.875  19.353  0.00  0.00    +0.000 C 
BRANCH  10  11
ATOM     11  C   UNL     1       3.497   2.144  18.995  0.00  0.00    +0.000 C 
ATOM     12  C   UNL     1       4.441   1.953  20.182  0.00  0.00    +0.000 C 
ATOM     13  C   UNL     1       3.944   1.223  17.854  0.00  0.00    +0.000 C 
ENDBRANCH  10  11
ENDBRANCH   5  10
ENDBRANCH   3   5
ENDBRANCH   2   3
ENDBRANCH   1   2
BRANCH   1  14
ATOM     14  C   UNL     1       3.877   5.317  17.012  0.00  0.00    +0.000 C 
BRANCH  14  15
ATOM     15  C   UNL     1       5.156   5.406  17.832  0.00  0.00    +0.000 C 
ATOM     16  O   UNL     1       5.895   4.154  17.800  0.00  0.00    +0.000 OA
ATOM     17  C   UNL     1       7.038   4.760  17.403  0.00  0.00    +0.000 C 
ATOM     18  O   UNL     1       8.129   4.265  17.241  0.00  0.00    +0.000 OA
ATOM     19  C   UNL     1       6.380   6.152  17.262  0.00  0.00    +0.000 C 
BRANCH  19  20
ATOM     20  C   UNL     1       6.925   7.253  18.160  0.00  0.00    +0.000 C 
BRANCH  20  21
ATOM     21  C   UNL     1       8.045   8.009  17.456  0.00  0.00    +0.000 C 
BRANCH  21  22
ATOM     22  C   UNL     1       8.033   9.486  17.828  0.00  0.00    +0.000 C 
BRANCH  22  23
ATOM     23  C   UNL     1       9.116   9.776  18.861  0.00  0.00    +0.000 C 
BRANCH  23  24
ATOM     24  C   UNL     1       9.385  11.272  18.962  0.00  0.00    +0.000 C 
ATOM     25  C   UNL     1      10.454  11.697  17.972  0.00  0.00    +0.000 C 
ENDBRANCH  23  24
ENDBRANCH  22  23
ENDBRANCH  21  22
ENDBRANCH  20  21
ENDBRANCH  19  20
ENDBRANCH  14  15
ENDBRANCH   1  14
BRANCH   1  26
ATOM     26  C   UNL     1       3.227   7.301  18.426  0.00  0.00    +0.000 C 
BRANCH  26  27
ATOM     27  C   UNL     1       2.822   8.549  17.639  0.00  0.00    +0.000 C 
BRANCH  27  28
ATOM     28  C   UNL     1       1.400   9.016  17.960  0.00  0.00    +0.000 C 
BRANCH  28  29
ATOM     29  C   UNL     1       1.444  10.393  18.624  0.00  0.00    +0.000 C 
BRANCH  29  30
ATOM     30  C   UNL     1       0.094  11.100  18.577  0.00  0.00    +0.000 C 
BRANCH  30  31
ATOM     31  C   UNL     1      -1.005  10.196  19.132  0.00  0.00    +0.000 C 
BRANCH  31  32
ATOM     32  C   UNL     1      -2.051   9.899  18.062  0.00  0.00    +0.000 C 
BRANCH  32  33
ATOM     33  C   UNL     1      -2.687  11.186  17.541  0.00  0.00    +0.000 C 
BRANCH  33  34
ATOM     34  C   UNL     1      -2.651  11.220  16.016  0.00  0.00    +0.000 C 
BRANCH  34  36
ATOM     35  C   UNL     1      -3.182   9.951  13.919  0.00  0.00    +0.000 C 
ATOM     36  C   UNL     1      -3.009   9.859  15.425  0.00  0.00    +0.000 C 
ENDBRANCH  34  36
ENDBRANCH  33  34
ENDBRANCH  32  33
ENDBRANCH  31  32
ENDBRANCH  30  31
ENDBRANCH  29  30
ENDBRANCH  28  29
ENDBRANCH  27  28
ENDBRANCH  26  27
ENDBRANCH   1  26
TORSDOF 23
ENDMDL
MODEL 3
REMARK VINA RESULT:      -6.6      1.944      6.486
REMARK  Name = 
REMARK  27 active torsions:
REMARK  status: ('A' for Active; 'I' for Inactive)
REMARK    1  A    between atoms: C_1  and  C_2
REMARK    2  A    between atoms: C_2  and  C_3
REMARK    3  A    between atoms: C_3  and  C_4
REMARK    4  A    between atoms: C_4  and  C_5
REMARK    5  A    between atoms: C_5  and  C_6
REMARK    6  A    between atoms: C_6  and  C_7
REMARK    7  A    between atoms: C_7  and  C_8
REMARK    8  A    between atoms: C_8  and  C_9
REMARK    9  A    between atoms: C_9  and  C_10
REMARK   10  A    between atoms: C_10  and  C_11
REMARK   11  A    between atoms: C_11  and  C_12
REMARK   12  A    between atoms: C_12  and  C_13
REMARK   13  A    between atoms: C_12  and  O_25
REMARK   14  A    between atoms: C_13  and  C_14
REMARK   15  A    between atoms: C_18  and  C_19
REMARK   16  A    between atoms: C_19  and  C_20
REMARK   17  A    between atoms: C_20  and  C_21
REMARK   18  A    between atoms: C_21  and  C_22
REMARK   19  A    between atoms: C_22  and  C_23
REMARK   20  A    between atoms: C_23  and  C_24
REMARK   21  A    between atoms: O_25  and  C_26
REMARK   22  A    between atoms: C_26  and  C_28
REMARK   23  A    between atoms: C_28  and  C_29
REMARK   24  A    between atoms: C_28  and  N_33
REMARK   25  A    between atoms: C_29  and  C_30
REMARK   26  A    between atoms: C_30  and  C_31
REMARK   27  A    between atoms: C_30  and  C_32
REMARK                            x       y       z     vdW  Elec       q    Type
REMARK                         _______ _______ _______ _____ _____    ______ ____
ROOT
ATOM      1  C   UNL     1       3.550   4.663  17.740  0.00  0.00    +0.000 C 
ENDROOT
BRANCH   1   2
ATOM      2  O   UNL     1       4.599   5.058  16.812  0.00  0.00    +0.000 OA
BRANCH   2   3
ATOM      3  C   UNL     1       5.897   4.982  17.240  0.00  0.00    +0.000 C 
ATOM      4  O   UNL     1       6.300   4.327  18.192  0.00  0.00    +0.000 OA
BRANCH   3   5
ATOM      5  C   UNL     1       6.833   5.759  16.320  0.00  0.00    +0.000 C 
BRANCH   5   6
ATOM      6  N   UNL     1       6.706   7.104  16.854  0.00  0.00    +0.000 N 
ATOM      7  C   UNL     1       7.492   7.600  17.867  0.00  0.00    +0.000 C 
ATOM      8  O   UNL     1       8.354   6.994  18.493  0.00  0.00    +0.000 OA
ATOM      9  H   UNL     1       5.989   7.684  16.429  0.00  0.00    +0.000 HD
ENDBRANCH   5   6
BRANCH   5  10
ATOM     10  C   UNL     1       6.340   5.682  14.867  0.00  0.00    +0.000 C 
BRANCH  10  11
ATOM     11  C   UNL     1       7.043   4.634  13.971  0.00  0.00    +0.000 C 
ATOM     12  C   UNL     1       6.067   3.648  13.329  0.00  0.00    +0.000 C 
ATOM     13  C   UNL     1       7.842   5.331  12.863  0.00  0.00    +0.000 C 
ENDBRANCH  10  11
ENDBRANCH   5  10
ENDBRANCH   3   5
ENDBRANCH   2   3
ENDBRANCH   1   2
BRANCH   1  14
ATOM     14  C   UNL     1       2.986   3.288  17.323  0.00  0.00    +0.000 C 
BRANCH  14  15
ATOM     15  C   UNL     1       2.938   2.350  18.521  0.00  0.00    +0.000 C 
ATOM     16  O   UNL     1       4.117   1.502  18.578  0.00  0.00    +0.000 OA
ATOM     17  C   UNL     1       4.389   1.851  19.858  0.00  0.00    +0.000 C 
ATOM     18  O   UNL     1       5.263   1.426  20.578  0.00  0.00    +0.000 OA
ATOM     19  C   UNL     1       3.250   2.892  19.931  0.00  0.00    +0.000 C 
BRANCH  19  20
ATOM     20  C   UNL     1       2.162   2.635  20.964  0.00  0.00    +0.000 C 
BRANCH  20  21
ATOM     21  C   UNL     1       1.902   3.889  21.787  0.00  0.00    +0.000 C 
BRANCH  21  22
ATOM     22  C   UNL     1       2.321   5.143  21.031  0.00  0.00    +0.000 C 
BRANCH  22  23
ATOM     23  C   UNL     1       1.137   6.095  20.896  0.00  0.00    +0.000 C 
BRANCH  23  24
ATOM     24  C   UNL     1       1.552   7.527  21.212  0.00  0.00    +0.000 C 
ATOM     25  C   UNL     1       0.337   8.431  21.318  0.00  0.00    +0.000 C 
ENDBRANCH  23  24
ENDBRANCH  22  23
ENDBRANCH  21  22
ENDBRANCH  20  21
ENDBRANCH  19  20
ENDBRANCH  14  15
ENDBRANCH   1  14
BRANCH   1  26
ATOM     26  C   UNL     1       2.427   5.720  17.683  0.00  0.00    +0.000 C 
BRANCH  26  27
ATOM     27  C   UNL     1       2.970   7.134  17.904  0.00  0.00    +0.000 C 
BRANCH  27  28
ATOM     28  C   UNL     1       1.959   8.222  17.532  0.00  0.00    +0.000 C 
BRANCH  28  29
ATOM     29  C   UNL     1       2.224   9.480  18.361  0.00  0.00    +0.000 C 
BRANCH  29  30
ATOM     30  C   UNL     1       1.171  10.557  18.126  0.00  0.00    +0.000 C 
BRANCH  30  31
ATOM     31  C   UNL     1       1.322  11.687  19.142  0.00  0.00    +0.000 C 
BRANCH  31  32
ATOM     32  C   UNL     1      -0.035  12.085  19.714  0.00  0.00    +0.000 C 
BRANCH  32  33
ATOM     33  C   UNL     1      -1.003  12.488  18.605  0.00  0.00    +0.000 C 
BRANCH  33  34
ATOM     34  C   UNL     1      -2.261  11.625  18.652  0.00  0.00    +0.000 C 
BRANCH  34  36
ATOM     35  C   UNL     1      -2.208   9.940  16.796  0.00  0.00    +0.000 C 
ATOM     36  C   UNL     1      -2.750  11.285  17.247  0.00  0.00    +0.000 C 
ENDBRANCH  34  36
ENDBRANCH  33  34
ENDBRANCH  32  33
ENDBRANCH  31  32
ENDBRANCH  30  31
ENDBRANCH  29  30
ENDBRANCH  28  29
ENDBRANCH  27  28
ENDBRANCH  26  27
ENDBRANCH   1  26
TORSDOF 23
ENDMDL
MODEL 4
REMARK VINA RESULT:      -6.4      2.758      4.668
REMARK  Name = 
REMARK  27 active torsions:
REMARK  status: ('A' for Active; 'I' for Inactive)
REMARK    1  A    between atoms: C_1  and  C_2
REMARK    2  A    between atoms: C_2  and  C_3
REMARK    3  A    between atoms: C_3  and  C_4
REMARK    4  A    between atoms: C_4  and  C_5
REMARK    5  A    between atoms: C_5  and  C_6
REMARK    6  A    between atoms: C_6  and  C_7
REMARK    7  A    between atoms: C_7  and  C_8
REMARK    8  A    between atoms: C_8  and  C_9
REMARK    9  A    between atoms: C_9  and  C_10
REMARK   10  A    between atoms: C_10  and  C_11
REMARK   11  A    between atoms: C_11  and  C_12
REMARK   12  A    between atoms: C_12  and  C_13
REMARK   13  A    between atoms: C_12  and  O_25
REMARK   14  A    between atoms: C_13  and  C_14
REMARK   15  A    between atoms: C_18  and  C_19
REMARK   16  A    between atoms: C_19  and  C_20
REMARK   17  A    between atoms: C_20  and  C_21
REMARK   18  A    between atoms: C_21  and  C_22
REMARK   19  A    between atoms: C_22  and  C_23
REMARK   20  A    between atoms: C_23  and  C_24
REMARK   21  A    between atoms: O_25  and  C_26
REMARK   22  A    between atoms: C_26  and  C_28
REMARK   23  A    between atoms: C_28  and  C_29
REMARK   24  A    between atoms: C_28  and  N_33
REMARK   25  A    between atoms: C_29  and  C_30
REMARK   26  A    between atoms: C_30  and  C_31
REMARK   27  A    between atoms: C_30  and  C_32
REMARK                            x       y       z     vdW  Elec       q    Type
REMARK                         _______ _______ _______ _____ _____    ______ ____
ROOT
ATOM      1  C   UNL     1       3.939   5.877  18.357  0.00  0.00    +0.000 C 
ENDROOT
BRANCH   1   2
ATOM      2  O   UNL     1       3.371   4.945  17.396  0.00  0.00    +0.000 OA
BRANCH   2   3
ATOM      3  C   UNL     1       2.223   4.285  17.743  0.00  0.00    +0.000 C 
ATOM      4  O   UNL     1       1.126   4.431  17.218  0.00  0.00    +0.000 OA
BRANCH   3   5
ATOM      5  C   UNL     1       2.482   3.250  18.832  0.00  0.00    +0.000 C 
BRANCH   5   6
ATOM      6  N   UNL     1       2.908   2.107  18.042  0.00  0.00    +0.000 N 
ATOM      7  C   UNL     1       3.892   1.232  18.435  0.00  0.00    +0.000 C 
ATOM      8  O   UNL     1       4.577   1.303  19.449  0.00  0.00    +0.000 OA
ATOM      9  H   UNL     1       2.427   1.975  17.157  0.00  0.00    +0.000 HD
ENDBRANCH   5   6
BRANCH   5  10
ATOM     10  C   UNL     1       1.186   2.949  19.602  0.00  0.00    +0.000 C 
BRANCH  10  11
ATOM     11  C   UNL     1       1.182   3.352  21.096  0.00  0.00    +0.000 C 
ATOM     12  C   UNL     1       1.227   2.148  22.038  0.00  0.00    +0.000 C 
ATOM     13  C   UNL     1       2.373   4.267  21.405  0.00  0.00    +0.000 C 
ENDBRANCH  10  11
ENDBRANCH   5  10
ENDBRANCH   3   5
ENDBRANCH   2   3
ENDBRANCH   1   2
BRANCH   1  14
ATOM     14  C   UNL     1       5.032   5.164  19.181  0.00  0.00    +0.000 C 
BRANCH  14  15
ATOM     15  C   UNL     1       6.400   5.385  18.552  0.00  0.00    +0.000 C 
ATOM     16  O   UNL     1       6.584   4.549  17.377  0.00  0.00    +0.000 OA
ATOM     17  C   UNL     1       6.927   5.602  16.598  0.00  0.00    +0.000 C 
ATOM     18  O   UNL     1       7.289   5.590  15.444  0.00  0.00    +0.000 OA
ATOM     19  C   UNL     1       6.658   6.647  17.704  0.00  0.00    +0.000 C 
BRANCH  19  20
ATOM     20  C   UNL     1       7.849   7.480  18.153  0.00  0.00    +0.000 C 
BRANCH  20  21
ATOM     21  C   UNL     1       7.976   8.734  17.298  0.00  0.00    +0.000 C 
BRANCH  21  22
ATOM     22  C   UNL     1       8.187   9.971  18.161  0.00  0.00    +0.000 C 
BRANCH  22  23
ATOM     23  C   UNL     1       9.286   9.714  19.187  0.00  0.00    +0.000 C 
BRANCH  23  24
ATOM     24  C   UNL     1      10.174  10.941  19.353  0.00  0.00    +0.000 C 
ATOM     25  C   UNL     1       9.340  12.176  19.642  0.00  0.00    +0.000 C 
ENDBRANCH  23  24
ENDBRANCH  22  23
ENDBRANCH  21  22
ENDBRANCH  20  21
ENDBRANCH  19  20
ENDBRANCH  14  15
ENDBRANCH   1  14
BRANCH   1  26
ATOM     26  C   UNL     1       2.812   6.354  19.297  0.00  0.00    +0.000 C 
BRANCH  26  27
ATOM     27  C   UNL     1       2.574   7.861  19.176  0.00  0.00    +0.000 C 
BRANCH  27  28
ATOM     28  C   UNL     1       2.355   8.311  17.729  0.00  0.00    +0.000 C 
BRANCH  28  29
ATOM     29  C   UNL     1       1.762   9.721  17.709  0.00  0.00    +0.000 C 
BRANCH  29  30
ATOM     30  C   UNL     1       0.278   9.727  18.060  0.00  0.00    +0.000 C 
BRANCH  30  31
ATOM     31  C   UNL     1       0.021  10.590  19.294  0.00  0.00    +0.000 C 
BRANCH  31  32
ATOM     32  C   UNL     1      -0.263   9.719  20.513  0.00  0.00    +0.000 C 
BRANCH  32  33
ATOM     33  C   UNL     1       0.290  10.355  21.786  0.00  0.00    +0.000 C 
BRANCH  33  34
ATOM     34  C   UNL     1      -0.828  10.585  22.799  0.00  0.00    +0.000 C 
BRANCH  34  36
ATOM     35  C   UNL     1      -2.738  12.065  23.468  0.00  0.00    +0.000 C 
ATOM     36  C   UNL     1      -1.567  11.890  22.517  0.00  0.00    +0.000 C 
ENDBRANCH  34  36
ENDBRANCH  33  34
ENDBRANCH  32  33
ENDBRANCH  31  32
ENDBRANCH  30  31
ENDBRANCH  29  30
ENDBRANCH  28  29
ENDBRANCH  27  28
ENDBRANCH  26  27
ENDBRANCH   1  26
TORSDOF 23
ENDMDL
MODEL 5
REMARK VINA RESULT:      -6.4      3.684      7.680
REMARK  Name = 
REMARK  27 active torsions:
REMARK  status: ('A' for Active; 'I' for Inactive)
REMARK    1  A    between atoms: C_1  and  C_2
REMARK    2  A    between atoms: C_2  and  C_3
REMARK    3  A    between atoms: C_3  and  C_4
REMARK    4  A    between atoms: C_4  and  C_5
REMARK    5  A    between atoms: C_5  and  C_6
REMARK    6  A    between atoms: C_6  and  C_7
REMARK    7  A    between atoms: C_7  and  C_8
REMARK    8  A    between atoms: C_8  and  C_9
REMARK    9  A    between atoms: C_9  and  C_10
REMARK   10  A    between atoms: C_10  and  C_11
REMARK   11  A    between atoms: C_11  and  C_12
REMARK   12  A    between atoms: C_12  and  C_13
REMARK   13  A    between atoms: C_12  and  O_25
REMARK   14  A    between atoms: C_13  and  C_14
REMARK   15  A    between atoms: C_18  and  C_19
REMARK   16  A    between atoms: C_19  and  C_20
REMARK   17  A    between atoms: C_20  and  C_21
REMARK   18  A    between atoms: C_21  and  C_22
REMARK   19  A    between atoms: C_22  and  C_23
REMARK   20  A    between atoms: C_23  and  C_24
REMARK   21  A    between atoms: O_25  and  C_26
REMARK   22  A    between atoms: C_26  and  C_28
REMARK   23  A    between atoms: C_28  and  C_29
REMARK   24  A    between atoms: C_28  and  N_33
REMARK   25  A    between atoms: C_29  and  C_30
REMARK   26  A    between atoms: C_30  and  C_31
REMARK   27  A    between atoms: C_30  and  C_32
REMARK                            x       y       z     vdW  Elec       q    Type
REMARK                         _______ _______ _______ _____ _____    ______ ____
ROOT
ATOM      1  C   UNL     1       2.640   6.743  18.846  0.00  0.00    +0.000 C 
ENDROOT
BRANCH   1   2
ATOM      2  O   UNL     1       2.121   8.012  19.336  0.00  0.00    +0.000 OA
BRANCH   2   3
ATOM      3  C   UNL     1       1.764   8.958  18.415  0.00  0.00    +0.000 C 
ATOM      4  O   UNL     1       2.261   9.102  17.305  0.00  0.00    +0.000 OA
BRANCH   3   5
ATOM      5  C   UNL     1       0.581   9.790  18.899  0.00  0.00    +0.000 C 
BRANCH   5   6
ATOM      6  N   UNL     1      -0.091  10.085  17.645  0.00  0.00    +0.000 N 
ATOM      7  C   UNL     1      -1.458  10.106  17.498  0.00  0.00    +0.000 C 
ATOM      8  O   UNL     1      -2.293   9.837  18.354  0.00  0.00    +0.000 OA
ATOM      9  H   UNL     1       0.514  10.287  16.855  0.00  0.00    +0.000 HD
ENDBRANCH   5   6
BRANCH   5  10
ATOM     10  C   UNL     1       1.075  11.072  19.587  0.00  0.00    +0.000 C 
BRANCH  10  11
ATOM     11  C   UNL     1       1.075  12.349  18.713  0.00  0.00    +0.000 C 
ATOM     12  C   UNL     1       0.526  13.573  19.446  0.00  0.00    +0.000 C 
ATOM     13  C   UNL     1       2.495  12.660  18.225  0.00  0.00    +0.000 C 
ENDBRANCH  10  11
ENDBRANCH   5  10
ENDBRANCH   3   5
ENDBRANCH   2   3
ENDBRANCH   1   2
BRANCH   1  14
ATOM     14  C   UNL     1       1.755   5.591  19.364  0.00  0.00    +0.000 C 
BRANCH  14  15
ATOM     15  C   UNL     1       2.604   4.548  20.077  0.00  0.00    +0.000 C 
ATOM     16  O   UNL     1       2.173   4.363  21.453  0.00  0.00    +0.000 OA
ATOM     17  C   UNL     1       2.053   3.023  21.307  0.00  0.00    +0.000 C 
ATOM     18  O   UNL     1       1.773   2.202  22.149  0.00  0.00    +0.000 OA
ATOM     19  C   UNL     1       2.372   3.049  19.795  0.00  0.00    +0.000 C 
BRANCH  19  20
ATOM     20  C   UNL     1       3.613   2.289  19.351  0.00  0.00    +0.000 C 
BRANCH  20  21
ATOM     21  C   UNL     1       3.534   1.962  17.865  0.00  0.00    +0.000 C 
BRANCH  21  22
ATOM     22  C   UNL     1       3.743   3.209  17.014  0.00  0.00    +0.000 C 
BRANCH  22  23
ATOM     23  C   UNL     1       5.098   3.148  16.318  0.00  0.00    +0.000 C 
BRANCH  23  24
ATOM     24  C   UNL     1       5.259   4.303  15.338  0.00  0.00    +0.000 C 
ATOM     25  C   UNL     1       6.709   4.456  14.915  0.00  0.00    +0.000 C 
ENDBRANCH  23  24
ENDBRANCH  22  23
ENDBRANCH  21  22
ENDBRANCH  20  21
ENDBRANCH  19  20
ENDBRANCH  14  15
ENDBRANCH   1  14
BRANCH   1  26
ATOM     26  C   UNL     1       4.078   6.568  19.377  0.00  0.00    +0.000 C 
BRANCH  26  27
ATOM     27  C   UNL     1       5.063   6.254  18.249  0.00  0.00    +0.000 C 
BRANCH  27  28
ATOM     28  C   UNL     1       6.262   5.428  18.722  0.00  0.00    +0.000 C 
BRANCH  28  29
ATOM     29  C   UNL     1       7.539   6.265  18.623  0.00  0.00    +0.000 C 
BRANCH  29  30
ATOM     30  C   UNL     1       7.539   7.174  17.399  0.00  0.00    +0.000 C 
BRANCH  30  31
ATOM     31  C   UNL     1       7.386   8.636  17.816  0.00  0.00    +0.000 C 
BRANCH  31  32
ATOM     32  C   UNL     1       8.718   9.371  17.705  0.00  0.00    +0.000 C 
BRANCH  32  33
ATOM     33  C   UNL     1       9.077  10.060  19.019  0.00  0.00    +0.000 C 
BRANCH  33  34
ATOM     34  C   UNL     1       9.458  11.517  18.773  0.00  0.00    +0.000 C 
BRANCH  34  36
ATOM     35  C   UNL     1      10.811  12.958  17.230  0.00  0.00    +0.000 C 
ATOM     36  C   UNL     1      10.736  11.621  17.946  0.00  0.00    +0.000 C 
ENDBRANCH  34  36
ENDBRANCH  33  34
ENDBRANCH  32  33
ENDBRANCH  31  32
ENDBRANCH  30  31
ENDBRANCH  29  30
ENDBRANCH  28  29
ENDBRANCH  27  28
ENDBRANCH  26  27
ENDBRANCH   1  26
TORSDOF 23
ENDMDL
MODEL 6
REMARK VINA RESULT:      -6.4      3.561      8.066
REMARK  Name = 
REMARK  27 active torsions:
REMARK  status: ('A' for Active; 'I' for Inactive)
REMARK    1  A    between atoms: C_1  and  C_2
REMARK    2  A    between atoms: C_2  and  C_3
REMARK    3  A    between atoms: C_3  and  C_4
REMARK    4  A    between atoms: C_4  and  C_5
REMARK    5  A    between atoms: C_5  and  C_6
REMARK    6  A    between atoms: C_6  and  C_7
REMARK    7  A    between atoms: C_7  and  C_8
REMARK    8  A    between atoms: C_8  and  C_9
REMARK    9  A    between atoms: C_9  and  C_10
REMARK   10  A    between atoms: C_10  and  C_11
REMARK   11  A    between atoms: C_11  and  C_12
REMARK   12  A    between atoms: C_12  and  C_13
REMARK   13  A    between atoms: C_12  and  O_25
REMARK   14  A    between atoms: C_13  and  C_14
REMARK   15  A    between atoms: C_18  and  C_19
REMARK   16  A    between atoms: C_19  and  C_20
REMARK   17  A    between atoms: C_20  and  C_21
REMARK   18  A    between atoms: C_21  and  C_22
REMARK   19  A    between atoms: C_22  and  C_23
REMARK   20  A    between atoms: C_23  and  C_24
REMARK   21  A    between atoms: O_25  and  C_26
REMARK   22  A    between atoms: C_26  and  C_28
REMARK   23  A    between atoms: C_28  and  C_29
REMARK   24  A    between atoms: C_28  and  N_33
REMARK   25  A    between atoms: C_29  and  C_30
REMARK   26  A    between atoms: C_30  and  C_31
REMARK   27  A    between atoms: C_30  and  C_32
REMARK                            x       y       z     vdW  Elec       q    Type
REMARK                         _______ _______ _______ _____ _____    ______ ____
ROOT
ATOM      1  C   UNL     1       3.462   7.840  18.203  0.00  0.00    +0.000 C 
ENDROOT
BRANCH   1   2
ATOM      2  O   UNL     1       2.196   8.280  17.637  0.00  0.00    +0.000 OA
BRANCH   2   3
ATOM      3  C   UNL     1       1.721   9.510  18.004  0.00  0.00    +0.000 C 
ATOM      4  O   UNL     1       2.329  10.568  17.913  0.00  0.00    +0.000 OA
BRANCH   3   5
ATOM      5  C   UNL     1       0.272   9.431  18.472  0.00  0.00    +0.000 C 
BRANCH   5   6
ATOM      6  N   UNL     1      -0.433   9.916  17.297  0.00  0.00    +0.000 N 
ATOM      7  C   UNL     1      -1.803   9.982  17.202  0.00  0.00    +0.000 C 
ATOM      8  O   UNL     1      -2.616   9.608  18.039  0.00  0.00    +0.000 OA
ATOM      9  H   UNL     1       0.151  10.218  16.523  0.00  0.00    +0.000 HD
ENDBRANCH   5   6
BRANCH   5  10
ATOM     10  C   UNL     1       0.050  10.353  19.681  0.00  0.00    +0.000 C 
BRANCH  10  11
ATOM     11  C   UNL     1       0.377   9.742  21.064  0.00  0.00    +0.000 C 
ATOM     12  C   UNL     1       0.083  10.695  22.222  0.00  0.00    +0.000 C 
ATOM     13  C   UNL     1      -0.417   8.447  21.275  0.00  0.00    +0.000 C 
ENDBRANCH  10  11
ENDBRANCH   5  10
ENDBRANCH   3   5
ENDBRANCH   2   3
ENDBRANCH   1   2
BRANCH   1  14
ATOM     14  C   UNL     1       4.167   6.892  17.211  0.00  0.00    +0.000 C 
BRANCH  14  15
ATOM     15  C   UNL     1       5.492   6.410  17.787  0.00  0.00    +0.000 C 
ATOM     16  O   UNL     1       5.768   5.035  17.402  0.00  0.00    +0.000 OA
ATOM     17  C   UNL     1       6.992   5.346  16.915  0.00  0.00    +0.000 C 
ATOM     18  O   UNL     1       7.832   4.596  16.474  0.00  0.00    +0.000 OA
ATOM     19  C   UNL     1       6.817   6.865  17.142  0.00  0.00    +0.000 C 
BRANCH  19  20
ATOM     20  C   UNL     1       7.795   7.524  18.103  0.00  0.00    +0.000 C 
BRANCH  20  21
ATOM     21  C   UNL     1       7.998   8.988  17.735  0.00  0.00    +0.000 C 
BRANCH  21  22
ATOM     22  C   UNL     1       8.941   9.677  18.713  0.00  0.00    +0.000 C 
BRANCH  22  23
ATOM     23  C   UNL     1       9.288  11.074  18.211  0.00  0.00    +0.000 C 
BRANCH  23  24
ATOM     24  C   UNL     1      10.646  11.520  18.740  0.00  0.00    +0.000 C 
ATOM     25  C   UNL     1      10.603  11.714  20.245  0.00  0.00    +0.000 C 
ENDBRANCH  23  24
ENDBRANCH  22  23
ENDBRANCH  21  22
ENDBRANCH  20  21
ENDBRANCH  19  20
ENDBRANCH  14  15
ENDBRANCH   1  14
BRANCH   1  26
ATOM     26  C   UNL     1       3.171   7.087  19.518  0.00  0.00    +0.000 C 
BRANCH  26  27
ATOM     27  C   UNL     1       2.197   5.927  19.302  0.00  0.00    +0.000 C 
BRANCH  27  28
ATOM     28  C   UNL     1       1.465   5.522  20.584  0.00  0.00    +0.000 C 
BRANCH  28  29
ATOM     29  C   UNL     1       2.229   4.397  21.284  0.00  0.00    +0.000 C 
BRANCH  29  30
ATOM     30  C   UNL     1       1.555   3.042  21.102  0.00  0.00    +0.000 C 
BRANCH  30  31
ATOM     31  C   UNL     1       0.536   3.097  19.966  0.00  0.00    +0.000 C 
BRANCH  31  32
ATOM     32  C   UNL     1       0.987   2.233  18.793  0.00  0.00    +0.000 C 
BRANCH  32  33
ATOM     33  C   UNL     1       2.393   1.684  19.022  0.00  0.00    +0.000 C 
BRANCH  33  34
ATOM     34  C   UNL     1       3.426   2.531  18.284  0.00  0.00    +0.000 C 
BRANCH  34  36
ATOM     35  C   UNL     1       3.827   3.460  15.991  0.00  0.00    +0.000 C 
ATOM     36  C   UNL     1       2.801   3.244  17.089  0.00  0.00    +0.000 C 
ENDBRANCH  34  36
ENDBRANCH  33  34
ENDBRANCH  32  33
ENDBRANCH  31  32
ENDBRANCH  30  31
ENDBRANCH  29  30
ENDBRANCH  28  29
ENDBRANCH  27  28
ENDBRANCH  26  27
ENDBRANCH   1  26
TORSDOF 23
ENDMDL
MODEL 7
REMARK VINA RESULT:      -6.3      2.196      5.530
REMARK  Name = 
REMARK  27 active torsions:
REMARK  status: ('A' for Active; 'I' for Inactive)
REMARK    1  A    between atoms: C_1  and  C_2
REMARK    2  A    between atoms: C_2  and  C_3
REMARK    3  A    between atoms: C_3  and  C_4
REMARK    4  A    between atoms: C_4  and  C_5
REMARK    5  A    between atoms: C_5  and  C_6
REMARK    6  A    between atoms: C_6  and  C_7
REMARK    7  A    between atoms: C_7  and  C_8
REMARK    8  A    between atoms: C_8  and  C_9
REMARK    9  A    between atoms: C_9  and  C_10
REMARK   10  A    between atoms: C_10  and  C_11
REMARK   11  A    between atoms: C_11  and  C_12
REMARK   12  A    between atoms: C_12  and  C_13
REMARK   13  A    between atoms: C_12  and  O_25
REMARK   14  A    between atoms: C_13  and  C_14
REMARK   15  A    between atoms: C_18  and  C_19
REMARK   16  A    between atoms: C_19  and  C_20
REMARK   17  A    between atoms: C_20  and  C_21
REMARK   18  A    between atoms: C_21  and  C_22
REMARK   19  A    between atoms: C_22  and  C_23
REMARK   20  A    between atoms: C_23  and  C_24
REMARK   21  A    between atoms: O_25  and  C_26
REMARK   22  A    between atoms: C_26  and  C_28
REMARK   23  A    between atoms: C_28  and  C_29
REMARK   24  A    between atoms: C_28  and  N_33
REMARK   25  A    between atoms: C_29  and  C_30
REMARK   26  A    between atoms: C_30  and  C_31
REMARK   27  A    between atoms: C_30  and  C_32
REMARK                            x       y       z     vdW  Elec       q    Type
REMARK                         _______ _______ _______ _____ _____    ______ ____
ROOT
ATOM      1  C   UNL     1       2.931   7.195  18.832  0.00  0.00    +0.000 C 
ENDROOT
BRANCH   1   2
ATOM      2  O   UNL     1       3.710   6.178  18.141  0.00  0.00    +0.000 OA
BRANCH   2   3
ATOM      3  C   UNL     1       4.795   6.584  17.413  0.00  0.00    +0.000 C 
ATOM      4  O   UNL     1       5.211   7.732  17.325  0.00  0.00    +0.000 OA
BRANCH   3   5
ATOM      5  C   UNL     1       5.510   5.400  16.770  0.00  0.00    +0.000 C 
BRANCH   5   6
ATOM      6  N   UNL     1       6.877   5.621  17.210  0.00  0.00    +0.000 N 
ATOM      7  C   UNL     1       7.364   5.205  18.427  0.00  0.00    +0.000 C 
ATOM      8  O   UNL     1       6.734   4.652  19.321  0.00  0.00    +0.000 OA
ATOM      9  H   UNL     1       7.481   6.108  16.555  0.00  0.00    +0.000 HD
ENDBRANCH   5   6
BRANCH   5  10
ATOM     10  C   UNL     1       5.393   5.472  15.240  0.00  0.00    +0.000 C 
BRANCH  10  11
ATOM     11  C   UNL     1       6.195   4.408  14.452  0.00  0.00    +0.000 C 
ATOM     12  C   UNL     1       5.361   3.706  13.381  0.00  0.00    +0.000 C 
ATOM     13  C   UNL     1       7.418   5.049  13.786  0.00  0.00    +0.000 C 
ENDBRANCH  10  11
ENDBRANCH   5  10
ENDBRANCH   3   5
ENDBRANCH   2   3
ENDBRANCH   1   2
BRANCH   1  14
ATOM     14  C   UNL     1       2.198   6.556  20.029  0.00  0.00    +0.000 C 
BRANCH  14  15
ATOM     15  C   UNL     1       2.324   5.040  19.981  0.00  0.00    +0.000 C 
ATOM     16  O   UNL     1       2.762   4.503  21.259  0.00  0.00    +0.000 OA
ATOM     17  C   UNL     1       1.730   3.630  21.323  0.00  0.00    +0.000 C 
ATOM     18  O   UNL     1       1.520   2.781  22.159  0.00  0.00    +0.000 OA
ATOM     19  C   UNL     1       1.056   4.164  20.039  0.00  0.00    +0.000 C 
BRANCH  19  20
ATOM     20  C   UNL     1       0.913   3.179  18.888  0.00  0.00    +0.000 C 
BRANCH  20  21
ATOM     21  C   UNL     1       1.584   3.724  17.634  0.00  0.00    +0.000 C 
BRANCH  21  22
ATOM     22  C   UNL     1       2.556   2.711  17.044  0.00  0.00    +0.000 C 
BRANCH  22  23
ATOM     23  C   UNL     1       3.844   2.682  17.860  0.00  0.00    +0.000 C 
BRANCH  23  24
ATOM     24  C   UNL     1       3.855   1.497  18.817  0.00  0.00    +0.000 C 
ATOM     25  C   UNL     1       4.591   1.844  20.098  0.00  0.00    +0.000 C 
ENDBRANCH  23  24
ENDBRANCH  22  23
ENDBRANCH  21  22
ENDBRANCH  20  21
ENDBRANCH  19  20
ENDBRANCH  14  15
ENDBRANCH   1  14
BRANCH   1  26
ATOM     26  C   UNL     1       1.898   7.773  17.841  0.00  0.00    +0.000 C 
BRANCH  26  27
ATOM     27  C   UNL     1       1.868   9.302  17.884  0.00  0.00    +0.000 C 
BRANCH  27  28
ATOM     28  C   UNL     1       0.496   9.856  18.279  0.00  0.00    +0.000 C 
BRANCH  28  29
ATOM     29  C   UNL     1       0.317   9.763  19.796  0.00  0.00    +0.000 C 
BRANCH  29  30
ATOM     30  C   UNL     1      -0.617  10.842  20.333  0.00  0.00    +0.000 C 
BRANCH  30  31
ATOM     31  C   UNL     1      -0.095  11.393  21.659  0.00  0.00    +0.000 C 
BRANCH  31  32
ATOM     32  C   UNL     1      -1.112  11.173  22.773  0.00  0.00    +0.000 C 
BRANCH  32  33
ATOM     33  C   UNL     1      -1.805  12.480  23.152  0.00  0.00    +0.000 C 
BRANCH  33  34
ATOM     34  C   UNL     1      -3.218  12.523  22.578  0.00  0.00    +0.000 C 
BRANCH  34  36
ATOM     35  C   UNL     1      -3.881  12.662  20.165  0.00  0.00    +0.000 C 
ATOM     36  C   UNL     1      -3.285  13.413  21.341  0.00  0.00    +0.000 C 
ENDBRANCH  34  36
ENDBRANCH  33  34
ENDBRANCH  32  33
ENDBRANCH  31  32
ENDBRANCH  30  31
ENDBRANCH  29  30
ENDBRANCH  28  29
ENDBRANCH  27  28
ENDBRANCH  26  27
ENDBRANCH   1  26
TORSDOF 23
ENDMDL
MODEL 8
REMARK VINA RESULT:      -6.3      1.634      2.402
REMARK  Name = 
REMARK  27 active torsions:
REMARK  status: ('A' for Active; 'I' for Inactive)
REMARK    1  A    between atoms: C_1  and  C_2
REMARK    2  A    between atoms: C_2  and  C_3
REMARK    3  A    between atoms: C_3  and  C_4
REMARK    4  A    between atoms: C_4  and  C_5
REMARK    5  A    between atoms: C_5  and  C_6
REMARK    6  A    between atoms: C_6  and  C_7
REMARK    7  A    between atoms: C_7  and  C_8
REMARK    8  A    between atoms: C_8  and  C_9
REMARK    9  A    between atoms: C_9  and  C_10
REMARK   10  A    between atoms: C_10  and  C_11
REMARK   11  A    between atoms: C_11  and  C_12
REMARK   12  A    between atoms: C_12  and  C_13
REMARK   13  A    between atoms: C_12  and  O_25
REMARK   14  A    between atoms: C_13  and  C_14
REMARK   15  A    between atoms: C_18  and  C_19
REMARK   16  A    between atoms: C_19  and  C_20
REMARK   17  A    between atoms: C_20  and  C_21
REMARK   18  A    between atoms: C_21  and  C_22
REMARK   19  A    between atoms: C_22  and  C_23
REMARK   20  A    between atoms: C_23  and  C_24
REMARK   21  A    between atoms: O_25  and  C_26
REMARK   22  A    between atoms: C_26  and  C_28
REMARK   23  A    between atoms: C_28  and  C_29
REMARK   24  A    between atoms: C_28  and  N_33
REMARK   25  A    between atoms: C_29  and  C_30
REMARK   26  A    between atoms: C_30  and  C_31
REMARK   27  A    between atoms: C_30  and  C_32
REMARK                            x       y       z     vdW  Elec       q    Type
REMARK                         _______ _______ _______ _____ _____    ______ ____
ROOT
ATOM      1  C   UNL     1       3.182   5.273  17.448  0.00  0.00    +0.000 C 
ENDROOT
BRANCH   1   2
ATOM      2  O   UNL     1       2.782   3.909  17.759  0.00  0.00    +0.000 OA
BRANCH   2   3
ATOM      3  C   UNL     1       3.763   3.003  18.057  0.00  0.00    +0.000 C 
ATOM      4  O   UNL     1       4.557   2.518  17.260  0.00  0.00    +0.000 OA
BRANCH   3   5
ATOM      5  C   UNL     1       3.823   2.718  19.554  0.00  0.00    +0.000 C 
BRANCH   5   6
ATOM      6  N   UNL     1       4.900   1.744  19.614  0.00  0.00    +0.000 N 
ATOM      7  C   UNL     1       5.273   1.089  20.764  0.00  0.00    +0.000 C 
ATOM      8  O   UNL     1       4.812   1.256  21.887  0.00  0.00    +0.000 OA
ATOM      9  H   UNL     1       5.379   1.557  18.739  0.00  0.00    +0.000 HD
ENDBRANCH   5   6
BRANCH   5  10
ATOM     10  C   UNL     1       2.494   2.117  20.037  0.00  0.00    +0.000 C 
BRANCH  10  11
ATOM     11  C   UNL     1       1.599   3.054  20.882  0.00  0.00    +0.000 C 
ATOM     12  C   UNL     1       2.365   4.237  21.473  0.00  0.00    +0.000 C 
ATOM     13  C   UNL     1       0.439   3.590  20.035  0.00  0.00    +0.000 C 
ENDBRANCH  10  11
ENDBRANCH   5  10
ENDBRANCH   3   5
ENDBRANCH   2   3
ENDBRANCH   1   2
BRANCH   1  14
ATOM     14  C   UNL     1       4.624   5.510  17.944  0.00  0.00    +0.000 C 
BRANCH  14  15
ATOM     15  C   UNL     1       5.449   6.202  16.867  0.00  0.00    +0.000 C 
ATOM     16  O   UNL     1       6.106   7.391  17.384  0.00  0.00    +0.000 OA
ATOM     17  C   UNL     1       7.324   6.988  16.951  0.00  0.00    +0.000 C 
ATOM     18  O   UNL     1       8.373   7.588  17.007  0.00  0.00    +0.000 OA
ATOM     19  C   UNL     1       6.814   5.616  16.454  0.00  0.00    +0.000 C 
BRANCH  19  20
ATOM     20  C   UNL     1       6.960   5.337  14.965  0.00  0.00    +0.000 C 
BRANCH  20  21
ATOM     21  C   UNL     1       6.373   3.976  14.618  0.00  0.00    +0.000 C 
BRANCH  21  22
ATOM     22  C   UNL     1       5.205   4.109  13.650  0.00  0.00    +0.000 C 
BRANCH  22  23
ATOM     23  C   UNL     1       5.444   3.245  12.417  0.00  0.00    +0.000 C 
BRANCH  23  24
ATOM     24  C   UNL     1       6.892   3.346  11.954  0.00  0.00    +0.000 C 
ATOM     25  C   UNL     1       7.305   2.098  11.194  0.00  0.00    +0.000 C 
ENDBRANCH  23  24
ENDBRANCH  22  23
ENDBRANCH  21  22
ENDBRANCH  20  21
ENDBRANCH  19  20
ENDBRANCH  14  15
ENDBRANCH   1  14
BRANCH   1  26
ATOM     26  C   UNL     1       2.222   6.239  18.172  0.00  0.00    +0.000 C 
BRANCH  26  27
ATOM     27  C   UNL     1       2.733   7.681  18.131  0.00  0.00    +0.000 C 
BRANCH  27  28
ATOM     28  C   UNL     1       1.660   8.678  17.685  0.00  0.00    +0.000 C 
BRANCH  28  29
ATOM     29  C   UNL     1       1.658   9.889  18.619  0.00  0.00    +0.000 C 
BRANCH  29  30
ATOM     30  C   UNL     1       0.923   9.609  19.925  0.00  0.00    +0.000 C 
BRANCH  30  31
ATOM     31  C   UNL     1      -0.480  10.210  19.891  0.00  0.00    +0.000 C 
BRANCH  31  32
ATOM     32  C   UNL     1      -0.569  11.317  18.846  0.00  0.00    +0.000 C 
BRANCH  32  33
ATOM     33  C   UNL     1      -1.864  11.215  18.044  0.00  0.00    +0.000 C 
BRANCH  33  34
ATOM     34  C   UNL     1      -1.834   9.992  17.132  0.00  0.00    +0.000 C 
BRANCH  34  36
ATOM     35  C   UNL     1      -2.915  10.017  14.871  0.00  0.00    +0.000 C 
ATOM     36  C   UNL     1      -3.143   9.846  16.362  0.00  0.00    +0.000 C 
ENDBRANCH  34  36
ENDBRANCH  33  34
ENDBRANCH  32  33
ENDBRANCH  31  32
ENDBRANCH  30  31
ENDBRANCH  29  30
ENDBRANCH  28  29
ENDBRANCH  27  28
ENDBRANCH  26  27
ENDBRANCH   1  26
TORSDOF 23
ENDMDL
MODEL 9
REMARK VINA RESULT:      -6.2      2.886      4.838
REMARK  Name = 
REMARK  27 active torsions:
REMARK  status: ('A' for Active; 'I' for Inactive)
REMARK    1  A    between atoms: C_1  and  C_2
REMARK    2  A    between atoms: C_2  and  C_3
REMARK    3  A    between atoms: C_3  and  C_4
REMARK    4  A    between atoms: C_4  and  C_5
REMARK    5  A    between atoms: C_5  and  C_6
REMARK    6  A    between atoms: C_6  and  C_7
REMARK    7  A    between atoms: C_7  and  C_8
REMARK    8  A    between atoms: C_8  and  C_9
REMARK    9  A    between atoms: C_9  and  C_10
REMARK   10  A    between atoms: C_10  and  C_11
REMARK   11  A    between atoms: C_11  and  C_12
REMARK   12  A    between atoms: C_12  and  C_13
REMARK   13  A    between atoms: C_12  and  O_25
REMARK   14  A    between atoms: C_13  and  C_14
REMARK   15  A    between atoms: C_18  and  C_19
REMARK   16  A    between atoms: C_19  and  C_20
REMARK   17  A    between atoms: C_20  and  C_21
REMARK   18  A    between atoms: C_21  and  C_22
REMARK   19  A    between atoms: C_22  and  C_23
REMARK   20  A    between atoms: C_23  and  C_24
REMARK   21  A    between atoms: O_25  and  C_26
REMARK   22  A    between atoms: C_26  and  C_28
REMARK   23  A    between atoms: C_28  and  C_29
REMARK   24  A    between atoms: C_28  and  N_33
REMARK   25  A    between atoms: C_29  and  C_30
REMARK   26  A    between atoms: C_30  and  C_31
REMARK   27  A    between atoms: C_30  and  C_32
REMARK                            x       y       z     vdW  Elec       q    Type
REMARK                         _______ _______ _______ _____ _____    ______ ____
ROOT
ATOM      1  C   UNL     1       2.867   6.047  17.676  0.00  0.00    +0.000 C 
ENDROOT
BRANCH   1   2
ATOM      2  O   UNL     1       2.429   5.102  18.692  0.00  0.00    +0.000 OA
BRANCH   2   3
ATOM      3  C   UNL     1       1.539   4.130  18.324  0.00  0.00    +0.000 C 
ATOM      4  O   UNL     1       1.075   3.971  17.203  0.00  0.00    +0.000 OA
BRANCH   3   5
ATOM      5  C   UNL     1       1.244   3.178  19.479  0.00  0.00    +0.000 C 
BRANCH   5   6
ATOM      6  N   UNL     1       1.642   3.984  20.620  0.00  0.00    +0.000 N 
ATOM      7  C   UNL     1       1.788   3.485  21.893  0.00  0.00    +0.000 C 
ATOM      8  O   UNL     1       1.563   2.339  22.264  0.00  0.00    +0.000 OA
ATOM      9  H   UNL     1       1.819   4.966  20.430  0.00  0.00    +0.000 HD
ENDBRANCH   5   6
BRANCH   5  10
ATOM     10  C   UNL     1       2.105   1.910  19.359  0.00  0.00    +0.000 C 
BRANCH  10  11
ATOM     11  C   UNL     1       3.593   2.137  18.999  0.00  0.00    +0.000 C 
ATOM     12  C   UNL     1       4.530   1.942  20.191  0.00  0.00    +0.000 C 
ATOM     13  C   UNL     1       4.019   1.188  17.873  0.00  0.00    +0.000 C 
ENDBRANCH  10  11
ENDBRANCH   5  10
ENDBRANCH   3   5
ENDBRANCH   2   3
ENDBRANCH   1   2
BRANCH   1  14
ATOM     14  C   UNL     1       4.090   5.470  16.931  0.00  0.00    +0.000 C 
BRANCH  14  15
ATOM     15  C   UNL     1       5.318   5.493  17.831  0.00  0.00    +0.000 C 
ATOM     16  O   UNL     1       5.982   4.200  17.855  0.00  0.00    +0.000 OA
ATOM     17  C   UNL     1       7.182   4.734  17.527  0.00  0.00    +0.000 C 
ATOM     18  O   UNL     1       8.250   4.173  17.439  0.00  0.00    +0.000 OA
ATOM     19  C   UNL     1       6.618   6.160  17.334  0.00  0.00    +0.000 C 
BRANCH  19  20
ATOM     20  C   UNL     1       7.169   7.238  18.255  0.00  0.00    +0.000 C 
BRANCH  20  21
ATOM     21  C   UNL     1       8.167   8.116  17.511  0.00  0.00    +0.000 C 
BRANCH  21  22
ATOM     22  C   UNL     1       8.042   9.574  17.935  0.00  0.00    +0.000 C 
BRANCH  22  23
ATOM     23  C   UNL     1       9.090   9.904  18.991  0.00  0.00    +0.000 C 
BRANCH  23  24
ATOM     24  C   UNL     1       9.808  11.206  18.657  0.00  0.00    +0.000 C 
ATOM     25  C   UNL     1       8.923  12.111  17.819  0.00  0.00    +0.000 C 
ENDBRANCH  23  24
ENDBRANCH  22  23
ENDBRANCH  21  22
ENDBRANCH  20  21
ENDBRANCH  19  20
ENDBRANCH  14  15
ENDBRANCH   1  14
BRANCH   1  26
ATOM     26  C   UNL     1       3.263   7.365  18.375  0.00  0.00    +0.000 C 
BRANCH  26  27
ATOM     27  C   UNL     1       2.246   7.762  19.447  0.00  0.00    +0.000 C 
BRANCH  27  28
ATOM     28  C   UNL     1       1.561   9.098  19.147  0.00  0.00    +0.000 C 
BRANCH  28  29
ATOM     29  C   UNL     1       0.345   9.272  20.060  0.00  0.00    +0.000 C 
BRANCH  29  30
ATOM     30  C   UNL     1      -0.131  10.720  20.115  0.00  0.00    +0.000 C 
BRANCH  30  31
ATOM     31  C   UNL     1      -0.441  11.237  18.711  0.00  0.00    +0.000 C 
BRANCH  31  32
ATOM     32  C   UNL     1      -1.571  10.433  18.077  0.00  0.00    +0.000 C 
BRANCH  32  33
ATOM     33  C   UNL     1      -2.645  11.353  17.501  0.00  0.00    +0.000 C 
BRANCH  33  34
ATOM     34  C   UNL     1      -3.915  10.565  17.193  0.00  0.00    +0.000 C 
BRANCH  34  36
ATOM     35  C   UNL     1      -4.638  12.102  19.037  0.00  0.00    +0.000 C 
ATOM     36  C   UNL     1      -5.095  11.079  18.013  0.00  0.00    +0.000 C 
ENDBRANCH  34  36
ENDBRANCH  33  34
ENDBRANCH  32  33
ENDBRANCH  31  32
ENDBRANCH  30  31
ENDBRANCH  29  30
ENDBRANCH  28  29
ENDBRANCH  27  28
ENDBRANCH  26  27
ENDBRANCH   1  26
TORSDOF 23
ENDMDL
