MODEL 1
REMARK VINA RESULT:      -7.3      0.000      0.000
REMARK  Name = 
REMARK  5 active torsions:
REMARK  status: ('A' for Active; 'I' for Inactive)
REMARK    1  A    between atoms: C_1  and  O_2
REMARK    2  A    between atoms: O_2  and  C_3
REMARK    3  A    between atoms: C_3  and  C_5
REMARK    4  A    between atoms: C_5  and  C_6
REMARK    5  A    between atoms: C_5  and  C_13
REMARK                            x       y       z     vdW  Elec       q    Type
REMARK                         _______ _______ _______ _____ _____    ______ ____
ROOT
ATOM      1  C   UNL     1       6.124   4.600  16.328  0.00  0.00    +0.000 C 
ENDROOT
BRANCH   1   2
ATOM      2  C   UNL     1       4.717   4.666  16.953  0.00  0.00    +0.000 A 
ATOM      3  C   UNL     1       4.117   5.858  17.392  0.00  0.00    +0.000 A 
ATOM      4  C   UNL     1       2.823   5.872  17.931  0.00  0.00    +0.000 A 
ATOM      5  C   UNL     1       2.089   4.694  18.035  0.00  0.00    +0.000 A 
ATOM      6  C   UNL     1       2.663   3.508  17.596  0.00  0.00    +0.000 A 
ATOM      7  F   UNL     1       1.955   2.373  17.664  0.00  0.00    +0.000 F 
ATOM      8  C   UNL     1       3.957   3.484  17.071  0.00  0.00    +0.000 A 
ENDBRANCH   1   2
BRANCH   1   9
ATOM      9  C   UNL     1       6.186   4.828  14.775  0.00  0.00    +0.000 C 
ATOM     10  C   UNL     1       5.520   3.697  13.953  0.00  0.00    +0.000 C 
ATOM     11  C   UNL     1       5.779   3.806  12.452  0.00  0.00    +0.000 C 
ATOM     12  C   UNL     1       7.256   4.021  12.165  0.00  0.00    +0.000 C 
ATOM     13  C   UNL     1       7.768   5.236  12.921  0.00  0.00    +0.000 C 
ATOM     14  N   UNL     1       7.582   5.081  14.357  0.00  0.00    +0.000 NA
ATOM     15  H   UNL     1       7.949   5.900  14.838  0.00  0.00    +0.000 HD
ENDBRANCH   1   9
BRANCH   1  16
ATOM     16  C   UNL     1       7.174   5.487  17.008  0.00  0.00    +0.000 C 
ATOM     17  O   UNL     1       7.502   6.601  16.638  0.00  0.00    +0.000 OA
BRANCH  16  19
ATOM     18  C   UNL     1       7.773   5.673  19.275  0.00  0.00    +0.000 C 
ATOM     19  O   UNL     1       7.730   4.862  18.091  0.00  0.00    +0.000 OA
ENDBRANCH  16  19
ENDBRANCH   1  16
TORSDOF 4
ENDMDL
MODEL 2
REMARK VINA RESULT:      -7.3      1.221      1.662
REMARK  Name = 
REMARK  5 active torsions:
REMARK  status: ('A' for Active; 'I' for Inactive)
REMARK    1  A    between atoms: C_1  and  O_2
REMARK    2  A    between atoms: O_2  and  C_3
REMARK    3  A    between atoms: C_3  and  C_5
REMARK    4  A    between atoms: C_5  and  C_6
REMARK    5  A    between atoms: C_5  and  C_13
REMARK                            x       y       z     vdW  Elec       q    Type
REMARK                         _______ _______ _______ _____ _____    ______ ____
ROOT
ATOM      1  C   UNL     1       6.117   4.710  16.248  0.00  0.00    +0.000 C 
ENDROOT
BRANCH   1   2
ATOM      2  C   UNL     1       4.710   4.814  16.867  0.00  0.00    +0.000 A 
ATOM      3  C   UNL     1       3.859   3.711  17.054  0.00  0.00    +0.000 A 
ATOM      4  C   UNL     1       2.597   3.851  17.645  0.00  0.00    +0.000 A 
ATOM      5  C   UNL     1       2.154   5.097  18.077  0.00  0.00    +0.000 A 
ATOM      6  C   UNL     1       2.986   6.197  17.911  0.00  0.00    +0.000 A 
ATOM      7  F   UNL     1       2.582   7.397  18.350  0.00  0.00    +0.000 F 
ATOM      8  C   UNL     1       4.239   6.068  17.309  0.00  0.00    +0.000 A 
ENDBRANCH   1   2
BRANCH   1   9
ATOM      9  C   UNL     1       6.184   4.886  14.688  0.00  0.00    +0.000 C 
ATOM     10  C   UNL     1       5.509   3.736  13.902  0.00  0.00    +0.000 C 
ATOM     11  C   UNL     1       5.772   3.793  12.398  0.00  0.00    +0.000 C 
ATOM     12  C   UNL     1       7.251   3.983  12.108  0.00  0.00    +0.000 C 
ATOM     13  C   UNL     1       7.774   5.217  12.826  0.00  0.00    +0.000 C 
ATOM     14  N   UNL     1       7.583   5.111  14.266  0.00  0.00    +0.000 NA
ATOM     15  H   UNL     1       7.958   5.942  14.720  0.00  0.00    +0.000 HD
ENDBRANCH   1   9
BRANCH   1  16
ATOM     16  C   UNL     1       7.177   5.604  16.901  0.00  0.00    +0.000 C 
ATOM     17  O   UNL     1       7.493   6.718  16.518  0.00  0.00    +0.000 OA
BRANCH  16  19
ATOM     18  C   UNL     1       7.779   5.785  19.167  0.00  0.00    +0.000 C 
ATOM     19  O   UNL     1       7.759   4.987  17.974  0.00  0.00    +0.000 OA
ENDBRANCH  16  19
ENDBRANCH   1  16
TORSDOF 4
ENDMDL
MODEL 3
REMARK VINA RESULT:      -7.3      2.136      4.971
REMARK  Name = 
REMARK  5 active torsions:
REMARK  status: ('A' for Active; 'I' for Inactive)
REMARK    1  A    between atoms: C_1  and  O_2
REMARK    2  A    between atoms: O_2  and  C_3
REMARK    3  A    between atoms: C_3  and  C_5
REMARK    4  A    between atoms: C_5  and  C_6
REMARK    5  A    between atoms: C_5  and  C_13
REMARK                            x       y       z     vdW  Elec       q    Type
REMARK                         _______ _______ _______ _____ _____    ______ ____
ROOT
ATOM      1  C   UNL     1       6.255   5.079  16.442  0.00  0.00    +0.000 C 
ENDROOT
BRANCH   1   2
ATOM      2  C   UNL     1       6.544   4.808  14.954  0.00  0.00    +0.000 A 
ATOM      3  C   UNL     1       7.581   5.431  14.238  0.00  0.00    +0.000 A 
ATOM      4  C   UNL     1       7.823   5.133  12.890  0.00  0.00    +0.000 A 
ATOM      5  C   UNL     1       7.041   4.195  12.223  0.00  0.00    +0.000 A 
ATOM      6  C   UNL     1       6.020   3.561  12.918  0.00  0.00    +0.000 A 
ATOM      7  F   UNL     1       5.279   2.634  12.294  0.00  0.00    +0.000 F 
ATOM      8  C   UNL     1       5.763   3.863  14.257  0.00  0.00    +0.000 A 
ENDBRANCH   1   2
BRANCH   1   9
ATOM      9  C   UNL     1       5.085   4.238  17.068  0.00  0.00    +0.000 C 
ATOM     10  C   UNL     1       3.742   5.004  17.150  0.00  0.00    +0.000 C 
ATOM     11  C   UNL     1       2.674   4.270  17.959  0.00  0.00    +0.000 C 
ATOM     12  C   UNL     1       3.226   3.800  19.295  0.00  0.00    +0.000 C 
ATOM     13  C   UNL     1       4.466   2.947  19.082  0.00  0.00    +0.000 C 
ATOM     14  N   UNL     1       5.502   3.689  18.376  0.00  0.00    +0.000 NA
ATOM     15  H   UNL     1       6.325   3.100  18.264  0.00  0.00    +0.000 HD
ENDBRANCH   1   9
BRANCH   1  16
ATOM     16  C   UNL     1       7.478   5.001  17.362  0.00  0.00    +0.000 C 
ATOM     17  O   UNL     1       8.298   4.098  17.372  0.00  0.00    +0.000 OA
BRANCH  16  19
ATOM     18  C   UNL     1       7.482   7.346  17.543  0.00  0.00    +0.000 C 
ATOM     19  O   UNL     1       7.537   6.075  18.208  0.00  0.00    +0.000 OA
ENDBRANCH  16  19
ENDBRANCH   1  16
TORSDOF 4
ENDMDL
MODEL 4
REMARK VINA RESULT:      -7.2      0.923      1.277
REMARK  Name = 
REMARK  5 active torsions:
REMARK  status: ('A' for Active; 'I' for Inactive)
REMARK    1  A    between atoms: C_1  and  O_2
REMARK    2  A    between atoms: O_2  and  C_3
REMARK    3  A    between atoms: C_3  and  C_5
REMARK    4  A    between atoms: C_5  and  C_6
REMARK    5  A    between atoms: C_5  and  C_13
REMARK                            x       y       z     vdW  Elec       q    Type
REMARK                         _______ _______ _______ _____ _____    ______ ____
ROOT
ATOM      1  C   UNL     1       5.977   4.671  16.296  0.00  0.00    +0.000 C 
ENDROOT
BRANCH   1   2
ATOM      2  C   UNL     1       4.765   5.352  16.960  0.00  0.00    +0.000 A 
ATOM      3  C   UNL     1       4.587   6.745  17.010  0.00  0.00    +0.000 A 
ATOM      4  C   UNL     1       3.455   7.319  17.604  0.00  0.00    +0.000 A 
ATOM      5  C   UNL     1       2.462   6.514  18.155  0.00  0.00    +0.000 A 
ATOM      6  C   UNL     1       2.616   5.135  18.104  0.00  0.00    +0.000 A 
ATOM      7  F   UNL     1       1.653   4.349  18.605  0.00  0.00    +0.000 F 
ATOM      8  C   UNL     1       3.748   4.556  17.528  0.00  0.00    +0.000 A 
ENDBRANCH   1   2
BRANCH   1   9
ATOM      9  C   UNL     1       6.084   4.850  14.739  0.00  0.00    +0.000 C 
ATOM     10  C   UNL     1       5.490   3.669  13.934  0.00  0.00    +0.000 C 
ATOM     11  C   UNL     1       5.795   3.739  12.439  0.00  0.00    +0.000 C 
ATOM     12  C   UNL     1       7.272   4.002  12.194  0.00  0.00    +0.000 C 
ATOM     13  C   UNL     1       7.711   5.260  12.926  0.00  0.00    +0.000 C 
ATOM     14  N   UNL     1       7.482   5.144  14.360  0.00  0.00    +0.000 NA
ATOM     15  H   UNL     1       7.801   5.992  14.824  0.00  0.00    +0.000 HD
ENDBRANCH   1   9
BRANCH   1  16
ATOM     16  C   UNL     1       7.331   4.999  16.934  0.00  0.00    +0.000 C 
ATOM     17  O   UNL     1       8.152   4.179  17.308  0.00  0.00    +0.000 OA
BRANCH  16  19
ATOM     18  C   UNL     1       7.948   6.763  18.362  0.00  0.00    +0.000 C 
ATOM     19  O   UNL     1       7.511   6.350  17.059  0.00  0.00    +0.000 OA
ENDBRANCH  16  19
ENDBRANCH   1  16
TORSDOF 4
ENDMDL
MODEL 5
REMARK VINA RESULT:      -7.2      2.638      5.282
REMARK  Name = 
REMARK  5 active torsions:
REMARK  status: ('A' for Active; 'I' for Inactive)
REMARK    1  A    between atoms: C_1  and  O_2
REMARK    2  A    between atoms: O_2  and  C_3
REMARK    3  A    between atoms: C_3  and  C_5
REMARK    4  A    between atoms: C_5  and  C_6
REMARK    5  A    between atoms: C_5  and  C_13
REMARK                            x       y       z     vdW  Elec       q    Type
REMARK                         _______ _______ _______ _____ _____    ______ ____
ROOT
ATOM      1  C   UNL     1       6.075   4.984  16.508  0.00  0.00    +0.000 C 
ENDROOT
BRANCH   1   2
ATOM      2  C   UNL     1       6.339   4.648  15.028  0.00  0.00    +0.000 A 
ATOM      3  C   UNL     1       5.581   3.717  14.296  0.00  0.00    +0.000 A 
ATOM      4  C   UNL     1       5.842   3.462  12.943  0.00  0.00    +0.000 A 
ATOM      5  C   UNL     1       6.862   4.140  12.281  0.00  0.00    +0.000 A 
ATOM      6  C   UNL     1       7.613   5.070  12.986  0.00  0.00    +0.000 A 
ATOM      7  F   UNL     1       8.578   5.750  12.352  0.00  0.00    +0.000 F 
ATOM      8  C   UNL     1       7.369   5.319  14.338  0.00  0.00    +0.000 A 
ENDBRANCH   1   2
BRANCH   1   9
ATOM      9  C   UNL     1       4.949   4.138  17.205  0.00  0.00    +0.000 C 
ATOM     10  C   UNL     1       3.616   4.903  17.383  0.00  0.00    +0.000 C 
ATOM     11  C   UNL     1       2.604   4.163  18.256  0.00  0.00    +0.000 C 
ATOM     12  C   UNL     1       3.244   3.682  19.548  0.00  0.00    +0.000 C 
ATOM     13  C   UNL     1       4.467   2.831  19.245  0.00  0.00    +0.000 C 
ATOM     14  N   UNL     1       5.453   3.579  18.477  0.00  0.00    +0.000 NA
ATOM     15  H   UNL     1       6.266   2.991  18.305  0.00  0.00    +0.000 HD
ENDBRANCH   1   9
BRANCH   1  16
ATOM     16  C   UNL     1       7.322   4.993  17.400  0.00  0.00    +0.000 C 
ATOM     17  O   UNL     1       8.191   4.138  17.405  0.00  0.00    +0.000 OA
BRANCH  16  19
ATOM     18  C   UNL     1       7.908   5.830  19.519  0.00  0.00    +0.000 C 
ATOM     19  O   UNL     1       7.338   6.084  18.226  0.00  0.00    +0.000 OA
ENDBRANCH  16  19
ENDBRANCH   1  16
TORSDOF 4
ENDMDL
MODEL 6
REMARK VINA RESULT:      -6.9      4.164      5.982
REMARK  Name = 
REMARK  5 active torsions:
REMARK  status: ('A' for Active; 'I' for Inactive)
REMARK    1  A    between atoms: C_1  and  O_2
REMARK    2  A    between atoms: O_2  and  C_3
REMARK    3  A    between atoms: C_3  and  C_5
REMARK    4  A    between atoms: C_5  and  C_6
REMARK    5  A    between atoms: C_5  and  C_13
REMARK                            x       y       z     vdW  Elec       q    Type
REMARK                         _______ _______ _______ _____ _____    ______ ____
ROOT
ATOM      1  C   UNL     1       3.423   5.851  18.060  0.00  0.00    +0.000 C 
ENDROOT
BRANCH   1   2
ATOM      2  C   UNL     1       4.946   6.084  18.079  0.00  0.00    +0.000 A 
ATOM      3  C   UNL     1       5.627   6.852  17.119  0.00  0.00    +0.000 A 
ATOM      4  C   UNL     1       7.011   7.057  17.192  0.00  0.00    +0.000 A 
ATOM      5  C   UNL     1       7.752   6.509  18.235  0.00  0.00    +0.000 A 
ATOM      6  C   UNL     1       7.094   5.758  19.199  0.00  0.00    +0.000 A 
ATOM      7  F   UNL     1       7.792   5.250  20.224  0.00  0.00    +0.000 F 
ATOM      8  C   UNL     1       5.717   5.536  19.125  0.00  0.00    +0.000 A 
ENDBRANCH   1   2
BRANCH   1   9
ATOM      9  C   UNL     1       2.943   4.465  18.622  0.00  0.00    +0.000 C 
ATOM     10  C   UNL     1       2.947   3.331  17.569  0.00  0.00    +0.000 C 
ATOM     11  C   UNL     1       2.272   2.050  18.055  0.00  0.00    +0.000 C 
ATOM     12  C   UNL     1       0.914   2.347  18.670  0.00  0.00    +0.000 C 
ATOM     13  C   UNL     1       1.053   3.375  19.781  0.00  0.00    +0.000 C 
ATOM     14  N   UNL     1       1.629   4.616  19.283  0.00  0.00    +0.000 NA
ATOM     15  H   UNL     1       1.694   5.290  20.043  0.00  0.00    +0.000 HD
ENDBRANCH   1   9
BRANCH   1  16
ATOM     16  C   UNL     1       2.591   6.969  18.699  0.00  0.00    +0.000 C 
ATOM     17  O   UNL     1       2.526   7.204  19.894  0.00  0.00    +0.000 OA
BRANCH  16  19
ATOM     18  C   UNL     1       2.086   9.097  17.836  0.00  0.00    +0.000 C 
ATOM     19  O   UNL     1       1.896   7.676  17.757  0.00  0.00    +0.000 OA
ENDBRANCH  16  19
ENDBRANCH   1  16
TORSDOF 4
ENDMDL
MODEL 7
REMARK VINA RESULT:      -6.8      2.173      2.873
REMARK  Name = 
REMARK  5 active torsions:
REMARK  status: ('A' for Active; 'I' for Inactive)
REMARK    1  A    between atoms: C_1  and  O_2
REMARK    2  A    between atoms: O_2  and  C_3
REMARK    3  A    between atoms: C_3  and  C_5
REMARK    4  A    between atoms: C_5  and  C_6
REMARK    5  A    between atoms: C_5  and  C_13
REMARK                            x       y       z     vdW  Elec       q    Type
REMARK                         _______ _______ _______ _____ _____    ______ ____
ROOT
ATOM      1  C   UNL     1       4.777   3.802  18.245  0.00  0.00    +0.000 C 
ENDROOT
BRANCH   1   2
ATOM      2  C   UNL     1       3.366   3.490  18.777  0.00  0.00    +0.000 A 
ATOM      3  C   UNL     1       2.197   3.629  18.008  0.00  0.00    +0.000 A 
ATOM      4  C   UNL     1       0.936   3.308  18.526  0.00  0.00    +0.000 A 
ATOM      5  C   UNL     1       0.809   2.828  19.827  0.00  0.00    +0.000 A 
ATOM      6  C   UNL     1       1.953   2.674  20.597  0.00  0.00    +0.000 A 
ATOM      7  F   UNL     1       1.846   2.185  21.840  0.00  0.00    +0.000 F 
ATOM      8  C   UNL     1       3.212   3.005  20.092  0.00  0.00    +0.000 A 
ENDBRANCH   1   2
BRANCH   1   9
ATOM      9  C   UNL     1       4.854   4.223  16.733  0.00  0.00    +0.000 C 
ATOM     10  C   UNL     1       5.789   3.328  15.884  0.00  0.00    +0.000 C 
ATOM     11  C   UNL     1       6.036   3.871  14.478  0.00  0.00    +0.000 C 
ATOM     12  C   UNL     1       6.420   5.341  14.519  0.00  0.00    +0.000 C 
ATOM     13  C   UNL     1       5.362   6.141  15.262  0.00  0.00    +0.000 C 
ATOM     14  N   UNL     1       5.195   5.657  16.625  0.00  0.00    +0.000 NA
ATOM     15  H   UNL     1       4.495   6.222  17.103  0.00  0.00    +0.000 HD
ENDBRANCH   1   9
BRANCH   1  16
ATOM     16  C   UNL     1       5.577   4.804  19.086  0.00  0.00    +0.000 C 
ATOM     17  O   UNL     1       5.099   5.715  19.741  0.00  0.00    +0.000 OA
BRANCH  16  19
ATOM     18  C   UNL     1       7.735   5.728  19.233  0.00  0.00    +0.000 C 
ATOM     19  O   UNL     1       6.922   4.567  19.000  0.00  0.00    +0.000 OA
ENDBRANCH  16  19
ENDBRANCH   1  16
TORSDOF 4
ENDMDL
MODEL 8
REMARK VINA RESULT:      -6.8      3.220      5.992
REMARK  Name = 
REMARK  5 active torsions:
REMARK  status: ('A' for Active; 'I' for Inactive)
REMARK    1  A    between atoms: C_1  and  O_2
REMARK    2  A    between atoms: O_2  and  C_3
REMARK    3  A    between atoms: C_3  and  C_5
REMARK    4  A    between atoms: C_5  and  C_6
REMARK    5  A    between atoms: C_5  and  C_13
REMARK                            x       y       z     vdW  Elec       q    Type
REMARK                         _______ _______ _______ _____ _____    ______ ____
ROOT
ATOM      1  C   UNL     1       3.342   5.081  17.777  0.00  0.00    +0.000 C 
ENDROOT
BRANCH   1   2
ATOM      2  C   UNL     1       4.803   4.941  17.310  0.00  0.00    +0.000 A 
ATOM      3  C   UNL     1       5.909   5.299  18.100  0.00  0.00    +0.000 A 
ATOM      4  C   UNL     1       7.223   5.129  17.643  0.00  0.00    +0.000 A 
ATOM      5  C   UNL     1       7.467   4.585  16.385  0.00  0.00    +0.000 A 
ATOM      6  C   UNL     1       6.387   4.215  15.596  0.00  0.00    +0.000 A 
ATOM      7  F   UNL     1       6.611   3.664  14.395  0.00  0.00    +0.000 F 
ATOM      8  C   UNL     1       5.075   4.395  16.039  0.00  0.00    +0.000 A 
ENDBRANCH   1   2
BRANCH   1   9
ATOM      9  C   UNL     1       2.777   3.872  18.606  0.00  0.00    +0.000 C 
ATOM     10  C   UNL     1       1.232   3.771  18.585  0.00  0.00    +0.000 C 
ATOM     11  C   UNL     1       0.679   2.740  19.567  0.00  0.00    +0.000 C 
ATOM     12  C   UNL     1       1.291   2.916  20.948  0.00  0.00    +0.000 C 
ATOM     13  C   UNL     1       2.808   2.866  20.862  0.00  0.00    +0.000 C 
ATOM     14  N   UNL     1       3.322   3.905  19.980  0.00  0.00    +0.000 NA
ATOM     15  H   UNL     1       4.338   3.858  19.956  0.00  0.00    +0.000 HD
ENDBRANCH   1   9
BRANCH   1  16
ATOM     16  C   UNL     1       3.022   6.388  18.511  0.00  0.00    +0.000 C 
ATOM     17  O   UNL     1       2.642   6.473  19.667  0.00  0.00    +0.000 OA
BRANCH  16  19
ATOM     18  C   UNL     1       2.202   8.497  17.871  0.00  0.00    +0.000 C 
ATOM     19  O   UNL     1       3.194   7.474  17.697  0.00  0.00    +0.000 OA
ENDBRANCH  16  19
ENDBRANCH   1  16
TORSDOF 4
ENDMDL
MODEL 9
REMARK VINA RESULT:      -6.8      3.427      6.179
REMARK  Name = 
REMARK  5 active torsions:
REMARK  status: ('A' for Active; 'I' for Inactive)
REMARK    1  A    between atoms: C_1  and  O_2
REMARK    2  A    between atoms: O_2  and  C_3
REMARK    3  A    between atoms: C_3  and  C_5
REMARK    4  A    between atoms: C_5  and  C_6
REMARK    5  A    between atoms: C_5  and  C_13
REMARK                            x       y       z     vdW  Elec       q    Type
REMARK                         _______ _______ _______ _____ _____    ______ ____
ROOT
ATOM      1  C   UNL     1       3.063   5.093  17.772  0.00  0.00    +0.000 C 
ENDROOT
BRANCH   1   2
ATOM      2  C   UNL     1       4.455   5.021  17.116  0.00  0.00    +0.000 A 
ATOM      3  C   UNL     1       4.836   4.017  16.209  0.00  0.00    +0.000 A 
ATOM      4  C   UNL     1       6.106   4.006  15.617  0.00  0.00    +0.000 A 
ATOM      5  C   UNL     1       7.028   5.007  15.908  0.00  0.00    +0.000 A 
ATOM      6  C   UNL     1       6.666   6.013  16.793  0.00  0.00    +0.000 A 
ATOM      7  F   UNL     1       7.535   6.999  17.058  0.00  0.00    +0.000 F 
ATOM      8  C   UNL     1       5.407   6.022  17.398  0.00  0.00    +0.000 A 
ENDBRANCH   1   2
BRANCH   1   9
ATOM      9  C   UNL     1       2.693   3.887  18.708  0.00  0.00    +0.000 C 
ATOM     10  C   UNL     1       1.277   3.990  19.325  0.00  0.00    +0.000 C 
ATOM     11  C   UNL     1       1.007   2.942  20.403  0.00  0.00    +0.000 C 
ATOM     12  C   UNL     1       2.143   2.890  21.412  0.00  0.00    +0.000 C 
ATOM     13  C   UNL     1       3.467   2.653  20.703  0.00  0.00    +0.000 C 
ATOM     14  N   UNL     1       3.742   3.703  19.733  0.00  0.00    +0.000 NA
ATOM     15  H   UNL     1       4.641   3.528  19.288  0.00  0.00    +0.000 HD
ENDBRANCH   1   9
BRANCH   1  16
ATOM     16  C   UNL     1       2.761   6.407  18.501  0.00  0.00    +0.000 C 
ATOM     17  O   UNL     1       3.009   6.637  19.673  0.00  0.00    +0.000 OA
BRANCH  16  19
ATOM     18  C   UNL     1       2.198   8.663  18.146  0.00  0.00    +0.000 C 
ATOM     19  O   UNL     1       2.147   7.307  17.674  0.00  0.00    +0.000 OA
ENDBRANCH  16  19
ENDBRANCH   1  16
TORSDOF 4
ENDMDL
