MODEL 1
REMARK VINA RESULT:      -6.7      0.000      0.000
REMARK  Name = 
REMARK  7 active torsions:
REMARK  status: ('A' for Active; 'I' for Inactive)
REMARK    1  A    between atoms: C_1  and  C_2
REMARK    2  A    between atoms: C_5  and  S_6
REMARK    3  A    between atoms: S_6  and  C_9
REMARK    4  A    between atoms: C_11  and  S_12
REMARK    5  A    between atoms: S_12  and  C_13
REMARK    6  A    between atoms: C_17  and  N_18
REMARK    7  A    between atoms: C_23  and  C_24
REMARK                            x       y       z     vdW  Elec       q    Type
REMARK                         _______ _______ _______ _____ _____    ______ ____
ROOT
ATOM      1  C   UNL     1       4.160   6.006  18.254  0.00  0.00    +0.000 A 
ATOM      2  N   UNL     1       3.853   7.360  18.041  0.00  0.00    +0.000 NA
ATOM      3  C   UNL     1       2.562   7.542  18.152  0.00  0.00    +0.000 A 
ATOM      4  S   UNL     1       1.634   6.171  18.486  0.00  0.00    +0.000 S 
ATOM      5  C   UNL     1       3.072   5.161  18.546  0.00  0.00    +0.000 A 
ENDROOT
BRANCH   5   6
ATOM      6  N   UNL     1       2.968   3.817  18.869  0.00  0.00    +0.000 N 
ATOM      7  C   UNL     1       2.638   2.807  17.859  0.00  0.00    +0.000 C 
ATOM      8  C   UNL     1       3.722   1.736  17.787  0.00  0.00    +0.000 C 
ATOM      9  C   UNL     1       3.972   1.098  19.143  0.00  0.00    +0.000 C 
ATOM     10  C   UNL     1       4.290   2.172  20.180  0.00  0.00    +0.000 C 
ATOM     11  C   UNL     1       3.240   3.295  20.230  0.00  0.00    +0.000 C 
ATOM     12  C   UNL     1       1.940   2.825  20.892  0.00  0.00    +0.000 C 
ENDBRANCH   5   6
BRANCH   3  13
ATOM     13  S   UNL     1       1.741   9.101  17.993  0.00  0.00    +0.000 S 
ATOM     14  C   UNL     1       1.255   9.481  19.658  0.00  0.00    +0.000 C 
ATOM     15  O   UNL     1       2.750  10.054  17.576  0.00  0.00    +0.000 OA
ATOM     16  O   UNL     1       0.546   8.850  17.210  0.00  0.00    +0.000 OA
ENDBRANCH   3  13
BRANCH   1  17
ATOM     17  S   UNL     1       5.845   5.552  18.052  0.00  0.00    +0.000 S 
ATOM     18  O   UNL     1       6.056   4.413  18.923  0.00  0.00    +0.000 OA
ATOM     19  O   UNL     1       6.608   6.779  18.160  0.00  0.00    +0.000 OA
BRANCH  17  24
ATOM     20  C   UNL     1       6.286   3.546  12.336  0.00  0.00    +0.000 C 
ATOM     21  C   UNL     1       6.180   4.082  13.735  0.00  0.00    +0.000 A 
ATOM     22  C   UNL     1       7.273   4.707  14.354  0.00  0.00    +0.000 A 
ATOM     23  C   UNL     1       7.174   5.178  15.664  0.00  0.00    +0.000 A 
ATOM     24  C   UNL     1       5.977   5.011  16.361  0.00  0.00    +0.000 A 
ATOM     25  C   UNL     1       4.868   4.417  15.746  0.00  0.00    +0.000 A 
ATOM     26  C   UNL     1       4.976   3.951  14.436  0.00  0.00    +0.000 A 
ENDBRANCH  17  24
ENDBRANCH   1  17
TORSDOF 4
ENDMDL
MODEL 2
REMARK VINA RESULT:      -6.7      4.682      8.376
REMARK  Name = 
REMARK  7 active torsions:
REMARK  status: ('A' for Active; 'I' for Inactive)
REMARK    1  A    between atoms: C_1  and  C_2
REMARK    2  A    between atoms: C_5  and  S_6
REMARK    3  A    between atoms: S_6  and  C_9
REMARK    4  A    between atoms: C_11  and  S_12
REMARK    5  A    between atoms: S_12  and  C_13
REMARK    6  A    between atoms: C_17  and  N_18
REMARK    7  A    between atoms: C_23  and  C_24
REMARK                            x       y       z     vdW  Elec       q    Type
REMARK                         _______ _______ _______ _____ _____    ______ ____
ROOT
ATOM      1  C   UNL     1      -0.339  10.785  19.572  0.00  0.00    +0.000 A 
ATOM      2  N   UNL     1      -1.482  10.190  19.011  0.00  0.00    +0.000 NA
ATOM      3  C   UNL     1      -2.075  11.041  18.214  0.00  0.00    +0.000 A 
ATOM      4  S   UNL     1      -1.365  12.568  18.080  0.00  0.00    +0.000 S 
ATOM      5  C   UNL     1      -0.066  12.106  19.169  0.00  0.00    +0.000 A 
ENDROOT
BRANCH   5   6
ATOM      6  N   UNL     1       0.966  12.991  19.440  0.00  0.00    +0.000 N 
ATOM      7  C   UNL     1       2.332  12.748  18.963  0.00  0.00    +0.000 C 
ATOM      8  C   UNL     1       2.823  13.910  18.106  0.00  0.00    +0.000 C 
ATOM      9  C   UNL     1       2.724  15.234  18.845  0.00  0.00    +0.000 C 
ATOM     10  C   UNL     1       1.301  15.452  19.349  0.00  0.00    +0.000 C 
ATOM     11  C   UNL     1       0.760  14.266  20.168  0.00  0.00    +0.000 C 
ATOM     12  C   UNL     1       1.405  14.199  21.557  0.00  0.00    +0.000 C 
ENDBRANCH   5   6
BRANCH   3  13
ATOM     13  S   UNL     1      -3.533  10.700  17.271  0.00  0.00    +0.000 S 
ATOM     14  C   UNL     1      -2.971  10.807  15.591  0.00  0.00    +0.000 C 
ATOM     15  O   UNL     1      -3.891   9.325  17.555  0.00  0.00    +0.000 OA
ATOM     16  O   UNL     1      -4.443  11.802  17.524  0.00  0.00    +0.000 OA
ENDBRANCH   3  13
BRANCH   1  17
ATOM     17  S   UNL     1       0.538   9.819  20.749  0.00  0.00    +0.000 S 
ATOM     18  O   UNL     1      -0.469   9.081  21.485  0.00  0.00    +0.000 OA
ATOM     19  O   UNL     1       1.479  10.719  21.386  0.00  0.00    +0.000 OA
BRANCH  17  24
ATOM     20  C   UNL     1       3.939   5.933  17.552  0.00  0.00    +0.000 C 
ATOM     21  C   UNL     1       3.065   6.887  18.315  0.00  0.00    +0.000 A 
ATOM     22  C   UNL     1       2.670   8.111  17.755  0.00  0.00    +0.000 A 
ATOM     23  C   UNL     1       1.880   9.004  18.482  0.00  0.00    +0.000 A 
ATOM     24  C   UNL     1       1.496   8.673  19.782  0.00  0.00    +0.000 A 
ATOM     25  C   UNL     1       1.857   7.442  20.343  0.00  0.00    +0.000 A 
ATOM     26  C   UNL     1       2.645   6.556  19.608  0.00  0.00    +0.000 A 
ENDBRANCH  17  24
ENDBRANCH   1  17
TORSDOF 4
ENDMDL
MODEL 3
REMARK VINA RESULT:      -6.6      8.074     10.681
REMARK  Name = 
REMARK  7 active torsions:
REMARK  status: ('A' for Active; 'I' for Inactive)
REMARK    1  A    between atoms: C_1  and  C_2
REMARK    2  A    between atoms: C_5  and  S_6
REMARK    3  A    between atoms: S_6  and  C_9
REMARK    4  A    between atoms: C_11  and  S_12
REMARK    5  A    between atoms: S_12  and  C_13
REMARK    6  A    between atoms: C_17  and  N_18
REMARK    7  A    between atoms: C_23  and  C_24
REMARK                            x       y       z     vdW  Elec       q    Type
REMARK                         _______ _______ _______ _____ _____    ______ ____
ROOT
ATOM      1  C   UNL     1      -0.664  12.752  22.165  0.00  0.00    +0.000 A 
ATOM      2  N   UNL     1      -1.648  12.769  23.167  0.00  0.00    +0.000 NA
ATOM      3  C   UNL     1      -1.882  14.003  23.534  0.00  0.00    +0.000 A 
ATOM      4  S   UNL     1      -0.974  15.202  22.764  0.00  0.00    +0.000 S 
ATOM      5  C   UNL     1      -0.164  14.006  21.764  0.00  0.00    +0.000 A 
ENDROOT
BRANCH   5   6
ATOM      6  N   UNL     1       0.741  14.405  20.793  0.00  0.00    +0.000 N 
ATOM      7  C   UNL     1       2.110  14.803  21.136  0.00  0.00    +0.000 C 
ATOM      8  C   UNL     1       3.128  13.947  20.390  0.00  0.00    +0.000 C 
ATOM      9  C   UNL     1       2.902  13.986  18.888  0.00  0.00    +0.000 C 
ATOM     10  C   UNL     1       1.465  13.590  18.561  0.00  0.00    +0.000 C 
ATOM     11  C   UNL     1       0.419  14.401  19.345  0.00  0.00    +0.000 C 
ATOM     12  C   UNL     1       0.305  15.836  18.819  0.00  0.00    +0.000 C 
ENDBRANCH   5   6
BRANCH   3  13
ATOM     13  S   UNL     1      -3.072  14.492  24.748  0.00  0.00    +0.000 S 
ATOM     14  C   UNL     1      -4.024  15.736  23.913  0.00  0.00    +0.000 C 
ATOM     15  O   UNL     1      -3.918  13.337  24.980  0.00  0.00    +0.000 OA
ATOM     16  O   UNL     1      -2.322  15.125  25.817  0.00  0.00    +0.000 OA
ENDBRANCH   3  13
BRANCH   1  17
ATOM     17  S   UNL     1      -0.150  11.166  21.611  0.00  0.00    +0.000 S 
ATOM     18  O   UNL     1      -0.800  10.211  22.487  0.00  0.00    +0.000 OA
ATOM     19  O   UNL     1       1.289  11.241  21.455  0.00  0.00    +0.000 OA
BRANCH  17  24
ATOM     20  C   UNL     1      -2.626  10.530  16.102  0.00  0.00    +0.000 C 
ATOM     21  C   UNL     1      -1.981  10.707  17.446  0.00  0.00    +0.000 A 
ATOM     22  C   UNL     1      -0.812  10.008  17.784  0.00  0.00    +0.000 A 
ATOM     23  C   UNL     1      -0.233  10.158  19.046  0.00  0.00    +0.000 A 
ATOM     24  C   UNL     1      -0.836  11.003  19.978  0.00  0.00    +0.000 A 
ATOM     25  C   UNL     1      -1.986  11.731  19.644  0.00  0.00    +0.000 A 
ATOM     26  C   UNL     1      -2.556  11.576  18.381  0.00  0.00    +0.000 A 
ENDBRANCH  17  24
ENDBRANCH   1  17
TORSDOF 4
ENDMDL
MODEL 4
REMARK VINA RESULT:      -6.6      4.712      8.386
REMARK  Name = 
REMARK  7 active torsions:
REMARK  status: ('A' for Active; 'I' for Inactive)
REMARK    1  A    between atoms: C_1  and  C_2
REMARK    2  A    between atoms: C_5  and  S_6
REMARK    3  A    between atoms: S_6  and  C_9
REMARK    4  A    between atoms: C_11  and  S_12
REMARK    5  A    between atoms: S_12  and  C_13
REMARK    6  A    between atoms: C_17  and  N_18
REMARK    7  A    between atoms: C_23  and  C_24
REMARK                            x       y       z     vdW  Elec       q    Type
REMARK                         _______ _______ _______ _____ _____    ______ ____
ROOT
ATOM      1  C   UNL     1      -0.347  10.792  19.603  0.00  0.00    +0.000 A 
ATOM      2  N   UNL     1      -1.482  10.184  19.040  0.00  0.00    +0.000 NA
ATOM      3  C   UNL     1      -2.064  11.018  18.217  0.00  0.00    +0.000 A 
ATOM      4  S   UNL     1      -1.354  12.542  18.060  0.00  0.00    +0.000 S 
ATOM      5  C   UNL     1      -0.068  12.104  19.176  0.00  0.00    +0.000 A 
ENDROOT
BRANCH   5   6
ATOM      6  N   UNL     1       0.960  12.995  19.440  0.00  0.00    +0.000 N 
ATOM      7  C   UNL     1       2.326  12.756  18.964  0.00  0.00    +0.000 C 
ATOM      8  C   UNL     1       2.811  13.916  18.100  0.00  0.00    +0.000 C 
ATOM      9  C   UNL     1       2.707  15.243  18.832  0.00  0.00    +0.000 C 
ATOM     10  C   UNL     1       1.282  15.457  19.337  0.00  0.00    +0.000 C 
ATOM     11  C   UNL     1       0.749  14.273  20.163  0.00  0.00    +0.000 C 
ATOM     12  C   UNL     1       1.395  14.215  21.552  0.00  0.00    +0.000 C 
ENDBRANCH   5   6
BRANCH   3  13
ATOM     13  S   UNL     1      -3.510  10.656  17.263  0.00  0.00    +0.000 S 
ATOM     14  C   UNL     1      -4.746  11.714  17.972  0.00  0.00    +0.000 C 
ATOM     15  O   UNL     1      -3.232  11.105  15.913  0.00  0.00    +0.000 OA
ATOM     16  O   UNL     1      -3.856   9.278  17.562  0.00  0.00    +0.000 OA
ENDBRANCH   3  13
BRANCH   1  17
ATOM     17  S   UNL     1       0.515   9.852  20.811  0.00  0.00    +0.000 S 
ATOM     18  O   UNL     1      -0.501   9.123  21.545  0.00  0.00    +0.000 OA
ATOM     19  O   UNL     1       1.442  10.767  21.447  0.00  0.00    +0.000 OA
BRANCH  17  24
ATOM     20  C   UNL     1       3.722   5.868  17.536  0.00  0.00    +0.000 C 
ATOM     21  C   UNL     1       2.963   6.858  18.371  0.00  0.00    +0.000 A 
ATOM     22  C   UNL     1       2.584   6.553  19.687  0.00  0.00    +0.000 A 
ATOM     23  C   UNL     1       1.855   7.469  20.448  0.00  0.00    +0.000 A 
ATOM     24  C   UNL     1       1.494   8.692  19.882  0.00  0.00    +0.000 A 
ATOM     25  C   UNL     1       1.892   9.024  18.581  0.00  0.00    +0.000 A 
ATOM     26  C   UNL     1       2.621   8.103  17.829  0.00  0.00    +0.000 A 
ENDBRANCH  17  24
ENDBRANCH   1  17
TORSDOF 4
ENDMDL
MODEL 5
REMARK VINA RESULT:      -6.5      0.512      1.524
REMARK  Name = 
REMARK  7 active torsions:
REMARK  status: ('A' for Active; 'I' for Inactive)
REMARK    1  A    between atoms: C_1  and  C_2
REMARK    2  A    between atoms: C_5  and  S_6
REMARK    3  A    between atoms: S_6  and  C_9
REMARK    4  A    between atoms: C_11  and  S_12
REMARK    5  A    between atoms: S_12  and  C_13
REMARK    6  A    between atoms: C_17  and  N_18
REMARK    7  A    between atoms: C_23  and  C_24
REMARK                            x       y       z     vdW  Elec       q    Type
REMARK                         _______ _______ _______ _____ _____    ______ ____
ROOT
ATOM      1  C   UNL     1       4.161   6.100  18.357  0.00  0.00    +0.000 A 
ATOM      2  N   UNL     1       3.891   7.448  18.069  0.00  0.00    +0.000 NA
ATOM      3  C   UNL     1       2.608   7.675  18.187  0.00  0.00    +0.000 A 
ATOM      4  S   UNL     1       1.646   6.355  18.616  0.00  0.00    +0.000 S 
ATOM      5  C   UNL     1       3.054   5.307  18.715  0.00  0.00    +0.000 A 
ENDROOT
BRANCH   5   6
ATOM      6  N   UNL     1       2.916   3.989  19.119  0.00  0.00    +0.000 N 
ATOM      7  C   UNL     1       3.133   3.584  20.511  0.00  0.00    +0.000 C 
ATOM      8  C   UNL     1       1.894   2.899  21.077  0.00  0.00    +0.000 C 
ATOM      9  C   UNL     1       1.463   1.719  20.222  0.00  0.00    +0.000 C 
ATOM     10  C   UNL     1       1.266   2.162  18.775  0.00  0.00    +0.000 C 
ATOM     11  C   UNL     1       2.483   2.909  18.199  0.00  0.00    +0.000 C 
ATOM     12  C   UNL     1       3.646   1.955  17.909  0.00  0.00    +0.000 C 
ENDBRANCH   5   6
BRANCH   3  13
ATOM     13  S   UNL     1       1.830   9.247  17.948  0.00  0.00    +0.000 S 
ATOM     14  C   UNL     1       1.374   9.734  19.593  0.00  0.00    +0.000 C 
ATOM     15  O   UNL     1       2.862  10.144  17.467  0.00  0.00    +0.000 OA
ATOM     16  O   UNL     1       0.620   8.986  17.192  0.00  0.00    +0.000 OA
ENDBRANCH   3  13
BRANCH   1  17
ATOM     17  S   UNL     1       5.829   5.584  18.158  0.00  0.00    +0.000 S 
ATOM     18  O   UNL     1       5.996   4.438  19.029  0.00  0.00    +0.000 OA
ATOM     19  O   UNL     1       6.636   6.783  18.269  0.00  0.00    +0.000 OA
BRANCH  17  24
ATOM     20  C   UNL     1       6.218   3.568  12.442  0.00  0.00    +0.000 C 
ATOM     21  C   UNL     1       6.124   4.107  13.841  0.00  0.00    +0.000 A 
ATOM     22  C   UNL     1       7.214   4.755  14.440  0.00  0.00    +0.000 A 
ATOM     23  C   UNL     1       7.126   5.229  15.751  0.00  0.00    +0.000 A 
ATOM     24  C   UNL     1       5.944   5.041  16.468  0.00  0.00    +0.000 A 
ATOM     25  C   UNL     1       4.837   4.423  15.872  0.00  0.00    +0.000 A 
ATOM     26  C   UNL     1       4.934   3.954  14.562  0.00  0.00    +0.000 A 
ENDBRANCH  17  24
ENDBRANCH   1  17
TORSDOF 4
ENDMDL
MODEL 6
REMARK VINA RESULT:      -6.4      8.731     11.155
REMARK  Name = 
REMARK  7 active torsions:
REMARK  status: ('A' for Active; 'I' for Inactive)
REMARK    1  A    between atoms: C_1  and  C_2
REMARK    2  A    between atoms: C_5  and  S_6
REMARK    3  A    between atoms: S_6  and  C_9
REMARK    4  A    between atoms: C_11  and  S_12
REMARK    5  A    between atoms: S_12  and  C_13
REMARK    6  A    between atoms: C_17  and  N_18
REMARK    7  A    between atoms: C_23  and  C_24
REMARK                            x       y       z     vdW  Elec       q    Type
REMARK                         _______ _______ _______ _____ _____    ______ ____
ROOT
ATOM      1  C   UNL     1       8.206  14.682  20.210  0.00  0.00    +0.000 A 
ATOM      2  N   UNL     1       7.025  15.442  20.204  0.00  0.00    +0.000 NA
ATOM      3  C   UNL     1       6.377  15.240  19.086  0.00  0.00    +0.000 A 
ATOM      4  S   UNL     1       7.095  14.184  17.980  0.00  0.00    +0.000 S 
ATOM      5  C   UNL     1       8.435  13.880  19.076  0.00  0.00    +0.000 A 
ENDROOT
BRANCH   5   6
ATOM      6  N   UNL     1       9.421  12.968  18.736  0.00  0.00    +0.000 N 
ATOM      7  C   UNL     1      10.497  13.312  17.801  0.00  0.00    +0.000 C 
ATOM      8  C   UNL     1      11.864  13.119  18.450  0.00  0.00    +0.000 C 
ATOM      9  C   UNL     1      12.035  11.710  18.993  0.00  0.00    +0.000 C 
ATOM     10  C   UNL     1      10.891  11.370  19.944  0.00  0.00    +0.000 C 
ATOM     11  C   UNL     1       9.500  11.612  19.331  0.00  0.00    +0.000 C 
ATOM     12  C   UNL     1       9.150  10.548  18.286  0.00  0.00    +0.000 C 
ENDBRANCH   5   6
BRANCH   3  13
ATOM     13  S   UNL     1       4.820  15.971  18.671  0.00  0.00    +0.000 S 
ATOM     14  C   UNL     1       3.746  15.419  19.971  0.00  0.00    +0.000 C 
ATOM     15  O   UNL     1       4.997  17.405  18.791  0.00  0.00    +0.000 OA
ATOM     16  O   UNL     1       4.400  15.347  17.430  0.00  0.00    +0.000 OA
ENDBRANCH   3  13
BRANCH   1  17
ATOM     17  S   UNL     1       9.260  14.898  21.600  0.00  0.00    +0.000 S 
ATOM     18  O   UNL     1       9.112  16.285  21.997  0.00  0.00    +0.000 OA
ATOM     19  O   UNL     1      10.535  14.315  21.233  0.00  0.00    +0.000 OA
BRANCH  17  24
ATOM     20  C   UNL     1       6.753  11.346  25.841  0.00  0.00    +0.000 C 
ATOM     21  C   UNL     1       7.408  12.228  24.817  0.00  0.00    +0.000 A 
ATOM     22  C   UNL     1       7.629  13.590  25.072  0.00  0.00    +0.000 A 
ATOM     23  C   UNL     1       8.214  14.409  24.104  0.00  0.00    +0.000 A 
ATOM     24  C   UNL     1       8.567  13.862  22.870  0.00  0.00    +0.000 A 
ATOM     25  C   UNL     1       8.381  12.498  22.612  0.00  0.00    +0.000 A 
ATOM     26  C   UNL     1       7.797  11.688  23.586  0.00  0.00    +0.000 A 
ENDBRANCH  17  24
ENDBRANCH   1  17
TORSDOF 4
ENDMDL
MODEL 7
REMARK VINA RESULT:      -6.4      6.523     10.141
REMARK  Name = 
REMARK  7 active torsions:
REMARK  status: ('A' for Active; 'I' for Inactive)
REMARK    1  A    between atoms: C_1  and  C_2
REMARK    2  A    between atoms: C_5  and  S_6
REMARK    3  A    between atoms: S_6  and  C_9
REMARK    4  A    between atoms: C_11  and  S_12
REMARK    5  A    between atoms: S_12  and  C_13
REMARK    6  A    between atoms: C_17  and  N_18
REMARK    7  A    between atoms: C_23  and  C_24
REMARK                            x       y       z     vdW  Elec       q    Type
REMARK                         _______ _______ _______ _____ _____    ______ ____
ROOT
ATOM      1  C   UNL     1      -1.392  12.792  20.532  0.00  0.00    +0.000 A 
ATOM      2  N   UNL     1      -2.534  12.589  21.326  0.00  0.00    +0.000 NA
ATOM      3  C   UNL     1      -2.383  13.193  22.476  0.00  0.00    +0.000 A 
ATOM      4  S   UNL     1      -0.923  14.008  22.714  0.00  0.00    +0.000 S 
ATOM      5  C   UNL     1      -0.374  13.582  21.100  0.00  0.00    +0.000 A 
ENDROOT
BRANCH   5   6
ATOM      6  N   UNL     1       0.843  14.050  20.630  0.00  0.00    +0.000 N 
ATOM      7  C   UNL     1       2.007  13.168  20.497  0.00  0.00    +0.000 C 
ATOM      8  C   UNL     1       2.525  13.165  19.063  0.00  0.00    +0.000 C 
ATOM      9  C   UNL     1       2.840  14.570  18.576  0.00  0.00    +0.000 C 
ATOM     10  C   UNL     1       1.621  15.472  18.746  0.00  0.00    +0.000 C 
ATOM     11  C   UNL     1       1.043  15.447  20.173  0.00  0.00    +0.000 C 
ATOM     12  C   UNL     1       1.936  16.209  21.158  0.00  0.00    +0.000 C 
ENDBRANCH   5   6
BRANCH   3  13
ATOM     13  S   UNL     1      -3.591  13.227  23.769  0.00  0.00    +0.000 S 
ATOM     14  C   UNL     1      -5.031  13.889  22.969  0.00  0.00    +0.000 C 
ATOM     15  O   UNL     1      -3.851  11.845  24.122  0.00  0.00    +0.000 OA
ATOM     16  O   UNL     1      -3.116  14.195  24.740  0.00  0.00    +0.000 OA
ENDBRANCH   3  13
BRANCH   1  17
ATOM     17  S   UNL     1      -1.373  11.972  18.979  0.00  0.00    +0.000 S 
ATOM     18  O   UNL     1      -0.813  12.922  18.037  0.00  0.00    +0.000 OA
ATOM     19  O   UNL     1      -2.687  11.384  18.818  0.00  0.00    +0.000 OA
BRANCH  17  24
ATOM     20  C   UNL     1       2.434   7.279  19.583  0.00  0.00    +0.000 C 
ATOM     21  C   UNL     1       1.519   8.463  19.458  0.00  0.00    +0.000 A 
ATOM     22  C   UNL     1       0.808   8.947  20.566  0.00  0.00    +0.000 A 
ATOM     23  C   UNL     1      -0.061  10.032  20.434  0.00  0.00    +0.000 A 
ATOM     24  C   UNL     1      -0.227  10.626  19.183  0.00  0.00    +0.000 A 
ATOM     25  C   UNL     1       0.499  10.173  18.074  0.00  0.00    +0.000 A 
ATOM     26  C   UNL     1       1.366   9.090  18.216  0.00  0.00    +0.000 A 
ENDBRANCH  17  24
ENDBRANCH   1  17
TORSDOF 4
ENDMDL
MODEL 8
REMARK VINA RESULT:      -6.3      8.214     10.888
REMARK  Name = 
REMARK  7 active torsions:
REMARK  status: ('A' for Active; 'I' for Inactive)
REMARK    1  A    between atoms: C_1  and  C_2
REMARK    2  A    between atoms: C_5  and  S_6
REMARK    3  A    between atoms: S_6  and  C_9
REMARK    4  A    between atoms: C_11  and  S_12
REMARK    5  A    between atoms: S_12  and  C_13
REMARK    6  A    between atoms: C_17  and  N_18
REMARK    7  A    between atoms: C_23  and  C_24
REMARK                            x       y       z     vdW  Elec       q    Type
REMARK                         _______ _______ _______ _____ _____    ______ ____
ROOT
ATOM      1  C   UNL     1      -0.381  13.002  22.156  0.00  0.00    +0.000 A 
ATOM      2  N   UNL     1      -1.041  13.265  23.367  0.00  0.00    +0.000 NA
ATOM      3  C   UNL     1      -1.031  14.551  23.605  0.00  0.00    +0.000 A 
ATOM      4  S   UNL     1      -0.249  15.521  22.465  0.00  0.00    +0.000 S 
ATOM      5  C   UNL     1       0.120  14.123  21.466  0.00  0.00    +0.000 A 
ENDROOT
BRANCH   5   6
ATOM      6  N   UNL     1       0.759  14.285  20.247  0.00  0.00    +0.000 N 
ATOM      7  C   UNL     1       0.093  14.928  19.109  0.00  0.00    +0.000 C 
ATOM      8  C   UNL     1       0.893  16.130  18.619  0.00  0.00    +0.000 C 
ATOM      9  C   UNL     1       2.324  15.751  18.277  0.00  0.00    +0.000 C 
ATOM     10  C   UNL     1       2.986  15.064  19.469  0.00  0.00    +0.000 C 
ATOM     11  C   UNL     1       2.168  13.883  20.019  0.00  0.00    +0.000 C 
ATOM     12  C   UNL     1       2.233  12.667  19.087  0.00  0.00    +0.000 C 
ENDBRANCH   5   6
BRANCH   3  13
ATOM     13  S   UNL     1      -1.780  15.329  25.007  0.00  0.00    +0.000 S 
ATOM     14  C   UNL     1      -2.273  16.916  24.381  0.00  0.00    +0.000 C 
ATOM     15  O   UNL     1      -2.970  14.561  25.314  0.00  0.00    +0.000 OA
ATOM     16  O   UNL     1      -0.717  15.526  25.975  0.00  0.00    +0.000 OA
ENDBRANCH   3  13
BRANCH   1  17
ATOM     17  S   UNL     1      -0.213  11.310  21.716  0.00  0.00    +0.000 S 
ATOM     18  O   UNL     1      -1.011  10.570  22.675  0.00  0.00    +0.000 OA
ATOM     19  O   UNL     1       1.206  11.082  21.529  0.00  0.00    +0.000 OA
BRANCH  17  24
ATOM     20  C   UNL     1      -2.664  10.910  16.174  0.00  0.00    +0.000 C 
ATOM     21  C   UNL     1      -2.094  10.992  17.561  0.00  0.00    +0.000 A 
ATOM     22  C   UNL     1      -2.622  11.883  18.508  0.00  0.00    +0.000 A 
ATOM     23  C   UNL     1      -2.068  11.971  19.786  0.00  0.00    +0.000 A 
ATOM     24  C   UNL     1      -0.971  11.172  20.113  0.00  0.00    +0.000 A 
ATOM     25  C   UNL     1      -0.454  10.257  19.188  0.00  0.00    +0.000 A 
ATOM     26  C   UNL     1      -1.014  10.174  17.914  0.00  0.00    +0.000 A 
ENDBRANCH  17  24
ENDBRANCH   1  17
TORSDOF 4
ENDMDL
MODEL 9
REMARK VINA RESULT:      -6.3      5.656      9.738
REMARK  Name = 
REMARK  7 active torsions:
REMARK  status: ('A' for Active; 'I' for Inactive)
REMARK    1  A    between atoms: C_1  and  C_2
REMARK    2  A    between atoms: C_5  and  S_6
REMARK    3  A    between atoms: S_6  and  C_9
REMARK    4  A    between atoms: C_11  and  S_12
REMARK    5  A    between atoms: S_12  and  C_13
REMARK    6  A    between atoms: C_17  and  N_18
REMARK    7  A    between atoms: C_23  and  C_24
REMARK                            x       y       z     vdW  Elec       q    Type
REMARK                         _______ _______ _______ _____ _____    ______ ____
ROOT
ATOM      1  C   UNL     1      -1.087  12.215  19.721  0.00  0.00    +0.000 A 
ATOM      2  N   UNL     1      -1.515  11.369  18.685  0.00  0.00    +0.000 NA
ATOM      3  C   UNL     1      -2.812  11.472  18.541  0.00  0.00    +0.000 A 
ATOM      4  S   UNL     1      -3.605  12.526  19.594  0.00  0.00    +0.000 S 
ATOM      5  C   UNL     1      -2.087  12.979  20.353  0.00  0.00    +0.000 A 
ENDROOT
BRANCH   5   6
ATOM      6  N   UNL     1      -2.063  13.946  21.346  0.00  0.00    +0.000 N 
ATOM      7  C   UNL     1      -2.628  13.696  22.676  0.00  0.00    +0.000 C 
ATOM      8  C   UNL     1      -1.576  13.905  23.761  0.00  0.00    +0.000 C 
ATOM      9  C   UNL     1      -0.950  15.287  23.678  0.00  0.00    +0.000 C 
ATOM     10  C   UNL     1      -0.391  15.529  22.279  0.00  0.00    +0.000 C 
ATOM     11  C   UNL     1      -1.417  15.268  21.163  0.00  0.00    +0.000 C 
ATOM     12  C   UNL     1      -2.475  16.375  21.098  0.00  0.00    +0.000 C 
ENDBRANCH   5   6
BRANCH   3  13
ATOM     13  S   UNL     1      -3.768  10.608  17.328  0.00  0.00    +0.000 S 
ATOM     14  C   UNL     1      -2.858  10.867  15.826  0.00  0.00    +0.000 C 
ATOM     15  O   UNL     1      -3.698   9.203  17.677  0.00  0.00    +0.000 OA
ATOM     16  O   UNL     1      -5.030  11.317  17.230  0.00  0.00    +0.000 OA
ENDBRANCH   3  13
BRANCH   1  17
ATOM     17  S   UNL     1       0.622  12.141  20.125  0.00  0.00    +0.000 S 
ATOM     18  O   UNL     1       0.688  12.164  21.573  0.00  0.00    +0.000 OA
ATOM     19  O   UNL     1       1.275  13.128  19.290  0.00  0.00    +0.000 OA
BRANCH  17  24
ATOM     20  C   UNL     1       2.595   6.701  18.279  0.00  0.00    +0.000 C 
ATOM     21  C   UNL     1       2.075   8.043  18.708  0.00  0.00    +0.000 A 
ATOM     22  C   UNL     1       2.125   9.147  17.843  0.00  0.00    +0.000 A 
ATOM     23  C   UNL     1       1.664  10.398  18.260  0.00  0.00    +0.000 A 
ATOM     24  C   UNL     1       1.161  10.545  19.553  0.00  0.00    +0.000 A 
ATOM     25  C   UNL     1       1.076   9.445  20.416  0.00  0.00    +0.000 A 
ATOM     26  C   UNL     1       1.538   8.199  19.991  0.00  0.00    +0.000 A 
ENDBRANCH  17  24
ENDBRANCH   1  17
TORSDOF 4
ENDMDL
