MODEL 1
REMARK VINA RESULT:      -9.0      0.000      0.000
REMARK  Name = 
REMARK  4 active torsions:
REMARK  status: ('A' for Active; 'I' for Inactive)
REMARK    1  A    between atoms: C_1  and  C_2
REMARK    2  A    between atoms: C_3  and  C_4
REMARK    3  A    between atoms: C_9  and  C_10
REMARK    4  A    between atoms: C_15  and  C_16
REMARK                            x       y       z     vdW  Elec       q    Type
REMARK                         _______ _______ _______ _____ _____    ______ ____
ROOT
ATOM      1  C   UNL     1       1.767   8.622  17.923  0.00  0.00    +0.000 C 
ATOM      2  C   UNL     1       1.555   8.714  19.396  0.00  0.00    +0.000 A 
ATOM      3  C   UNL     1       1.151   9.774  20.205  0.00  0.00    +0.000 A 
ATOM      4  C   UNL     1       0.997   9.172  21.471  0.00  0.00    +0.000 A 
ATOM      5  N   UNL     1       1.389   7.906  21.520  0.00  0.00    +0.000 NA
ATOM      6  N   UNL     1       1.718   7.617  20.230  0.00  0.00    +0.000 N 
ATOM      7  C   UNL     1       2.127   6.305  19.937  0.00  0.00    +0.000 A 
ATOM      8  N   UNL     1       2.474   5.898  18.756  0.00  0.00    +0.000 NA
ATOM      9  C   UNL     1       2.812   4.583  18.693  0.00  0.00    +0.000 A 
ATOM     10  C   UNL     1       2.795   3.720  19.708  0.00  0.00    +0.000 A 
ATOM     11  C   UNL     1       2.395   4.184  21.034  0.00  0.00    +0.000 A 
ATOM     12  O   UNL     1       2.334   3.444  22.007  0.00  0.00    +0.000 OA
ATOM     13  N   UNL     1       2.095   5.514  21.065  0.00  0.00    +0.000 N 
ATOM     14  C   UNL     1       3.192   2.351  19.322  0.00  0.00    +0.000 C 
ATOM     15  C   UNL     1       3.715   2.556  17.894  0.00  0.00    +0.000 C 
ATOM     16  C   UNL     1       3.235   3.935  17.423  0.00  0.00    +0.000 C 
ATOM     17  H   UNL     1       1.798   5.934  21.941  0.00  0.00    +0.000 HD
ENDROOT
BRANCH   3  18
ATOM     18  C   UNL     1       0.834  11.141  19.779  0.00  0.00    +0.000 C 
ATOM     19  O   UNL     1       1.733  11.977  19.747  0.00  0.00    +0.000 OA
ATOM     20  N   UNL     1      -0.482  11.442  19.393  0.00  0.00    +0.000 N 
ATOM     21  C   UNL     1      -1.643  10.606  19.706  0.00  0.00    +0.000 C 
ATOM     22  C   UNL     1      -2.228  10.053  18.409  0.00  0.00    +0.000 C 
ATOM     23  C   UNL     1      -2.650  11.201  17.484  0.00  0.00    +0.000 C 
ATOM     24  C   UNL     1      -1.480  12.180  17.274  0.00  0.00    +0.000 C 
ATOM     25  C   UNL     1      -0.842  12.642  18.602  0.00  0.00    +0.000 C 
ATOM     26  C   UNL     1       0.252  13.665  18.291  0.00  0.00    +0.000 C 
BRANCH  23  27
ATOM     27  C   UNL     1      -3.195  10.679  16.155  0.00  0.00    +0.000 C 
ATOM     28  F   UNL     1      -3.031   9.344  16.024  0.00  0.00    +0.000 F 
ATOM     29  F   UNL     1      -4.522  10.929  16.067  0.00  0.00    +0.000 F 
ATOM     30  F   UNL     1      -2.605  11.265  15.092  0.00  0.00    +0.000 F 
ENDBRANCH  23  27
ENDBRANCH   3  18
TORSDOF 2
ENDMDL
MODEL 2
REMARK VINA RESULT:      -8.5      4.140      8.284
REMARK  Name = 
REMARK  4 active torsions:
REMARK  status: ('A' for Active; 'I' for Inactive)
REMARK    1  A    between atoms: C_1  and  C_2
REMARK    2  A    between atoms: C_3  and  C_4
REMARK    3  A    between atoms: C_9  and  C_10
REMARK    4  A    between atoms: C_15  and  C_16
REMARK                            x       y       z     vdW  Elec       q    Type
REMARK                         _______ _______ _______ _____ _____    ______ ____
ROOT
ATOM      1  C   UNL     1       2.097   7.475  20.657  0.00  0.00    +0.000 C 
ATOM      2  C   UNL     1       2.120   8.075  19.293  0.00  0.00    +0.000 A 
ATOM      3  C   UNL     1       2.798   7.703  18.134  0.00  0.00    +0.000 A 
ATOM      4  C   UNL     1       2.276   8.580  17.160  0.00  0.00    +0.000 A 
ATOM      5  N   UNL     1       1.463   9.508  17.648  0.00  0.00    +0.000 NA
ATOM      6  N   UNL     1       1.353   9.184  18.967  0.00  0.00    +0.000 N 
ATOM      7  C   UNL     1       0.497   9.964  19.762  0.00  0.00    +0.000 A 
ATOM      8  N   UNL     1       0.305   9.770  21.029  0.00  0.00    +0.000 NA
ATOM      9  C   UNL     1      -0.584  10.627  21.599  0.00  0.00    +0.000 A 
ATOM     10  C   UNL     1      -1.253  11.593  20.972  0.00  0.00    +0.000 A 
ATOM     11  C   UNL     1      -1.039  11.800  19.542  0.00  0.00    +0.000 A 
ATOM     12  O   UNL     1      -1.634  12.652  18.896  0.00  0.00    +0.000 OA
ATOM     13  N   UNL     1      -0.117  10.945  19.013  0.00  0.00    +0.000 N 
ATOM     14  C   UNL     1      -2.168  12.343  21.856  0.00  0.00    +0.000 C 
ATOM     15  C   UNL     1      -1.769  11.829  23.246  0.00  0.00    +0.000 C 
ATOM     16  C   UNL     1      -0.934  10.558  23.042  0.00  0.00    +0.000 C 
ATOM     17  H   UNL     1       0.099  11.002  18.022  0.00  0.00    +0.000 HD
ENDROOT
BRANCH   3  18
ATOM     18  C   UNL     1       3.718   6.572  17.972  0.00  0.00    +0.000 C 
ATOM     19  O   UNL     1       4.881   6.796  17.646  0.00  0.00    +0.000 OA
ATOM     20  N   UNL     1       3.246   5.274  18.222  0.00  0.00    +0.000 N 
ATOM     21  C   UNL     1       1.829   4.912  18.294  0.00  0.00    +0.000 C 
ATOM     22  C   UNL     1       1.499   4.456  19.713  0.00  0.00    +0.000 C 
ATOM     23  C   UNL     1       2.362   3.249  20.098  0.00  0.00    +0.000 C 
ATOM     24  C   UNL     1       3.854   3.560  19.872  0.00  0.00    +0.000 C 
ATOM     25  C   UNL     1       4.141   4.117  18.462  0.00  0.00    +0.000 C 
ATOM     26  C   UNL     1       5.650   4.320  18.312  0.00  0.00    +0.000 C 
BRANCH  23  27
ATOM     27  C   UNL     1       2.089   2.798  21.532  0.00  0.00    +0.000 C 
ATOM     28  F   UNL     1       2.897   1.784  21.912  0.00  0.00    +0.000 F 
ATOM     29  F   UNL     1       2.302   3.822  22.390  0.00  0.00    +0.000 F 
ATOM     30  F   UNL     1       0.815   2.386  21.707  0.00  0.00    +0.000 F 
ENDBRANCH  23  27
ENDBRANCH   3  18
TORSDOF 2
ENDMDL
MODEL 3
REMARK VINA RESULT:      -8.5      4.073      8.661
REMARK  Name = 
REMARK  4 active torsions:
REMARK  status: ('A' for Active; 'I' for Inactive)
REMARK    1  A    between atoms: C_1  and  C_2
REMARK    2  A    between atoms: C_3  and  C_4
REMARK    3  A    between atoms: C_9  and  C_10
REMARK    4  A    between atoms: C_15  and  C_16
REMARK                            x       y       z     vdW  Elec       q    Type
REMARK                         _______ _______ _______ _____ _____    ______ ____
ROOT
ATOM      1  C   UNL     1       1.290   7.374  21.136  0.00  0.00    +0.000 C 
ATOM      2  C   UNL     1       1.785   7.715  19.772  0.00  0.00    +0.000 A 
ATOM      3  C   UNL     1       2.464   6.955  18.822  0.00  0.00    +0.000 A 
ATOM      4  C   UNL     1       2.502   7.805  17.697  0.00  0.00    +0.000 A 
ATOM      5  N   UNL     1       2.034   9.025  17.925  0.00  0.00    +0.000 NA
ATOM      6  N   UNL     1       1.574   8.963  19.206  0.00  0.00    +0.000 N 
ATOM      7  C   UNL     1       0.954  10.108  19.734  0.00  0.00    +0.000 A 
ATOM      8  N   UNL     1       0.479  10.188  20.938  0.00  0.00    +0.000 NA
ATOM      9  C   UNL     1      -0.101  11.382  21.234  0.00  0.00    +0.000 A 
ATOM     10  C   UNL     1      -0.225  12.419  20.407  0.00  0.00    +0.000 A 
ATOM     11  C   UNL     1       0.305  12.319  19.049  0.00  0.00    +0.000 A 
ATOM     12  O   UNL     1       0.207  13.221  18.229  0.00  0.00    +0.000 OA
ATOM     13  N   UNL     1       0.907  11.121  18.800  0.00  0.00    +0.000 N 
ATOM     14  C   UNL     1      -0.924  13.571  21.011  0.00  0.00    +0.000 C 
ATOM     15  C   UNL     1      -1.008  13.161  22.487  0.00  0.00    +0.000 C 
ATOM     16  C   UNL     1      -0.703  11.659  22.565  0.00  0.00    +0.000 C 
ATOM     17  H   UNL     1       1.303  10.948  17.880  0.00  0.00    +0.000 HD
ENDROOT
BRANCH   3  18
ATOM     18  C   UNL     1       2.894   5.558  18.948  0.00  0.00    +0.000 C 
ATOM     19  O   UNL     1       2.113   4.738  19.425  0.00  0.00    +0.000 OA
ATOM     20  N   UNL     1       4.172   5.199  18.494  0.00  0.00    +0.000 N 
ATOM     21  C   UNL     1       5.248   6.153  18.221  0.00  0.00    +0.000 C 
ATOM     22  C   UNL     1       5.574   6.131  16.730  0.00  0.00    +0.000 C 
ATOM     23  C   UNL     1       6.008   4.725  16.301  0.00  0.00    +0.000 C 
ATOM     24  C   UNL     1       4.956   3.683  16.727  0.00  0.00    +0.000 C 
ATOM     25  C   UNL     1       4.571   3.798  18.217  0.00  0.00    +0.000 C 
ATOM     26  C   UNL     1       3.585   2.679  18.556  0.00  0.00    +0.000 C 
BRANCH  23  27
ATOM     27  C   UNL     1       6.295   4.659  14.802  0.00  0.00    +0.000 C 
ATOM     28  F   UNL     1       6.336   3.389  14.344  0.00  0.00    +0.000 F 
ATOM     29  F   UNL     1       5.323   5.301  14.114  0.00  0.00    +0.000 F 
ATOM     30  F   UNL     1       7.469   5.243  14.478  0.00  0.00    +0.000 F 
ENDBRANCH  23  27
ENDBRANCH   3  18
TORSDOF 2
ENDMDL
MODEL 4
REMARK VINA RESULT:      -8.2      4.369      8.285
REMARK  Name = 
REMARK  4 active torsions:
REMARK  status: ('A' for Active; 'I' for Inactive)
REMARK    1  A    between atoms: C_1  and  C_2
REMARK    2  A    between atoms: C_3  and  C_4
REMARK    3  A    between atoms: C_9  and  C_10
REMARK    4  A    between atoms: C_15  and  C_16
REMARK                            x       y       z     vdW  Elec       q    Type
REMARK                         _______ _______ _______ _____ _____    ______ ____
ROOT
ATOM      1  C   UNL     1       1.785   9.753  17.706  0.00  0.00    +0.000 C 
ATOM      2  C   UNL     1       1.824   8.751  18.808  0.00  0.00    +0.000 A 
ATOM      3  C   UNL     1       2.488   7.531  18.922  0.00  0.00    +0.000 A 
ATOM      4  C   UNL     1       2.239   7.152  20.257  0.00  0.00    +0.000 A 
ATOM      5  N   UNL     1       1.397   7.952  20.899  0.00  0.00    +0.000 NA
ATOM      6  N   UNL     1       1.153   8.952  20.006  0.00  0.00    +0.000 N 
ATOM      7  C   UNL     1       0.323  10.008  20.417  0.00  0.00    +0.000 A 
ATOM      8  N   UNL     1       0.005  11.017  19.667  0.00  0.00    +0.000 NA
ATOM      9  C   UNL     1      -0.793  11.936  20.274  0.00  0.00    +0.000 A 
ATOM     10  C   UNL     1      -1.233  11.885  21.530  0.00  0.00    +0.000 A 
ATOM     11  C   UNL     1      -0.863  10.749  22.372  0.00  0.00    +0.000 A 
ATOM     12  O   UNL     1      -1.210  10.646  23.540  0.00  0.00    +0.000 OA
ATOM     13  N   UNL     1      -0.091   9.833  21.720  0.00  0.00    +0.000 N 
ATOM     14  C   UNL     1      -2.062  13.046  21.910  0.00  0.00    +0.000 C 
ATOM     15  C   UNL     1      -2.280  13.743  20.561  0.00  0.00    +0.000 C 
ATOM     16  C   UNL     1      -1.259  13.162  19.573  0.00  0.00    +0.000 C 
ATOM     17  H   UNL     1       0.226   9.007  22.221  0.00  0.00    +0.000 HD
ENDROOT
BRANCH   3  18
ATOM     18  C   UNL     1       3.349   6.895  17.918  0.00  0.00    +0.000 C 
ATOM     19  O   UNL     1       4.314   7.519  17.484  0.00  0.00    +0.000 OA
ATOM     20  N   UNL     1       3.058   5.585  17.509  0.00  0.00    +0.000 N 
ATOM     21  C   UNL     1       1.774   4.917  17.734  0.00  0.00    +0.000 C 
ATOM     22  C   UNL     1       1.981   3.736  18.678  0.00  0.00    +0.000 C 
ATOM     23  C   UNL     1       2.982   2.743  18.076  0.00  0.00    +0.000 C 
ATOM     24  C   UNL     1       4.285   3.465  17.683  0.00  0.00    +0.000 C 
ATOM     25  C   UNL     1       4.036   4.715  16.814  0.00  0.00    +0.000 C 
ATOM     26  C   UNL     1       5.388   5.313  16.415  0.00  0.00    +0.000 C 
BRANCH  23  27
ATOM     27  C   UNL     1       3.247   1.571  19.020  0.00  0.00    +0.000 C 
ATOM     28  F   UNL     1       3.997   1.931  20.084  0.00  0.00    +0.000 F 
ATOM     29  F   UNL     1       2.078   1.087  19.499  0.00  0.00    +0.000 F 
ATOM     30  F   UNL     1       3.882   0.550  18.406  0.00  0.00    +0.000 F 
ENDBRANCH  23  27
ENDBRANCH   3  18
TORSDOF 2
ENDMDL
MODEL 5
REMARK VINA RESULT:      -8.0      1.359      2.175
REMARK  Name = 
REMARK  4 active torsions:
REMARK  status: ('A' for Active; 'I' for Inactive)
REMARK    1  A    between atoms: C_1  and  C_2
REMARK    2  A    between atoms: C_3  and  C_4
REMARK    3  A    between atoms: C_9  and  C_10
REMARK    4  A    between atoms: C_15  and  C_16
REMARK                            x       y       z     vdW  Elec       q    Type
REMARK                         _______ _______ _______ _____ _____    ______ ____
ROOT
ATOM      1  C   UNL     1       1.085   8.311  21.048  0.00  0.00    +0.000 C 
ATOM      2  C   UNL     1       1.599   8.538  19.668  0.00  0.00    +0.000 A 
ATOM      3  C   UNL     1       1.569   9.664  18.847  0.00  0.00    +0.000 A 
ATOM      4  C   UNL     1       2.353   9.275  17.740  0.00  0.00    +0.000 A 
ATOM      5  N   UNL     1       2.731   8.003  17.764  0.00  0.00    +0.000 NA
ATOM      6  N   UNL     1       2.278   7.552  18.967  0.00  0.00    +0.000 N 
ATOM      7  C   UNL     1       2.576   6.226  19.322  0.00  0.00    +0.000 A 
ATOM      8  N   UNL     1       2.201   5.668  20.430  0.00  0.00    +0.000 NA
ATOM      9  C   UNL     1       2.618   4.383  20.580  0.00  0.00    +0.000 A 
ATOM     10  C   UNL     1       3.365   3.695  19.717  0.00  0.00    +0.000 A 
ATOM     11  C   UNL     1       3.791   4.333  18.474  0.00  0.00    +0.000 A 
ATOM     12  O   UNL     1       4.496   3.772  17.646  0.00  0.00    +0.000 OA
ATOM     13  N   UNL     1       3.327   5.609  18.344  0.00  0.00    +0.000 N 
ATOM     14  C   UNL     1       3.678   2.326  20.172  0.00  0.00    +0.000 C 
ATOM     15  C   UNL     1       2.768   2.176  21.398  0.00  0.00    +0.000 C 
ATOM     16  C   UNL     1       2.288   3.581  21.788  0.00  0.00    +0.000 C 
ATOM     17  H   UNL     1       3.573   6.143  17.515  0.00  0.00    +0.000 HD
ENDROOT
BRANCH   3  18
ATOM     18  C   UNL     1       0.978  10.969  19.156  0.00  0.00    +0.000 C 
ATOM     19  O   UNL     1       1.723  11.919  19.383  0.00  0.00    +0.000 OA
ATOM     20  N   UNL     1      -0.420  11.097  19.155  0.00  0.00    +0.000 N 
ATOM     21  C   UNL     1      -1.350   9.968  19.212  0.00  0.00    +0.000 C 
ATOM     22  C   UNL     1      -2.143   9.904  17.910  0.00  0.00    +0.000 C 
ATOM     23  C   UNL     1      -2.923  11.207  17.697  0.00  0.00    +0.000 C 
ATOM     24  C   UNL     1      -1.980  12.420  17.795  0.00  0.00    +0.000 C 
ATOM     25  C   UNL     1      -1.116  12.403  19.074  0.00  0.00    +0.000 C 
ATOM     26  C   UNL     1      -0.275  13.681  19.115  0.00  0.00    +0.000 C 
BRANCH  23  27
ATOM     27  C   UNL     1      -3.690  11.192  16.375  0.00  0.00    +0.000 C 
ATOM     28  F   UNL     1      -4.278   9.999  16.138  0.00  0.00    +0.000 F 
ATOM     29  F   UNL     1      -4.672  12.123  16.397  0.00  0.00    +0.000 F 
ATOM     30  F   UNL     1      -2.898  11.469  15.318  0.00  0.00    +0.000 F 
ENDBRANCH  23  27
ENDBRANCH   3  18
TORSDOF 2
ENDMDL
MODEL 6
REMARK VINA RESULT:      -7.9      4.046      8.332
REMARK  Name = 
REMARK  4 active torsions:
REMARK  status: ('A' for Active; 'I' for Inactive)
REMARK    1  A    between atoms: C_1  and  C_2
REMARK    2  A    between atoms: C_3  and  C_4
REMARK    3  A    between atoms: C_9  and  C_10
REMARK    4  A    between atoms: C_15  and  C_16
REMARK                            x       y       z     vdW  Elec       q    Type
REMARK                         _______ _______ _______ _____ _____    ______ ____
ROOT
ATOM      1  C   UNL     1       2.628   7.565  17.753  0.00  0.00    +0.000 C 
ATOM      2  C   UNL     1       2.036   7.190  19.069  0.00  0.00    +0.000 A 
ATOM      3  C   UNL     1       1.877   5.952  19.689  0.00  0.00    +0.000 A 
ATOM      4  C   UNL     1       1.397   6.294  20.971  0.00  0.00    +0.000 A 
ATOM      5  N   UNL     1       1.137   7.586  21.125  0.00  0.00    +0.000 NA
ATOM      6  N   UNL     1       1.549   8.143  19.952  0.00  0.00    +0.000 N 
ATOM      7  C   UNL     1       1.455   9.539  19.822  0.00  0.00    +0.000 A 
ATOM      8  N   UNL     1       1.805  10.196  18.761  0.00  0.00    +0.000 NA
ATOM      9  C   UNL     1       1.652  11.543  18.859  0.00  0.00    +0.000 A 
ATOM     10  C   UNL     1       1.206  12.205  19.926  0.00  0.00    +0.000 A 
ATOM     11  C   UNL     1       0.822  11.459  21.122  0.00  0.00    +0.000 A 
ATOM     12  O   UNL     1       0.426  12.000  22.145  0.00  0.00    +0.000 OA
ATOM     13  N   UNL     1       0.958  10.110  20.974  0.00  0.00    +0.000 N 
ATOM     14  C   UNL     1       1.175  13.669  19.738  0.00  0.00    +0.000 C 
ATOM     15  C   UNL     1       1.456  13.809  18.236  0.00  0.00    +0.000 C 
ATOM     16  C   UNL     1       2.002  12.462  17.744  0.00  0.00    +0.000 C 
ATOM     17  H   UNL     1       0.723   9.501  21.753  0.00  0.00    +0.000 HD
ENDROOT
BRANCH   3  18
ATOM     18  C   UNL     1       2.263   4.641  19.158  0.00  0.00    +0.000 C 
ATOM     19  O   UNL     1       1.383   3.824  18.898  0.00  0.00    +0.000 OA
ATOM     20  N   UNL     1       3.623   4.372  18.938  0.00  0.00    +0.000 N 
ATOM     21  C   UNL     1       4.720   5.154  19.512  0.00  0.00    +0.000 C 
ATOM     22  C   UNL     1       5.485   5.847  18.389  0.00  0.00    +0.000 C 
ATOM     23  C   UNL     1       6.046   4.810  17.408  0.00  0.00    +0.000 C 
ATOM     24  C   UNL     1       4.926   3.874  16.916  0.00  0.00    +0.000 C 
ATOM     25  C   UNL     1       4.103   3.268  18.073  0.00  0.00    +0.000 C 
ATOM     26  C   UNL     1       3.072   2.300  17.488  0.00  0.00    +0.000 C 
BRANCH  23  27
ATOM     27  C   UNL     1       6.777   5.476  16.244  0.00  0.00    +0.000 C 
ATOM     28  F   UNL     1       5.926   6.046  15.363  0.00  0.00    +0.000 F 
ATOM     29  F   UNL     1       7.590   6.455  16.704  0.00  0.00    +0.000 F 
ATOM     30  F   UNL     1       7.548   4.607  15.556  0.00  0.00    +0.000 F 
ENDBRANCH  23  27
ENDBRANCH   3  18
TORSDOF 2
ENDMDL
MODEL 7
REMARK VINA RESULT:      -7.5      2.614      3.113
REMARK  Name = 
REMARK  4 active torsions:
REMARK  status: ('A' for Active; 'I' for Inactive)
REMARK    1  A    between atoms: C_1  and  C_2
REMARK    2  A    between atoms: C_3  and  C_4
REMARK    3  A    between atoms: C_9  and  C_10
REMARK    4  A    between atoms: C_15  and  C_16
REMARK                            x       y       z     vdW  Elec       q    Type
REMARK                         _______ _______ _______ _____ _____    ______ ____
ROOT
ATOM      1  C   UNL     1       1.927   8.555  17.821  0.00  0.00    +0.000 C 
ATOM      2  C   UNL     1       1.571   8.667  19.264  0.00  0.00    +0.000 A 
ATOM      3  C   UNL     1       1.070   9.733  20.009  0.00  0.00    +0.000 A 
ATOM      4  C   UNL     1       0.805   9.150  21.266  0.00  0.00    +0.000 A 
ATOM      5  N   UNL     1       1.215   7.893  21.377  0.00  0.00    +0.000 NA
ATOM      6  N   UNL     1       1.674   7.589  20.130  0.00  0.00    +0.000 N 
ATOM      7  C   UNL     1       2.135   6.281  19.904  0.00  0.00    +0.000 A 
ATOM      8  N   UNL     1       2.603   5.862  18.770  0.00  0.00    +0.000 NA
ATOM      9  C   UNL     1       2.972   4.553  18.766  0.00  0.00    +0.000 A 
ATOM     10  C   UNL     1       2.873   3.708  19.791  0.00  0.00    +0.000 A 
ATOM     11  C   UNL     1       2.337   4.186  21.063  0.00  0.00    +0.000 A 
ATOM     12  O   UNL     1       2.196   3.462  22.039  0.00  0.00    +0.000 OA
ATOM     13  N   UNL     1       2.009   5.509  21.039  0.00  0.00    +0.000 N 
ATOM     14  C   UNL     1       3.333   2.341  19.472  0.00  0.00    +0.000 C 
ATOM     15  C   UNL     1       3.989   2.533  18.098  0.00  0.00    +0.000 C 
ATOM     16  C   UNL     1       3.529   3.893  17.556  0.00  0.00    +0.000 C 
ATOM     17  H   UNL     1       1.620   5.938  21.874  0.00  0.00    +0.000 HD
ENDROOT
BRANCH   3  18
ATOM     18  C   UNL     1       0.768  11.085  19.528  0.00  0.00    +0.000 C 
ATOM     19  O   UNL     1       0.983  11.357  18.349  0.00  0.00    +0.000 OA
ATOM     20  N   UNL     1       0.217  12.015  20.423  0.00  0.00    +0.000 N 
ATOM     21  C   UNL     1       0.235  11.867  21.879  0.00  0.00    +0.000 C 
ATOM     22  C   UNL     1      -1.197  11.715  22.387  0.00  0.00    +0.000 C 
ATOM     23  C   UNL     1      -2.031  12.943  22.001  0.00  0.00    +0.000 C 
ATOM     24  C   UNL     1      -1.929  13.208  20.487  0.00  0.00    +0.000 C 
ATOM     25  C   UNL     1      -0.471  13.254  19.986  0.00  0.00    +0.000 C 
ATOM     26  C   UNL     1      -0.475  13.597  18.494  0.00  0.00    +0.000 C 
BRANCH  23  27
ATOM     27  C   UNL     1      -3.483  12.799  22.454  0.00  0.00    +0.000 C 
ATOM     28  F   UNL     1      -3.608  11.978  23.519  0.00  0.00    +0.000 F 
ATOM     29  F   UNL     1      -3.978  14.005  22.819  0.00  0.00    +0.000 F 
ATOM     30  F   UNL     1      -4.281  12.317  21.477  0.00  0.00    +0.000 F 
ENDBRANCH  23  27
ENDBRANCH   3  18
TORSDOF 2
ENDMDL
MODEL 8
REMARK VINA RESULT:      -7.4      4.592      8.897
REMARK  Name = 
REMARK  4 active torsions:
REMARK  status: ('A' for Active; 'I' for Inactive)
REMARK    1  A    between atoms: C_1  and  C_2
REMARK    2  A    between atoms: C_3  and  C_4
REMARK    3  A    between atoms: C_9  and  C_10
REMARK    4  A    between atoms: C_15  and  C_16
REMARK                            x       y       z     vdW  Elec       q    Type
REMARK                         _______ _______ _______ _____ _____    ______ ____
ROOT
ATOM      1  C   UNL     1       0.642   7.326  20.629  0.00  0.00    +0.000 C 
ATOM      2  C   UNL     1       1.411   7.790  19.439  0.00  0.00    +0.000 A 
ATOM      3  C   UNL     1       2.090   7.085  18.448  0.00  0.00    +0.000 A 
ATOM      4  C   UNL     1       2.468   8.093  17.537  0.00  0.00    +0.000 A 
ATOM      5  N   UNL     1       2.197   9.325  17.950  0.00  0.00    +0.000 NA
ATOM      6  N   UNL     1       1.526   9.136  19.120  0.00  0.00    +0.000 N 
ATOM      7  C   UNL     1       1.045  10.273  19.789  0.00  0.00    +0.000 A 
ATOM      8  N   UNL     1       0.398  10.237  20.912  0.00  0.00    +0.000 NA
ATOM      9  C   UNL     1       0.003  11.455  21.371  0.00  0.00    +0.000 A 
ATOM     10  C   UNL     1       0.209  12.624  20.767  0.00  0.00    +0.000 A 
ATOM     11  C   UNL     1       0.930  12.656  19.497  0.00  0.00    +0.000 A 
ATOM     12  O   UNL     1       1.136  13.689  18.875  0.00  0.00    +0.000 OA
ATOM     13  N   UNL     1       1.339  11.422  19.085  0.00  0.00    +0.000 N 
ATOM     14  C   UNL     1      -0.362  13.772  21.500  0.00  0.00    +0.000 C 
ATOM     15  C   UNL     1      -0.764  13.135  22.837  0.00  0.00    +0.000 C 
ATOM     16  C   UNL     1      -0.752  11.613  22.641  0.00  0.00    +0.000 C 
ATOM     17  H   UNL     1       1.844  11.335  18.208  0.00  0.00    +0.000 HD
ENDROOT
BRANCH   3  18
ATOM     18  C   UNL     1       2.233   5.629  18.338  0.00  0.00    +0.000 C 
ATOM     19  O   UNL     1       1.288   4.972  17.907  0.00  0.00    +0.000 OA
ATOM     20  N   UNL     1       3.453   5.038  18.702  0.00  0.00    +0.000 N 
ATOM     21  C   UNL     1       4.481   5.700  19.507  0.00  0.00    +0.000 C 
ATOM     22  C   UNL     1       5.733   5.899  18.659  0.00  0.00    +0.000 C 
ATOM     23  C   UNL     1       6.258   4.547  18.159  0.00  0.00    +0.000 C 
ATOM     24  C   UNL     1       5.138   3.766  17.446  0.00  0.00    +0.000 C 
ATOM     25  C   UNL     1       3.848   3.671  18.289  0.00  0.00    +0.000 C 
ATOM     26  C   UNL     1       2.829   2.816  17.531  0.00  0.00    +0.000 C 
BRANCH  23  27
ATOM     27  C   UNL     1       7.485   4.717  17.265  0.00  0.00    +0.000 C 
ATOM     28  F   UNL     1       7.824   6.015  17.102  0.00  0.00    +0.000 F 
ATOM     29  F   UNL     1       8.552   4.093  17.817  0.00  0.00    +0.000 F 
ATOM     30  F   UNL     1       7.303   4.190  16.036  0.00  0.00    +0.000 F 
ENDBRANCH  23  27
ENDBRANCH   3  18
TORSDOF 2
ENDMDL
MODEL 9
REMARK VINA RESULT:      -7.1      3.183      4.127
REMARK  Name = 
REMARK  4 active torsions:
REMARK  status: ('A' for Active; 'I' for Inactive)
REMARK    1  A    between atoms: C_1  and  C_2
REMARK    2  A    between atoms: C_3  and  C_4
REMARK    3  A    between atoms: C_9  and  C_10
REMARK    4  A    between atoms: C_15  and  C_16
REMARK                            x       y       z     vdW  Elec       q    Type
REMARK                         _______ _______ _______ _____ _____    ______ ____
ROOT
ATOM      1  C   UNL     1       0.950   8.020  21.284  0.00  0.00    +0.000 C 
ATOM      2  C   UNL     1       1.220   8.988  20.183  0.00  0.00    +0.000 A 
ATOM      3  C   UNL     1       0.844  10.319  20.013  0.00  0.00    +0.000 A 
ATOM      4  C   UNL     1       1.542  10.704  18.849  0.00  0.00    +0.000 A 
ATOM      5  N   UNL     1       2.182   9.709  18.248  0.00  0.00    +0.000 NA
ATOM      6  N   UNL     1       1.997   8.650  19.084  0.00  0.00    +0.000 N 
ATOM      7  C   UNL     1       2.615   7.434  18.746  0.00  0.00    +0.000 A 
ATOM      8  N   UNL     1       2.516   6.349  19.448  0.00  0.00    +0.000 NA
ATOM      9  C   UNL     1       3.214   5.294  18.950  0.00  0.00    +0.000 A 
ATOM     10  C   UNL     1       3.971   5.303  17.854  0.00  0.00    +0.000 A 
ATOM     11  C   UNL     1       4.086   6.532  17.073  0.00  0.00    +0.000 A 
ATOM     12  O   UNL     1       4.780   6.620  16.070  0.00  0.00    +0.000 OA
ATOM     13  N   UNL     1       3.347   7.558  17.584  0.00  0.00    +0.000 N 
ATOM     14  C   UNL     1       4.626   4.007  17.583  0.00  0.00    +0.000 C 
ATOM     15  C   UNL     1       3.937   3.078  18.591  0.00  0.00    +0.000 C 
ATOM     16  C   UNL     1       3.223   3.966  19.619  0.00  0.00    +0.000 C 
ATOM     17  H   UNL     1       3.363   8.460  17.118  0.00  0.00    +0.000 HD
ENDROOT
BRANCH   3  18
ATOM     18  C   UNL     1       0.032  11.132  20.924  0.00  0.00    +0.000 C 
ATOM     19  O   UNL     1       0.037  10.863  22.122  0.00  0.00    +0.000 OA
ATOM     20  N   UNL     1      -0.701  12.208  20.400  0.00  0.00    +0.000 N 
ATOM     21  C   UNL     1      -1.003  12.385  18.978  0.00  0.00    +0.000 C 
ATOM     22  C   UNL     1      -0.300  13.639  18.466  0.00  0.00    +0.000 C 
ATOM     23  C   UNL     1      -0.767  14.870  19.252  0.00  0.00    +0.000 C 
ATOM     24  C   UNL     1      -0.605  14.635  20.766  0.00  0.00    +0.000 C 
ATOM     25  C   UNL     1      -1.238  13.309  21.236  0.00  0.00    +0.000 C 
ATOM     26  C   UNL     1      -1.091  13.207  22.756  0.00  0.00    +0.000 C 
BRANCH  23  27
ATOM     27  C   UNL     1      -0.044  16.135  18.795  0.00  0.00    +0.000 C 
ATOM     28  F   UNL     1       0.088  17.038  19.791  0.00  0.00    +0.000 F 
ATOM     29  F   UNL     1       1.201  15.830  18.365  0.00  0.00    +0.000 F 
ATOM     30  F   UNL     1      -0.681  16.750  17.775  0.00  0.00    +0.000 F 
ENDBRANCH  23  27
ENDBRANCH   3  18
TORSDOF 2
ENDMDL
