MODEL 1
REMARK VINA RESULT:      -8.7      0.000      0.000
REMARK  Name = 
REMARK  14 active torsions:
REMARK  status: ('A' for Active; 'I' for Inactive)
REMARK    1  A    between atoms: C_1  and  C_2
REMARK    2  A    between atoms: C_2  and  C_3
REMARK    3  A    between atoms: C_2  and  C_4
REMARK    4  A    between atoms: C_2  and  O_5
REMARK    5  A    between atoms: O_5  and  C_6
REMARK    6  A    between atoms: C_6  and  C_8
REMARK    7  A    between atoms: C_8  and  C_9
REMARK    8  A    between atoms: C_8  and  N_17
REMARK    9  A    between atoms: C_9  and  C_10
REMARK   10  A    between atoms: C_10  and  C_11
REMARK   11  A    between atoms: C_18  and  C_20
REMARK   12  A    between atoms: C_23  and  N_24
REMARK   13  A    between atoms: C_25  and  C_26
REMARK   14  A    between atoms: C_29  and  O_30
REMARK                            x       y       z     vdW  Elec       q    Type
REMARK                         _______ _______ _______ _____ _____    ______ ____
ROOT
ATOM      1  N   UNL     1       3.739   5.611  18.239  0.00  0.00    +0.000 N 
ATOM      2  C   UNL     1       3.004   6.193  19.237  0.00  0.00    +0.000 C 
ATOM      3  O   UNL     1       2.875   5.676  20.346  0.00  0.00    +0.000 OA
ATOM      4  H   UNL     1       3.961   6.129  17.386  0.00  0.00    +0.000 HD
ENDROOT
BRANCH   2   5
ATOM      5  C   UNL     1       2.354   7.500  18.974  0.00  0.00    +0.000 A 
ATOM      6  C   UNL     1       2.691   8.191  17.814  0.00  0.00    +0.000 A 
ATOM      7  C   UNL     1       2.196   9.474  17.595  0.00  0.00    +0.000 A 
ATOM      8  C   UNL     1       1.333  10.087  18.516  0.00  0.00    +0.000 A 
ATOM      9  C   UNL     1       1.020   9.418  19.734  0.00  0.00    +0.000 A 
ATOM     10  C   UNL     1       1.522   8.106  19.920  0.00  0.00    +0.000 A 
BRANCH   9  11
ATOM     11  C   UNL     1       0.208  10.030  20.822  0.00  0.00    +0.000 A 
ATOM     12  C   UNL     1       0.170   9.474  22.116  0.00  0.00    +0.000 A 
ATOM     13  C   UNL     1      -0.628  10.034  23.123  0.00  0.00    +0.000 A 
ATOM     14  C   UNL     1      -1.401  11.144  22.842  0.00  0.00    +0.000 A 
ATOM     15  C   UNL     1      -1.383  11.726  21.589  0.00  0.00    +0.000 A 
ATOM     16  C   UNL     1      -0.553  11.194  20.611  0.00  0.00    +0.000 A 
BRANCH  14  17
ATOM     17  O   UNL     1      -2.211  11.713  23.780  0.00  0.00    +0.000 OA
ATOM     18  H   UNL     1      -3.088  11.293  23.710  0.00  0.00    +0.000 HD
ENDBRANCH  14  17
ENDBRANCH   9  11
BRANCH   8  19
ATOM     19  N   UNL     1       1.011  11.438  18.274  0.00  0.00    +0.000 N 
ATOM     20  H   UNL     1       0.303  11.596  17.568  0.00  0.00    +0.000 HD
ATOM     21  H   UNL     1       0.815  11.969  19.117  0.00  0.00    +0.000 HD
ENDBRANCH   8  19
ENDBRANCH   2   5
BRANCH   1  22
ATOM     22  C   UNL     1       4.428   4.319  18.450  0.00  0.00    +0.000 C 
BRANCH  22  23
ATOM     23  C   UNL     1       5.911   4.624  18.284  0.00  0.00    +0.000 C 
ATOM     24  O   UNL     1       6.595   5.046  19.225  0.00  0.00    +0.000 OA
BRANCH  23  25
ATOM     25  O   UNL     1       6.367   4.348  17.031  0.00  0.00    +0.000 OA
BRANCH  25  27
ATOM     26  C   UNL     1       5.344   5.974  15.502  0.00  0.00    +0.000 C 
ATOM     27  C   UNL     1       6.646   5.457  16.127  0.00  0.00    +0.000 C 
ATOM     28  C   UNL     1       7.634   5.058  15.020  0.00  0.00    +0.000 C 
ATOM     29  C   UNL     1       7.252   6.584  16.985  0.00  0.00    +0.000 C 
ENDBRANCH  25  27
ENDBRANCH  23  25
ENDBRANCH  22  23
BRANCH  22  30
ATOM     30  C   UNL     1       3.911   3.297  17.439  0.00  0.00    +0.000 C 
BRANCH  30  31
ATOM     31  C   UNL     1       3.357   1.996  18.037  0.00  0.00    +0.000 C 
BRANCH  31  32
ATOM     32  C   UNL     1       2.577   2.284  19.302  0.00  0.00    +0.000 A 
ATOM     33  C   UNL     1       1.245   2.720  19.248  0.00  0.00    +0.000 A 
ATOM     34  C   UNL     1       0.561   3.050  20.421  0.00  0.00    +0.000 A 
ATOM     35  C   UNL     1       1.199   2.947  21.657  0.00  0.00    +0.000 A 
ATOM     36  C   UNL     1       2.517   2.501  21.723  0.00  0.00    +0.000 A 
ATOM     37  C   UNL     1       3.203   2.174  20.552  0.00  0.00    +0.000 A 
ENDBRANCH  31  32
ENDBRANCH  30  31
ENDBRANCH  22  30
ENDBRANCH   1  22
TORSDOF 11
ENDMDL
MODEL 2
REMARK VINA RESULT:      -8.4      3.535      9.028
REMARK  Name = 
REMARK  14 active torsions:
REMARK  status: ('A' for Active; 'I' for Inactive)
REMARK    1  A    between atoms: C_1  and  C_2
REMARK    2  A    between atoms: C_2  and  C_3
REMARK    3  A    between atoms: C_2  and  C_4
REMARK    4  A    between atoms: C_2  and  O_5
REMARK    5  A    between atoms: O_5  and  C_6
REMARK    6  A    between atoms: C_6  and  C_8
REMARK    7  A    between atoms: C_8  and  C_9
REMARK    8  A    between atoms: C_8  and  N_17
REMARK    9  A    between atoms: C_9  and  C_10
REMARK   10  A    between atoms: C_10  and  C_11
REMARK   11  A    between atoms: C_18  and  C_20
REMARK   12  A    between atoms: C_23  and  N_24
REMARK   13  A    between atoms: C_25  and  C_26
REMARK   14  A    between atoms: C_29  and  O_30
REMARK                            x       y       z     vdW  Elec       q    Type
REMARK                         _______ _______ _______ _____ _____    ______ ____
ROOT
ATOM      1  N   UNL     1       0.877  11.085  19.345  0.00  0.00    +0.000 N 
ATOM      2  C   UNL     1       1.558  10.206  18.546  0.00  0.00    +0.000 C 
ATOM      3  O   UNL     1       2.029  10.535  17.458  0.00  0.00    +0.000 OA
ATOM      4  H   UNL     1       0.634  10.835  20.305  0.00  0.00    +0.000 HD
ENDROOT
BRANCH   2   5
ATOM      5  C   UNL     1       1.747   8.813  19.018  0.00  0.00    +0.000 A 
ATOM      6  C   UNL     1       1.262   8.464  20.276  0.00  0.00    +0.000 A 
ATOM      7  C   UNL     1       1.528   7.203  20.802  0.00  0.00    +0.000 A 
ATOM      8  C   UNL     1       2.262   6.252  20.076  0.00  0.00    +0.000 A 
ATOM      9  C   UNL     1       2.812   6.609  18.812  0.00  0.00    +0.000 A 
ATOM     10  C   UNL     1       2.508   7.892  18.293  0.00  0.00    +0.000 A 
BRANCH   9  11
ATOM     11  C   UNL     1       3.697   5.712  18.018  0.00  0.00    +0.000 A 
ATOM     12  C   UNL     1       5.014   6.084  17.682  0.00  0.00    +0.000 A 
ATOM     13  C   UNL     1       5.826   5.251  16.902  0.00  0.00    +0.000 A 
ATOM     14  C   UNL     1       5.327   4.048  16.442  0.00  0.00    +0.000 A 
ATOM     15  C   UNL     1       4.045   3.641  16.759  0.00  0.00    +0.000 A 
ATOM     16  C   UNL     1       3.263   4.450  17.573  0.00  0.00    +0.000 A 
BRANCH  14  17
ATOM     17  O   UNL     1       6.069   3.211  15.662  0.00  0.00    +0.000 OA
ATOM     18  H   UNL     1       6.538   3.757  15.003  0.00  0.00    +0.000 HD
ENDBRANCH  14  17
ENDBRANCH   9  11
BRANCH   8  19
ATOM     19  N   UNL     1       2.603   5.066  20.758  0.00  0.00    +0.000 N 
ATOM     20  H   UNL     1       3.298   5.170  21.488  0.00  0.00    +0.000 HD
ATOM     21  H   UNL     1       1.801   4.538  21.087  0.00  0.00    +0.000 HD
ENDBRANCH   8  19
ENDBRANCH   2   5
BRANCH   1  22
ATOM     22  C   UNL     1       0.677  12.493  18.936  0.00  0.00    +0.000 C 
BRANCH  22  23
ATOM     23  C   UNL     1       1.420  13.322  19.975  0.00  0.00    +0.000 C 
ATOM     24  O   UNL     1       1.921  12.801  20.981  0.00  0.00    +0.000 OA
BRANCH  23  25
ATOM     25  O   UNL     1       1.486  14.642  19.646  0.00  0.00    +0.000 OA
BRANCH  25  27
ATOM     26  C   UNL     1       3.483  14.109  18.321  0.00  0.00    +0.000 C 
ATOM     27  C   UNL     1       2.745  15.175  19.142  0.00  0.00    +0.000 C 
ATOM     28  C   UNL     1       3.650  15.677  20.277  0.00  0.00    +0.000 C 
ATOM     29  C   UNL     1       2.386  16.345  18.205  0.00  0.00    +0.000 C 
ENDBRANCH  25  27
ENDBRANCH  23  25
ENDBRANCH  22  23
BRANCH  22  30
ATOM     30  C   UNL     1      -0.820  12.800  18.886  0.00  0.00    +0.000 C 
BRANCH  30  31
ATOM     31  C   UNL     1      -1.749  11.612  19.174  0.00  0.00    +0.000 C 
BRANCH  31  32
ATOM     32  C   UNL     1      -2.473  11.188  17.913  0.00  0.00    +0.000 A 
ATOM     33  C   UNL     1      -3.757  11.671  17.619  0.00  0.00    +0.000 A 
ATOM     34  C   UNL     1      -4.442  11.216  16.490  0.00  0.00    +0.000 A 
ATOM     35  C   UNL     1      -3.852  10.277  15.643  0.00  0.00    +0.000 A 
ATOM     36  C   UNL     1      -2.571   9.802  15.918  0.00  0.00    +0.000 A 
ATOM     37  C   UNL     1      -1.887  10.254  17.048  0.00  0.00    +0.000 A 
ENDBRANCH  31  32
ENDBRANCH  30  31
ENDBRANCH  22  30
ENDBRANCH   1  22
TORSDOF 11
ENDMDL
MODEL 3
REMARK VINA RESULT:      -8.4      3.490      9.229
REMARK  Name = 
REMARK  14 active torsions:
REMARK  status: ('A' for Active; 'I' for Inactive)
REMARK    1  A    between atoms: C_1  and  C_2
REMARK    2  A    between atoms: C_2  and  C_3
REMARK    3  A    between atoms: C_2  and  C_4
REMARK    4  A    between atoms: C_2  and  O_5
REMARK    5  A    between atoms: O_5  and  C_6
REMARK    6  A    between atoms: C_6  and  C_8
REMARK    7  A    between atoms: C_8  and  C_9
REMARK    8  A    between atoms: C_8  and  N_17
REMARK    9  A    between atoms: C_9  and  C_10
REMARK   10  A    between atoms: C_10  and  C_11
REMARK   11  A    between atoms: C_18  and  C_20
REMARK   12  A    between atoms: C_23  and  N_24
REMARK   13  A    between atoms: C_25  and  C_26
REMARK   14  A    between atoms: C_29  and  O_30
REMARK                            x       y       z     vdW  Elec       q    Type
REMARK                         _______ _______ _______ _____ _____    ______ ____
ROOT
ATOM      1  N   UNL     1       0.843  11.154  19.439  0.00  0.00    +0.000 N 
ATOM      2  C   UNL     1       1.493  10.271  18.619  0.00  0.00    +0.000 C 
ATOM      3  O   UNL     1       1.935  10.598  17.519  0.00  0.00    +0.000 OA
ATOM      4  H   UNL     1       0.626  10.904  20.406  0.00  0.00    +0.000 HD
ENDROOT
BRANCH   2   5
ATOM      5  C   UNL     1       1.683   8.875  19.084  0.00  0.00    +0.000 A 
ATOM      6  C   UNL     1       1.242   8.530  20.358  0.00  0.00    +0.000 A 
ATOM      7  C   UNL     1       1.514   7.266  20.873  0.00  0.00    +0.000 A 
ATOM      8  C   UNL     1       2.209   6.307  20.120  0.00  0.00    +0.000 A 
ATOM      9  C   UNL     1       2.715   6.659  18.835  0.00  0.00    +0.000 A 
ATOM     10  C   UNL     1       2.406   7.946  18.329  0.00  0.00    +0.000 A 
BRANCH   9  11
ATOM     11  C   UNL     1       3.559   5.753  18.009  0.00  0.00    +0.000 A 
ATOM     12  C   UNL     1       3.100   4.485  17.601  0.00  0.00    +0.000 A 
ATOM     13  C   UNL     1       3.916   3.623  16.858  0.00  0.00    +0.000 A 
ATOM     14  C   UNL     1       5.199   4.015  16.525  0.00  0.00    +0.000 A 
ATOM     15  C   UNL     1       5.683   5.255  16.896  0.00  0.00    +0.000 A 
ATOM     16  C   UNL     1       4.851   6.123  17.591  0.00  0.00    +0.000 A 
BRANCH  14  17
ATOM     17  O   UNL     1       6.040   3.205  15.822  0.00  0.00    +0.000 OA
ATOM     18  H   UNL     1       6.816   3.737  15.561  0.00  0.00    +0.000 HD
ENDBRANCH  14  17
ENDBRANCH   9  11
BRANCH   8  19
ATOM     19  N   UNL     1       2.562   5.117  20.788  0.00  0.00    +0.000 N 
ATOM     20  H   UNL     1       3.542   4.866  20.739  0.00  0.00    +0.000 HD
ATOM     21  H   UNL     1       2.216   5.065  21.741  0.00  0.00    +0.000 HD
ENDBRANCH   8  19
ENDBRANCH   2   5
BRANCH   1  22
ATOM     22  C   UNL     1       0.643  12.565  19.039  0.00  0.00    +0.000 C 
BRANCH  22  23
ATOM     23  C   UNL     1       1.181  13.390  20.199  0.00  0.00    +0.000 C 
ATOM     24  O   UNL     1       1.939  12.900  21.047  0.00  0.00    +0.000 OA
BRANCH  23  25
ATOM     25  O   UNL     1       0.764  14.686  20.161  0.00  0.00    +0.000 OA
BRANCH  25  27
ATOM     26  C   UNL     1       2.649  15.090  18.641  0.00  0.00    +0.000 C 
ATOM     27  C   UNL     1       1.682  15.703  19.662  0.00  0.00    +0.000 C 
ATOM     28  C   UNL     1       2.474  16.365  20.799  0.00  0.00    +0.000 C 
ATOM     29  C   UNL     1       0.822  16.759  18.941  0.00  0.00    +0.000 C 
ENDBRANCH  25  27
ENDBRANCH  23  25
ENDBRANCH  22  23
BRANCH  22  30
ATOM     30  C   UNL     1      -0.841  12.810  18.768  0.00  0.00    +0.000 C 
BRANCH  30  31
ATOM     31  C   UNL     1      -1.783  11.659  19.148  0.00  0.00    +0.000 C 
BRANCH  31  32
ATOM     32  C   UNL     1      -2.501  11.135  17.923  0.00  0.00    +0.000 A 
ATOM     33  C   UNL     1      -1.901  10.184  17.084  0.00  0.00    +0.000 A 
ATOM     34  C   UNL     1      -2.546   9.763  15.918  0.00  0.00    +0.000 A 
ATOM     35  C   UNL     1      -3.794  10.285  15.580  0.00  0.00    +0.000 A 
ATOM     36  C   UNL     1      -4.406  11.218  16.414  0.00  0.00    +0.000 A 
ATOM     37  C   UNL     1      -3.761  11.642  17.577  0.00  0.00    +0.000 A 
ENDBRANCH  31  32
ENDBRANCH  30  31
ENDBRANCH  22  30
ENDBRANCH   1  22
TORSDOF 11
ENDMDL
MODEL 4
REMARK VINA RESULT:      -8.3      1.924      4.317
REMARK  Name = 
REMARK  14 active torsions:
REMARK  status: ('A' for Active; 'I' for Inactive)
REMARK    1  A    between atoms: C_1  and  C_2
REMARK    2  A    between atoms: C_2  and  C_3
REMARK    3  A    between atoms: C_2  and  C_4
REMARK    4  A    between atoms: C_2  and  O_5
REMARK    5  A    between atoms: O_5  and  C_6
REMARK    6  A    between atoms: C_6  and  C_8
REMARK    7  A    between atoms: C_8  and  C_9
REMARK    8  A    between atoms: C_8  and  N_17
REMARK    9  A    between atoms: C_9  and  C_10
REMARK   10  A    between atoms: C_10  and  C_11
REMARK   11  A    between atoms: C_18  and  C_20
REMARK   12  A    between atoms: C_23  and  N_24
REMARK   13  A    between atoms: C_25  and  C_26
REMARK   14  A    between atoms: C_29  and  O_30
REMARK                            x       y       z     vdW  Elec       q    Type
REMARK                         _______ _______ _______ _____ _____    ______ ____
ROOT
ATOM      1  N   UNL     1       3.624   5.864  17.756  0.00  0.00    +0.000 N 
ATOM      2  C   UNL     1       2.671   6.304  18.636  0.00  0.00    +0.000 C 
ATOM      3  O   UNL     1       2.186   5.574  19.499  0.00  0.00    +0.000 OA
ATOM      4  H   UNL     1       4.123   6.524  17.156  0.00  0.00    +0.000 HD
ENDROOT
BRANCH   2   5
ATOM      5  C   UNL     1       2.221   7.715  18.552  0.00  0.00    +0.000 A 
ATOM      6  C   UNL     1       2.788   8.539  17.584  0.00  0.00    +0.000 A 
ATOM      7  C   UNL     1       2.481   9.896  17.555  0.00  0.00    +0.000 A 
ATOM      8  C   UNL     1       1.582  10.459  18.474  0.00  0.00    +0.000 A 
ATOM      9  C   UNL     1       1.034   9.642  19.505  0.00  0.00    +0.000 A 
ATOM     10  C   UNL     1       1.349   8.261  19.497  0.00  0.00    +0.000 A 
BRANCH   9  11
ATOM     11  C   UNL     1       0.164  10.168  20.593  0.00  0.00    +0.000 A 
ATOM     12  C   UNL     1      -0.766  11.201  20.360  0.00  0.00    +0.000 A 
ATOM     13  C   UNL     1      -1.552  11.717  21.398  0.00  0.00    +0.000 A 
ATOM     14  C   UNL     1      -1.410  11.214  22.677  0.00  0.00    +0.000 A 
ATOM     15  C   UNL     1      -0.518  10.193  22.945  0.00  0.00    +0.000 A 
ATOM     16  C   UNL     1       0.223   9.654  21.901  0.00  0.00    +0.000 A 
BRANCH  14  17
ATOM     17  O   UNL     1      -2.135  11.696  23.726  0.00  0.00    +0.000 OA
ATOM     18  H   UNL     1      -1.693  12.504  24.047  0.00  0.00    +0.000 HD
ENDBRANCH  14  17
ENDBRANCH   9  11
BRANCH   8  19
ATOM     19  N   UNL     1       1.458  11.863  18.454  0.00  0.00    +0.000 N 
ATOM     20  H   UNL     1       1.622  12.301  17.556  0.00  0.00    +0.000 HD
ATOM     21  H   UNL     1       0.601  12.203  18.879  0.00  0.00    +0.000 HD
ENDBRANCH   8  19
ENDBRANCH   2   5
BRANCH   1  22
ATOM     22  C   UNL     1       4.128   4.473  17.807  0.00  0.00    +0.000 C 
BRANCH  22  23
ATOM     23  C   UNL     1       5.236   4.486  18.851  0.00  0.00    +0.000 C 
ATOM     24  O   UNL     1       5.535   3.469  19.490  0.00  0.00    +0.000 OA
BRANCH  23  25
ATOM     25  O   UNL     1       5.846   5.699  18.956  0.00  0.00    +0.000 OA
BRANCH  25  27
ATOM     26  C   UNL     1       8.147   5.843  19.798  0.00  0.00    +0.000 C 
ATOM     27  C   UNL     1       7.243   5.817  18.559  0.00  0.00    +0.000 C 
ATOM     28  C   UNL     1       7.491   7.070  17.706  0.00  0.00    +0.000 C 
ATOM     29  C   UNL     1       7.578   4.555  17.741  0.00  0.00    +0.000 C 
ENDBRANCH  25  27
ENDBRANCH  23  25
ENDBRANCH  22  23
BRANCH  22  30
ATOM     30  C   UNL     1       4.619   4.060  16.420  0.00  0.00    +0.000 C 
BRANCH  30  31
ATOM     31  C   UNL     1       5.086   5.209  15.514  0.00  0.00    +0.000 C 
BRANCH  31  32
ATOM     32  C   UNL     1       5.790   4.665  14.289  0.00  0.00    +0.000 A 
ATOM     33  C   UNL     1       7.069   5.115  13.930  0.00  0.00    +0.000 A 
ATOM     34  C   UNL     1       7.677   4.658  12.758  0.00  0.00    +0.000 A 
ATOM     35  C   UNL     1       7.015   3.747  11.935  0.00  0.00    +0.000 A 
ATOM     36  C   UNL     1       5.751   3.282  12.290  0.00  0.00    +0.000 A 
ATOM     37  C   UNL     1       5.141   3.741  13.459  0.00  0.00    +0.000 A 
ENDBRANCH  31  32
ENDBRANCH  30  31
ENDBRANCH  22  30
ENDBRANCH   1  22
TORSDOF 11
ENDMDL
MODEL 5
REMARK VINA RESULT:      -8.2      2.273      5.250
REMARK  Name = 
REMARK  14 active torsions:
REMARK  status: ('A' for Active; 'I' for Inactive)
REMARK    1  A    between atoms: C_1  and  C_2
REMARK    2  A    between atoms: C_2  and  C_3
REMARK    3  A    between atoms: C_2  and  C_4
REMARK    4  A    between atoms: C_2  and  O_5
REMARK    5  A    between atoms: O_5  and  C_6
REMARK    6  A    between atoms: C_6  and  C_8
REMARK    7  A    between atoms: C_8  and  C_9
REMARK    8  A    between atoms: C_8  and  N_17
REMARK    9  A    between atoms: C_9  and  C_10
REMARK   10  A    between atoms: C_10  and  C_11
REMARK   11  A    between atoms: C_18  and  C_20
REMARK   12  A    between atoms: C_23  and  N_24
REMARK   13  A    between atoms: C_25  and  C_26
REMARK   14  A    between atoms: C_29  and  O_30
REMARK                            x       y       z     vdW  Elec       q    Type
REMARK                         _______ _______ _______ _____ _____    ______ ____
ROOT
ATOM      1  N   UNL     1       4.063   6.442  18.070  0.00  0.00    +0.000 N 
ATOM      2  C   UNL     1       2.703   6.497  18.222  0.00  0.00    +0.000 C 
ATOM      3  O   UNL     1       1.940   5.780  17.577  0.00  0.00    +0.000 OA
ATOM      4  H   UNL     1       4.680   6.930  18.723  0.00  0.00    +0.000 HD
ENDROOT
BRANCH   2   5
ATOM      5  C   UNL     1       2.135   7.445  19.211  0.00  0.00    +0.000 A 
ATOM      6  C   UNL     1       1.851   6.981  20.492  0.00  0.00    +0.000 A 
ATOM      7  C   UNL     1       1.204   7.807  21.408  0.00  0.00    +0.000 A 
ATOM      8  C   UNL     1       0.848   9.123  21.075  0.00  0.00    +0.000 A 
ATOM      9  C   UNL     1       1.082   9.597  19.752  0.00  0.00    +0.000 A 
ATOM     10  C   UNL     1       1.759   8.742  18.849  0.00  0.00    +0.000 A 
BRANCH   9  11
ATOM     11  C   UNL     1       0.639  10.935  19.269  0.00  0.00    +0.000 A 
ATOM     12  C   UNL     1       1.475  12.066  19.358  0.00  0.00    +0.000 A 
ATOM     13  C   UNL     1       1.035  13.327  18.938  0.00  0.00    +0.000 A 
ATOM     14  C   UNL     1      -0.244  13.473  18.438  0.00  0.00    +0.000 A 
ATOM     15  C   UNL     1      -1.091  12.387  18.323  0.00  0.00    +0.000 A 
ATOM     16  C   UNL     1      -0.631  11.131  18.697  0.00  0.00    +0.000 A 
BRANCH  14  17
ATOM     17  O   UNL     1      -0.727  14.682  18.036  0.00  0.00    +0.000 OA
ATOM     18  H   UNL     1      -1.701  14.646  18.090  0.00  0.00    +0.000 HD
ENDBRANCH  14  17
ENDBRANCH   9  11
BRANCH   8  19
ATOM     19  N   UNL     1       0.065   9.821  22.018  0.00  0.00    +0.000 N 
ATOM     20  H   UNL     1      -0.840  10.131  21.685  0.00  0.00    +0.000 HD
ATOM     21  H   UNL     1      -0.013   9.349  22.913  0.00  0.00    +0.000 HD
ENDBRANCH   8  19
ENDBRANCH   2   5
BRANCH   1  22
ATOM     22  C   UNL     1       4.689   5.501  17.115  0.00  0.00    +0.000 C 
BRANCH  22  23
ATOM     23  C   UNL     1       4.941   4.229  17.913  0.00  0.00    +0.000 C 
ATOM     24  O   UNL     1       5.802   4.181  18.801  0.00  0.00    +0.000 OA
BRANCH  23  25
ATOM     25  O   UNL     1       4.107   3.212  17.559  0.00  0.00    +0.000 OA
BRANCH  25  27
ATOM     26  C   UNL     1       1.848   2.439  18.130  0.00  0.00    +0.000 C 
ATOM     27  C   UNL     1       3.304   2.573  18.594  0.00  0.00    +0.000 C 
ATOM     28  C   UNL     1       3.360   3.346  19.921  0.00  0.00    +0.000 C 
ATOM     29  C   UNL     1       3.881   1.158  18.791  0.00  0.00    +0.000 C 
ENDBRANCH  25  27
ENDBRANCH  23  25
ENDBRANCH  22  23
BRANCH  22  30
ATOM     30  C   UNL     1       5.970   6.120  16.558  0.00  0.00    +0.000 C 
BRANCH  30  31
ATOM     31  C   UNL     1       7.058   5.122  16.135  0.00  0.00    +0.000 C 
BRANCH  31  32
ATOM     32  C   UNL     1       6.932   4.793  14.662  0.00  0.00    +0.000 A 
ATOM     33  C   UNL     1       6.049   3.798  14.216  0.00  0.00    +0.000 A 
ATOM     34  C   UNL     1       5.996   3.456  12.863  0.00  0.00    +0.000 A 
ATOM     35  C   UNL     1       6.821   4.102  11.943  0.00  0.00    +0.000 A 
ATOM     36  C   UNL     1       7.691   5.102  12.373  0.00  0.00    +0.000 A 
ATOM     37  C   UNL     1       7.748   5.443  13.726  0.00  0.00    +0.000 A 
ENDBRANCH  31  32
ENDBRANCH  30  31
ENDBRANCH  22  30
ENDBRANCH   1  22
TORSDOF 11
ENDMDL
MODEL 6
REMARK VINA RESULT:      -8.2      0.788      1.480
REMARK  Name = 
REMARK  14 active torsions:
REMARK  status: ('A' for Active; 'I' for Inactive)
REMARK    1  A    between atoms: C_1  and  C_2
REMARK    2  A    between atoms: C_2  and  C_3
REMARK    3  A    between atoms: C_2  and  C_4
REMARK    4  A    between atoms: C_2  and  O_5
REMARK    5  A    between atoms: O_5  and  C_6
REMARK    6  A    between atoms: C_6  and  C_8
REMARK    7  A    between atoms: C_8  and  C_9
REMARK    8  A    between atoms: C_8  and  N_17
REMARK    9  A    between atoms: C_9  and  C_10
REMARK   10  A    between atoms: C_10  and  C_11
REMARK   11  A    between atoms: C_18  and  C_20
REMARK   12  A    between atoms: C_23  and  N_24
REMARK   13  A    between atoms: C_25  and  C_26
REMARK   14  A    between atoms: C_29  and  O_30
REMARK                            x       y       z     vdW  Elec       q    Type
REMARK                         _______ _______ _______ _____ _____    ______ ____
ROOT
ATOM      1  N   UNL     1       3.361   6.118  17.874  0.00  0.00    +0.000 N 
ATOM      2  C   UNL     1       2.651   6.657  18.914  0.00  0.00    +0.000 C 
ATOM      3  O   UNL     1       2.455   6.046  19.963  0.00  0.00    +0.000 OA
ATOM      4  H   UNL     1       3.644   6.697  17.081  0.00  0.00    +0.000 HD
ENDROOT
BRANCH   2   5
ATOM      5  C   UNL     1       2.114   8.032  18.772  0.00  0.00    +0.000 A 
ATOM      6  C   UNL     1       2.623   8.847  17.765  0.00  0.00    +0.000 A 
ATOM      7  C   UNL     1       2.232  10.180  17.680  0.00  0.00    +0.000 A 
ATOM      8  C   UNL     1       1.305  10.726  18.582  0.00  0.00    +0.000 A 
ATOM      9  C   UNL     1       0.814   9.922  19.651  0.00  0.00    +0.000 A 
ATOM     10  C   UNL     1       1.214   8.564  19.700  0.00  0.00    +0.000 A 
BRANCH   9  11
ATOM     11  C   UNL     1      -0.082  10.440  20.722  0.00  0.00    +0.000 A 
ATOM     12  C   UNL     1      -1.010  11.471  20.474  0.00  0.00    +0.000 A 
ATOM     13  C   UNL     1      -1.821  11.979  21.497  0.00  0.00    +0.000 A 
ATOM     14  C   UNL     1      -1.704  11.470  22.776  0.00  0.00    +0.000 A 
ATOM     15  C   UNL     1      -0.815  10.451  23.058  0.00  0.00    +0.000 A 
ATOM     16  C   UNL     1      -0.050   9.920  22.029  0.00  0.00    +0.000 A 
BRANCH  14  17
ATOM     17  O   UNL     1      -2.454  11.945  23.811  0.00  0.00    +0.000 OA
ATOM     18  H   UNL     1      -2.650  12.883  23.631  0.00  0.00    +0.000 HD
ENDBRANCH  14  17
ENDBRANCH   9  11
BRANCH   8  19
ATOM     19  N   UNL     1       1.093  12.117  18.502  0.00  0.00    +0.000 N 
ATOM     20  H   UNL     1       1.325  12.542  17.612  0.00  0.00    +0.000 HD
ATOM     21  H   UNL     1       0.174  12.409  18.821  0.00  0.00    +0.000 HD
ENDBRANCH   8  19
ENDBRANCH   2   5
BRANCH   1  22
ATOM     22  C   UNL     1       3.940   4.760  17.966  0.00  0.00    +0.000 C 
BRANCH  22  23
ATOM     23  C   UNL     1       5.394   4.914  17.544  0.00  0.00    +0.000 C 
ATOM     24  O   UNL     1       6.177   5.643  18.168  0.00  0.00    +0.000 OA
BRANCH  23  25
ATOM     25  O   UNL     1       5.711   4.152  16.461  0.00  0.00    +0.000 OA
BRANCH  25  27
ATOM     26  C   UNL     1       5.525   4.029  14.016  0.00  0.00    +0.000 C 
ATOM     27  C   UNL     1       6.066   4.819  15.214  0.00  0.00    +0.000 C 
ATOM     28  C   UNL     1       7.585   5.001  15.076  0.00  0.00    +0.000 C 
ATOM     29  C   UNL     1       5.376   6.197  15.238  0.00  0.00    +0.000 C 
ENDBRANCH  25  27
ENDBRANCH  23  25
ENDBRANCH  22  23
BRANCH  22  30
ATOM     30  C   UNL     1       3.153   3.810  17.064  0.00  0.00    +0.000 C 
BRANCH  30  31
ATOM     31  C   UNL     1       2.808   2.446  17.678  0.00  0.00    +0.000 C 
BRANCH  31  32
ATOM     32  C   UNL     1       2.388   2.606  19.124  0.00  0.00    +0.000 A 
ATOM     33  C   UNL     1       3.290   2.368  20.170  0.00  0.00    +0.000 A 
ATOM     34  C   UNL     1       2.869   2.450  21.500  0.00  0.00    +0.000 A 
ATOM     35  C   UNL     1       1.544   2.771  21.797  0.00  0.00    +0.000 A 
ATOM     36  C   UNL     1       0.643   3.025  20.765  0.00  0.00    +0.000 A 
ATOM     37  C   UNL     1       1.062   2.940  19.436  0.00  0.00    +0.000 A 
ENDBRANCH  31  32
ENDBRANCH  30  31
ENDBRANCH  22  30
ENDBRANCH   1  22
TORSDOF 11
ENDMDL
MODEL 7
REMARK VINA RESULT:      -8.2      3.492      9.026
REMARK  Name = 
REMARK  14 active torsions:
REMARK  status: ('A' for Active; 'I' for Inactive)
REMARK    1  A    between atoms: C_1  and  C_2
REMARK    2  A    between atoms: C_2  and  C_3
REMARK    3  A    between atoms: C_2  and  C_4
REMARK    4  A    between atoms: C_2  and  O_5
REMARK    5  A    between atoms: O_5  and  C_6
REMARK    6  A    between atoms: C_6  and  C_8
REMARK    7  A    between atoms: C_8  and  C_9
REMARK    8  A    between atoms: C_8  and  N_17
REMARK    9  A    between atoms: C_9  and  C_10
REMARK   10  A    between atoms: C_10  and  C_11
REMARK   11  A    between atoms: C_18  and  C_20
REMARK   12  A    between atoms: C_23  and  N_24
REMARK   13  A    between atoms: C_25  and  C_26
REMARK   14  A    between atoms: C_29  and  O_30
REMARK                            x       y       z     vdW  Elec       q    Type
REMARK                         _______ _______ _______ _____ _____    ______ ____
ROOT
ATOM      1  N   UNL     1       0.897  11.214  19.437  0.00  0.00    +0.000 N 
ATOM      2  C   UNL     1       1.528  10.311  18.624  0.00  0.00    +0.000 C 
ATOM      3  O   UNL     1       1.973  10.618  17.519  0.00  0.00    +0.000 OA
ATOM      4  H   UNL     1       0.677  10.978  20.406  0.00  0.00    +0.000 HD
ENDROOT
BRANCH   2   5
ATOM      5  C   UNL     1       1.693   8.916  19.102  0.00  0.00    +0.000 A 
ATOM      6  C   UNL     1       1.195   8.579  20.357  0.00  0.00    +0.000 A 
ATOM      7  C   UNL     1       1.439   7.315  20.889  0.00  0.00    +0.000 A 
ATOM      8  C   UNL     1       2.162   6.351  20.171  0.00  0.00    +0.000 A 
ATOM      9  C   UNL     1       2.725   6.696  18.908  0.00  0.00    +0.000 A 
ATOM     10  C   UNL     1       2.443   7.982  18.383  0.00  0.00    +0.000 A 
BRANCH   9  11
ATOM     11  C   UNL     1       3.601   5.783  18.122  0.00  0.00    +0.000 A 
ATOM     12  C   UNL     1       4.922   6.137  17.785  0.00  0.00    +0.000 A 
ATOM     13  C   UNL     1       5.726   5.290  17.012  0.00  0.00    +0.000 A 
ATOM     14  C   UNL     1       5.214   4.088  16.561  0.00  0.00    +0.000 A 
ATOM     15  C   UNL     1       3.927   3.698  16.880  0.00  0.00    +0.000 A 
ATOM     16  C   UNL     1       3.154   4.522  17.687  0.00  0.00    +0.000 A 
BRANCH  14  17
ATOM     17  O   UNL     1       5.947   3.237  15.788  0.00  0.00    +0.000 OA
ATOM     18  H   UNL     1       5.397   2.453  15.605  0.00  0.00    +0.000 HD
ENDBRANCH  14  17
ENDBRANCH   9  11
BRANCH   8  19
ATOM     19  N   UNL     1       2.481   5.162  20.858  0.00  0.00    +0.000 N 
ATOM     20  H   UNL     1       1.917   4.356  20.617  0.00  0.00    +0.000 HD
ATOM     21  H   UNL     1       3.471   4.935  20.844  0.00  0.00    +0.000 HD
ENDBRANCH   8  19
ENDBRANCH   2   5
BRANCH   1  22
ATOM     22  C   UNL     1       0.724  12.624  19.023  0.00  0.00    +0.000 C 
BRANCH  22  23
ATOM     23  C   UNL     1       1.257  13.451  20.184  0.00  0.00    +0.000 C 
ATOM     24  O   UNL     1       1.362  12.977  21.323  0.00  0.00    +0.000 OA
BRANCH  23  25
ATOM     25  O   UNL     1       1.617  14.711  19.812  0.00  0.00    +0.000 OA
BRANCH  25  27
ATOM     26  C   UNL     1       3.893  14.594  20.725  0.00  0.00    +0.000 C 
ATOM     27  C   UNL     1       3.020  14.981  19.524  0.00  0.00    +0.000 C 
ATOM     28  C   UNL     1       3.256  16.456  19.163  0.00  0.00    +0.000 C 
ATOM     29  C   UNL     1       3.409  14.084  18.334  0.00  0.00    +0.000 C 
ENDBRANCH  25  27
ENDBRANCH  23  25
ENDBRANCH  22  23
BRANCH  22  30
ATOM     30  C   UNL     1      -0.753  12.890  18.729  0.00  0.00    +0.000 C 
BRANCH  30  31
ATOM     31  C   UNL     1      -1.725  11.788  19.175  0.00  0.00    +0.000 C 
BRANCH  31  32
ATOM     32  C   UNL     1      -2.468  11.222  17.983  0.00  0.00    +0.000 A 
ATOM     33  C   UNL     1      -1.870  10.271  17.143  0.00  0.00    +0.000 A 
ATOM     34  C   UNL     1      -2.540   9.810  16.007  0.00  0.00    +0.000 A 
ATOM     35  C   UNL     1      -3.812  10.293  15.700  0.00  0.00    +0.000 A 
ATOM     36  C   UNL     1      -4.421  11.226  16.536  0.00  0.00    +0.000 A 
ATOM     37  C   UNL     1      -3.751  11.690  17.669  0.00  0.00    +0.000 A 
ENDBRANCH  31  32
ENDBRANCH  30  31
ENDBRANCH  22  30
ENDBRANCH   1  22
TORSDOF 11
ENDMDL
MODEL 8
REMARK VINA RESULT:      -8.1      3.314      9.038
REMARK  Name = 
REMARK  14 active torsions:
REMARK  status: ('A' for Active; 'I' for Inactive)
REMARK    1  A    between atoms: C_1  and  C_2
REMARK    2  A    between atoms: C_2  and  C_3
REMARK    3  A    between atoms: C_2  and  C_4
REMARK    4  A    between atoms: C_2  and  O_5
REMARK    5  A    between atoms: O_5  and  C_6
REMARK    6  A    between atoms: C_6  and  C_8
REMARK    7  A    between atoms: C_8  and  C_9
REMARK    8  A    between atoms: C_8  and  N_17
REMARK    9  A    between atoms: C_9  and  C_10
REMARK   10  A    between atoms: C_10  and  C_11
REMARK   11  A    between atoms: C_18  and  C_20
REMARK   12  A    between atoms: C_23  and  N_24
REMARK   13  A    between atoms: C_25  and  C_26
REMARK   14  A    between atoms: C_29  and  O_30
REMARK                            x       y       z     vdW  Elec       q    Type
REMARK                         _______ _______ _______ _____ _____    ______ ____
ROOT
ATOM      1  N   UNL     1       0.875  10.431  19.400  0.00  0.00    +0.000 N 
ATOM      2  C   UNL     1       1.673   9.815  18.474  0.00  0.00    +0.000 C 
ATOM      3  O   UNL     1       2.044  10.380  17.446  0.00  0.00    +0.000 OA
ATOM      4  H   UNL     1       0.710  10.002  20.313  0.00  0.00    +0.000 HD
ENDROOT
BRANCH   2   5
ATOM      5  C   UNL     1       2.116   8.423  18.728  0.00  0.00    +0.000 A 
ATOM      6  C   UNL     1       1.610   7.754  19.839  0.00  0.00    +0.000 A 
ATOM      7  C   UNL     1       2.095   6.494  20.178  0.00  0.00    +0.000 A 
ATOM      8  C   UNL     1       3.077   5.860  19.402  0.00  0.00    +0.000 A 
ATOM      9  C   UNL     1       3.646   6.551  18.293  0.00  0.00    +0.000 A 
ATOM     10  C   UNL     1       3.118   7.823  17.960  0.00  0.00    +0.000 A 
BRANCH   9  11
ATOM     11  C   UNL     1       4.770   6.011  17.478  0.00  0.00    +0.000 A 
ATOM     12  C   UNL     1       6.076   5.910  17.999  0.00  0.00    +0.000 A 
ATOM     13  C   UNL     1       7.135   5.439  17.213  0.00  0.00    +0.000 A 
ATOM     14  C   UNL     1       6.902   5.077  15.900  0.00  0.00    +0.000 A 
ATOM     15  C   UNL     1       5.634   5.150  15.356  0.00  0.00    +0.000 A 
ATOM     16  C   UNL     1       4.581   5.572  16.156  0.00  0.00    +0.000 A 
BRANCH  14  17
ATOM     17  O   UNL     1       7.902   4.633  15.087  0.00  0.00    +0.000 OA
ATOM     18  H   UNL     1       8.024   5.292  14.378  0.00  0.00    +0.000 HD
ENDBRANCH  14  17
ENDBRANCH   9  11
BRANCH   8  19
ATOM     19  N   UNL     1       3.606   4.658  19.915  0.00  0.00    +0.000 N 
ATOM     20  H   UNL     1       4.609   4.551  19.823  0.00  0.00    +0.000 HD
ATOM     21  H   UNL     1       3.298   4.446  20.859  0.00  0.00    +0.000 HD
ENDBRANCH   8  19
ENDBRANCH   2   5
BRANCH   1  22
ATOM     22  C   UNL     1       0.420  11.826  19.211  0.00  0.00    +0.000 C 
BRANCH  22  23
ATOM     23  C   UNL     1       1.197  12.643  20.234  0.00  0.00    +0.000 C 
ATOM     24  O   UNL     1       1.819  12.102  21.158  0.00  0.00    +0.000 OA
BRANCH  23  25
ATOM     25  O   UNL     1       1.148  13.981  19.986  0.00  0.00    +0.000 OA
BRANCH  25  27
ATOM     26  C   UNL     1       1.818  15.827  18.513  0.00  0.00    +0.000 C 
ATOM     27  C   UNL     1       2.284  14.614  19.327  0.00  0.00    +0.000 C 
ATOM     28  C   UNL     1       3.036  13.632  18.416  0.00  0.00    +0.000 C 
ATOM     29  C   UNL     1       3.222  15.111  20.444  0.00  0.00    +0.000 C 
ENDBRANCH  25  27
ENDBRANCH  23  25
ENDBRANCH  22  23
BRANCH  22  30
ATOM     30  C   UNL     1      -1.093  11.899  19.414  0.00  0.00    +0.000 C 
BRANCH  30  31
ATOM     31  C   UNL     1      -1.850  10.576  19.234  0.00  0.00    +0.000 C 
BRANCH  31  32
ATOM     32  C   UNL     1      -2.565  10.551  17.899  0.00  0.00    +0.000 A 
ATOM     33  C   UNL     1      -2.038   9.843  16.809  0.00  0.00    +0.000 A 
ATOM     34  C   UNL     1      -2.671   9.888  15.564  0.00  0.00    +0.000 A 
ATOM     35  C   UNL     1      -3.835  10.637  15.396  0.00  0.00    +0.000 A 
ATOM     36  C   UNL     1      -4.376  11.331  16.477  0.00  0.00    +0.000 A 
ATOM     37  C   UNL     1      -3.742  11.290  17.720  0.00  0.00    +0.000 A 
ENDBRANCH  31  32
ENDBRANCH  30  31
ENDBRANCH  22  30
ENDBRANCH   1  22
TORSDOF 11
ENDMDL
MODEL 9
REMARK VINA RESULT:      -8.1      2.742      9.506
REMARK  Name = 
REMARK  14 active torsions:
REMARK  status: ('A' for Active; 'I' for Inactive)
REMARK    1  A    between atoms: C_1  and  C_2
REMARK    2  A    between atoms: C_2  and  C_3
REMARK    3  A    between atoms: C_2  and  C_4
REMARK    4  A    between atoms: C_2  and  O_5
REMARK    5  A    between atoms: O_5  and  C_6
REMARK    6  A    between atoms: C_6  and  C_8
REMARK    7  A    between atoms: C_8  and  C_9
REMARK    8  A    between atoms: C_8  and  N_17
REMARK    9  A    between atoms: C_9  and  C_10
REMARK   10  A    between atoms: C_10  and  C_11
REMARK   11  A    between atoms: C_18  and  C_20
REMARK   12  A    between atoms: C_23  and  N_24
REMARK   13  A    between atoms: C_25  and  C_26
REMARK   14  A    between atoms: C_29  and  O_30
REMARK                            x       y       z     vdW  Elec       q    Type
REMARK                         _______ _______ _______ _____ _____    ______ ____
ROOT
ATOM      1  N   UNL     1       0.834   9.611  20.275  0.00  0.00    +0.000 N 
ATOM      2  C   UNL     1       1.620   9.187  19.236  0.00  0.00    +0.000 C 
ATOM      3  O   UNL     1       1.937   9.928  18.306  0.00  0.00    +0.000 OA
ATOM      4  H   UNL     1       0.715   9.031  21.108  0.00  0.00    +0.000 HD
ENDROOT
BRANCH   2   5
ATOM      5  C   UNL     1       2.118   7.790  19.243  0.00  0.00    +0.000 A 
ATOM      6  C   UNL     1       1.694   6.936  20.258  0.00  0.00    +0.000 A 
ATOM      7  C   UNL     1       2.235   5.658  20.367  0.00  0.00    +0.000 A 
ATOM      8  C   UNL     1       3.191   5.192  19.452  0.00  0.00    +0.000 A 
ATOM      9  C   UNL     1       3.676   6.070  18.440  0.00  0.00    +0.000 A 
ATOM     10  C   UNL     1       3.093   7.358  18.341  0.00  0.00    +0.000 A 
BRANCH   9  11
ATOM     11  C   UNL     1       4.769   5.709  17.495  0.00  0.00    +0.000 A 
ATOM     12  C   UNL     1       6.069   6.235  17.634  0.00  0.00    +0.000 A 
ATOM     13  C   UNL     1       7.080   5.922  16.717  0.00  0.00    +0.000 A 
ATOM     14  C   UNL     1       6.800   5.090  15.650  0.00  0.00    +0.000 A 
ATOM     15  C   UNL     1       5.542   4.544  15.484  0.00  0.00    +0.000 A 
ATOM     16  C   UNL     1       4.558   4.821  16.424  0.00  0.00    +0.000 A 
BRANCH  14  17
ATOM     17  O   UNL     1       7.743   4.771  14.718  0.00  0.00    +0.000 OA
ATOM     18  H   UNL     1       7.283   4.387  13.948  0.00  0.00    +0.000 HD
ENDBRANCH  14  17
ENDBRANCH   9  11
BRANCH   8  19
ATOM     19  N   UNL     1       3.783   3.945  19.739  0.00  0.00    +0.000 N 
ATOM     20  H   UNL     1       3.359   3.148  19.281  0.00  0.00    +0.000 HD
ATOM     21  H   UNL     1       4.792   3.938  19.632  0.00  0.00    +0.000 HD
ENDBRANCH   8  19
ENDBRANCH   2   5
BRANCH   1  22
ATOM     22  C   UNL     1       0.327  11.000  20.333  0.00  0.00    +0.000 C 
BRANCH  22  23
ATOM     23  C   UNL     1      -0.345  11.124  21.693  0.00  0.00    +0.000 C 
ATOM     24  O   UNL     1       0.224  10.764  22.732  0.00  0.00    +0.000 OA
BRANCH  23  25
ATOM     25  O   UNL     1      -1.581  11.691  21.620  0.00  0.00    +0.000 OA
BRANCH  25  27
ATOM     26  C   UNL     1      -0.406  13.750  22.258  0.00  0.00    +0.000 C 
ATOM     27  C   UNL     1      -1.762  13.045  22.128  0.00  0.00    +0.000 C 
ATOM     28  C   UNL     1      -2.486  13.054  23.484  0.00  0.00    +0.000 C 
ATOM     29  C   UNL     1      -2.604  13.801  21.083  0.00  0.00    +0.000 C 
ENDBRANCH  25  27
ENDBRANCH  23  25
ENDBRANCH  22  23
BRANCH  22  30
ATOM     30  C   UNL     1      -0.634  11.239  19.168  0.00  0.00    +0.000 C 
BRANCH  30  31
ATOM     31  C   UNL     1      -1.623  10.100  18.881  0.00  0.00    +0.000 C 
BRANCH  31  32
ATOM     32  C   UNL     1      -2.444  10.408  17.647  0.00  0.00    +0.000 A 
ATOM     33  C   UNL     1      -3.572  11.238  17.717  0.00  0.00    +0.000 A 
ATOM     34  C   UNL     1      -4.361  11.457  16.585  0.00  0.00    +0.000 A 
ATOM     35  C   UNL     1      -4.031  10.850  15.373  0.00  0.00    +0.000 A 
ATOM     36  C   UNL     1      -2.904  10.036  15.289  0.00  0.00    +0.000 A 
ATOM     37  C   UNL     1      -2.116   9.814  16.420  0.00  0.00    +0.000 A 
ENDBRANCH  31  32
ENDBRANCH  30  31
ENDBRANCH  22  30
ENDBRANCH   1  22
TORSDOF 11
ENDMDL
