MODEL 1
REMARK VINA RESULT:      -6.4      0.000      0.000
REMARK  Name = 
REMARK  12 active torsions:
REMARK  status: ('A' for Active; 'I' for Inactive)
REMARK    1  A    between atoms: C_2  and  C_3
REMARK    2  A    between atoms: C_2  and  C_7
REMARK    3  A    between atoms: C_3  and  N_4
REMARK    4  A    between atoms: N_4  and  C_5
REMARK    5  A    between atoms: N_4  and  C_6
REMARK    6  A    between atoms: C_7  and  C_9
REMARK    7  A    between atoms: C_11  and  O_12
REMARK    8  A    between atoms: O_12  and  C_13
REMARK    9  A    between atoms: C_14  and  O_15
REMARK   10  A    between atoms: O_15  and  C_16
REMARK   11  A    between atoms: C_18  and  O_19
REMARK   12  A    between atoms: O_19  and  C_20
REMARK                            x       y       z     vdW  Elec       q    Type
REMARK                         _______ _______ _______ _____ _____    ______ ____
ROOT
ATOM      1  C   UNL     1       4.122   4.656  17.451  0.00  0.00    +0.000 A 
ATOM      2  C   UNL     1       5.215   4.328  16.630  0.00  0.00    +0.000 A 
ATOM      3  C   UNL     1       6.257   5.224  16.390  0.00  0.00    +0.000 A 
ATOM      4  C   UNL     1       6.175   6.520  16.915  0.00  0.00    +0.000 A 
ATOM      5  C   UNL     1       5.057   6.878  17.677  0.00  0.00    +0.000 A 
ATOM      6  C   UNL     1       4.028   5.957  17.964  0.00  0.00    +0.000 A 
ENDROOT
BRANCH   1   7
ATOM      7  C   UNL     1       3.093   3.590  17.607  0.00  0.00    +0.000 C 
ATOM      8  O   UNL     1       2.151   3.548  16.824  0.00  0.00    +0.000 OA
BRANCH   7  10
ATOM      9  C   UNL     1       3.640   1.245  18.350  0.00  0.00    +0.000 C 
ATOM     10  C   UNL     1       3.270   2.505  18.659  0.00  0.00    +0.000 C 
BRANCH  10  11
ATOM     11  C   UNL     1       3.008   2.970  20.082  0.00  0.00    +0.000 C 
BRANCH  11  12
ATOM     12  N   UNL     1       1.589   2.955  20.515  0.00  0.00    +0.000 NA
ATOM     13  C   UNL     1       1.452   2.480  21.897  0.00  0.00    +0.000 C 
ATOM     14  C   UNL     1       1.027   4.308  20.429  0.00  0.00    +0.000 C 
ENDBRANCH  11  12
ENDBRANCH  10  11
ENDBRANCH   7  10
ENDBRANCH   1   7
BRANCH   3  15
ATOM     15  O   UNL     1       7.377   4.904  15.665  0.00  0.00    +0.000 OA
ATOM     16  C   UNL     1       7.199   4.690  14.268  0.00  0.00    +0.000 C 
ENDBRANCH   3  15
BRANCH   4  17
ATOM     17  O   UNL     1       7.223   7.354  16.621  0.00  0.00    +0.000 OA
ATOM     18  C   UNL     1       7.793   8.099  17.688  0.00  0.00    +0.000 C 
ENDBRANCH   4  17
BRANCH   6  19
ATOM     19  O   UNL     1       3.018   6.525  18.690  0.00  0.00    +0.000 OA
ATOM     20  C   UNL     1       2.391   7.691  18.177  0.00  0.00    +0.000 C 
ENDBRANCH   6  19
TORSDOF 7
ENDMDL
MODEL 2
REMARK VINA RESULT:      -6.4      1.201      2.040
REMARK  Name = 
REMARK  12 active torsions:
REMARK  status: ('A' for Active; 'I' for Inactive)
REMARK    1  A    between atoms: C_2  and  C_3
REMARK    2  A    between atoms: C_2  and  C_7
REMARK    3  A    between atoms: C_3  and  N_4
REMARK    4  A    between atoms: N_4  and  C_5
REMARK    5  A    between atoms: N_4  and  C_6
REMARK    6  A    between atoms: C_7  and  C_9
REMARK    7  A    between atoms: C_11  and  O_12
REMARK    8  A    between atoms: O_12  and  C_13
REMARK    9  A    between atoms: C_14  and  O_15
REMARK   10  A    between atoms: O_15  and  C_16
REMARK   11  A    between atoms: C_18  and  O_19
REMARK   12  A    between atoms: O_19  and  C_20
REMARK                            x       y       z     vdW  Elec       q    Type
REMARK                         _______ _______ _______ _____ _____    ______ ____
ROOT
ATOM      1  C   UNL     1       3.109   5.186  17.764  0.00  0.00    +0.000 A 
ATOM      2  C   UNL     1       4.136   4.507  17.085  0.00  0.00    +0.000 A 
ATOM      3  C   UNL     1       5.306   5.150  16.680  0.00  0.00    +0.000 A 
ATOM      4  C   UNL     1       5.431   6.531  16.882  0.00  0.00    +0.000 A 
ATOM      5  C   UNL     1       4.383   7.227  17.496  0.00  0.00    +0.000 A 
ATOM      6  C   UNL     1       3.222   6.570  17.952  0.00  0.00    +0.000 A 
ENDROOT
BRANCH   1   7
ATOM      7  C   UNL     1       1.925   4.359  18.128  0.00  0.00    +0.000 C 
ATOM      8  O   UNL     1       1.143   4.013  17.249  0.00  0.00    +0.000 OA
BRANCH   7  10
ATOM      9  C   UNL     1       1.166   4.602  20.519  0.00  0.00    +0.000 C 
ATOM     10  C   UNL     1       1.749   3.860  19.554  0.00  0.00    +0.000 C 
BRANCH  10  11
ATOM     11  C   UNL     1       2.271   2.452  19.790  0.00  0.00    +0.000 C 
BRANCH  11  12
ATOM     12  N   UNL     1       3.695   2.225  19.437  0.00  0.00    +0.000 NA
ATOM     13  C   UNL     1       4.497   1.898  20.622  0.00  0.00    +0.000 C 
ATOM     14  C   UNL     1       3.801   1.116  18.481  0.00  0.00    +0.000 C 
ENDBRANCH  11  12
ENDBRANCH  10  11
ENDBRANCH   7  10
ENDBRANCH   1   7
BRANCH   3  15
ATOM     15  O   UNL     1       6.362   4.499  16.093  0.00  0.00    +0.000 OA
ATOM     16  C   UNL     1       6.159   4.005  14.773  0.00  0.00    +0.000 C 
ENDBRANCH   3  15
BRANCH   4  17
ATOM     17  O   UNL     1       6.597   7.100  16.440  0.00  0.00    +0.000 OA
ATOM     18  C   UNL     1       7.504   7.591  17.417  0.00  0.00    +0.000 C 
ENDBRANCH   4  17
BRANCH   6  19
ATOM     19  O   UNL     1       2.314   7.443  18.486  0.00  0.00    +0.000 OA
ATOM     20  C   UNL     1       2.107   8.685  17.831  0.00  0.00    +0.000 C 
ENDBRANCH   6  19
TORSDOF 7
ENDMDL
MODEL 3
REMARK VINA RESULT:      -6.2      2.106      5.177
REMARK  Name = 
REMARK  12 active torsions:
REMARK  status: ('A' for Active; 'I' for Inactive)
REMARK    1  A    between atoms: C_2  and  C_3
REMARK    2  A    between atoms: C_2  and  C_7
REMARK    3  A    between atoms: C_3  and  N_4
REMARK    4  A    between atoms: N_4  and  C_5
REMARK    5  A    between atoms: N_4  and  C_6
REMARK    6  A    between atoms: C_7  and  C_9
REMARK    7  A    between atoms: C_11  and  O_12
REMARK    8  A    between atoms: O_12  and  C_13
REMARK    9  A    between atoms: C_14  and  O_15
REMARK   10  A    between atoms: O_15  and  C_16
REMARK   11  A    between atoms: C_18  and  O_19
REMARK   12  A    between atoms: O_19  and  C_20
REMARK                            x       y       z     vdW  Elec       q    Type
REMARK                         _______ _______ _______ _____ _____    ______ ____
ROOT
ATOM      1  C   UNL     1       4.113   5.484  16.928  0.00  0.00    +0.000 A 
ATOM      2  C   UNL     1       3.872   4.104  17.056  0.00  0.00    +0.000 A 
ATOM      3  C   UNL     1       2.884   3.601  17.902  0.00  0.00    +0.000 A 
ATOM      4  C   UNL     1       2.163   4.487  18.712  0.00  0.00    +0.000 A 
ATOM      5  C   UNL     1       2.445   5.856  18.642  0.00  0.00    +0.000 A 
ATOM      6  C   UNL     1       3.407   6.372  17.750  0.00  0.00    +0.000 A 
ENDROOT
BRANCH   1   7
ATOM      7  C   UNL     1       5.203   5.859  15.985  0.00  0.00    +0.000 C 
ATOM      8  O   UNL     1       5.120   6.914  15.363  0.00  0.00    +0.000 OA
BRANCH   7  10
ATOM      9  C   UNL     1       6.707   4.217  14.805  0.00  0.00    +0.000 C 
ATOM     10  C   UNL     1       6.452   4.997  15.875  0.00  0.00    +0.000 C 
BRANCH  10  11
ATOM     11  C   UNL     1       7.389   5.106  17.067  0.00  0.00    +0.000 C 
BRANCH  11  12
ATOM     12  N   UNL     1       7.019   6.119  18.087  0.00  0.00    +0.000 NA
ATOM     13  C   UNL     1       7.310   5.644  19.446  0.00  0.00    +0.000 C 
ATOM     14  C   UNL     1       7.770   7.358  17.856  0.00  0.00    +0.000 C 
ENDBRANCH  11  12
ENDBRANCH  10  11
ENDBRANCH   7  10
ENDBRANCH   1   7
BRANCH   3  15
ATOM     15  O   UNL     1       2.566   2.268  17.984  0.00  0.00    +0.000 OA
ATOM     16  C   UNL     1       3.580   1.394  18.470  0.00  0.00    +0.000 C 
ENDBRANCH   3  15
BRANCH   4  17
ATOM     17  O   UNL     1       1.223   3.921  19.535  0.00  0.00    +0.000 OA
ATOM     18  C   UNL     1       1.505   3.878  20.926  0.00  0.00    +0.000 C 
ENDBRANCH   4  17
BRANCH   6  19
ATOM     19  O   UNL     1       3.547   7.728  17.872  0.00  0.00    +0.000 OA
ATOM     20  C   UNL     1       2.381   8.535  17.807  0.00  0.00    +0.000 C 
ENDBRANCH   6  19
TORSDOF 7
ENDMDL
MODEL 4
REMARK VINA RESULT:      -6.2      2.401      5.789
REMARK  Name = 
REMARK  12 active torsions:
REMARK  status: ('A' for Active; 'I' for Inactive)
REMARK    1  A    between atoms: C_2  and  C_3
REMARK    2  A    between atoms: C_2  and  C_7
REMARK    3  A    between atoms: C_3  and  N_4
REMARK    4  A    between atoms: N_4  and  C_5
REMARK    5  A    between atoms: N_4  and  C_6
REMARK    6  A    between atoms: C_7  and  C_9
REMARK    7  A    between atoms: C_11  and  O_12
REMARK    8  A    between atoms: O_12  and  C_13
REMARK    9  A    between atoms: C_14  and  O_15
REMARK   10  A    between atoms: O_15  and  C_16
REMARK   11  A    between atoms: C_18  and  O_19
REMARK   12  A    between atoms: O_19  and  C_20
REMARK                            x       y       z     vdW  Elec       q    Type
REMARK                         _______ _______ _______ _____ _____    ______ ____
ROOT
ATOM      1  C   UNL     1       4.124   5.661  17.067  0.00  0.00    +0.000 A 
ATOM      2  C   UNL     1       3.967   4.264  17.049  0.00  0.00    +0.000 A 
ATOM      3  C   UNL     1       2.940   3.625  17.744  0.00  0.00    +0.000 A 
ATOM      4  C   UNL     1       2.086   4.387  18.552  0.00  0.00    +0.000 A 
ATOM      5  C   UNL     1       2.279   5.771  18.630  0.00  0.00    +0.000 A 
ATOM      6  C   UNL     1       3.283   6.425  17.888  0.00  0.00    +0.000 A 
ENDROOT
BRANCH   1   7
ATOM      7  C   UNL     1       5.269   6.188  16.274  0.00  0.00    +0.000 C 
ATOM      8  O   UNL     1       5.066   7.054  15.429  0.00  0.00    +0.000 OA
BRANCH   7  10
ATOM      9  C   UNL     1       7.349   6.121  17.697  0.00  0.00    +0.000 C 
ATOM     10  C   UNL     1       6.688   5.735  16.585  0.00  0.00    +0.000 C 
BRANCH  10  11
ATOM     11  C   UNL     1       7.285   4.801  15.545  0.00  0.00    +0.000 C 
BRANCH  11  12
ATOM     12  N   UNL     1       6.823   5.010  14.151  0.00  0.00    +0.000 NA
ATOM     13  C   UNL     1       7.947   5.293  13.249  0.00  0.00    +0.000 C 
ATOM     14  C   UNL     1       6.131   3.809  13.669  0.00  0.00    +0.000 C 
ENDBRANCH  11  12
ENDBRANCH  10  11
ENDBRANCH   7  10
ENDBRANCH   1   7
BRANCH   3  15
ATOM     15  O   UNL     1       2.709   2.274  17.677  0.00  0.00    +0.000 OA
ATOM     16  C   UNL     1       3.606   1.432  18.393  0.00  0.00    +0.000 C 
ENDBRANCH   3  15
BRANCH   4  17
ATOM     17  O   UNL     1       1.114   3.692  19.223  0.00  0.00    +0.000 OA
ATOM     18  C   UNL     1       1.211   3.620  20.638  0.00  0.00    +0.000 C 
ENDBRANCH   4  17
BRANCH   6  19
ATOM     19  O   UNL     1       3.318   7.769  18.141  0.00  0.00    +0.000 OA
ATOM     20  C   UNL     1       2.212   8.560  17.734  0.00  0.00    +0.000 C 
ENDBRANCH   6  19
TORSDOF 7
ENDMDL
MODEL 5
REMARK VINA RESULT:      -6.0      0.982      1.139
REMARK  Name = 
REMARK  12 active torsions:
REMARK  status: ('A' for Active; 'I' for Inactive)
REMARK    1  A    between atoms: C_2  and  C_3
REMARK    2  A    between atoms: C_2  and  C_7
REMARK    3  A    between atoms: C_3  and  N_4
REMARK    4  A    between atoms: N_4  and  C_5
REMARK    5  A    between atoms: N_4  and  C_6
REMARK    6  A    between atoms: C_7  and  C_9
REMARK    7  A    between atoms: C_11  and  O_12
REMARK    8  A    between atoms: O_12  and  C_13
REMARK    9  A    between atoms: C_14  and  O_15
REMARK   10  A    between atoms: O_15  and  C_16
REMARK   11  A    between atoms: C_18  and  O_19
REMARK   12  A    between atoms: O_19  and  C_20
REMARK                            x       y       z     vdW  Elec       q    Type
REMARK                         _______ _______ _______ _____ _____    ______ ____
ROOT
ATOM      1  C   UNL     1       3.962   4.523  17.392  0.00  0.00    +0.000 A 
ATOM      2  C   UNL     1       4.631   4.511  16.155  0.00  0.00    +0.000 A 
ATOM      3  C   UNL     1       5.758   5.298  15.917  0.00  0.00    +0.000 A 
ATOM      4  C   UNL     1       6.191   6.189  16.907  0.00  0.00    +0.000 A 
ATOM      5  C   UNL     1       5.488   6.257  18.116  0.00  0.00    +0.000 A 
ATOM      6  C   UNL     1       4.380   5.426  18.379  0.00  0.00    +0.000 A 
ENDROOT
BRANCH   1   7
ATOM      7  C   UNL     1       2.776   3.627  17.488  0.00  0.00    +0.000 C 
ATOM      8  O   UNL     1       1.744   3.933  16.900  0.00  0.00    +0.000 OA
BRANCH   7  10
ATOM      9  C   UNL     1       3.765   1.341  17.868  0.00  0.00    +0.000 C 
ATOM     10  C   UNL     1       2.880   2.296  18.218  0.00  0.00    +0.000 C 
BRANCH  10  11
ATOM     11  C   UNL     1       1.912   2.147  19.381  0.00  0.00    +0.000 C 
BRANCH  11  12
ATOM     12  N   UNL     1       2.257   2.908  20.607  0.00  0.00    +0.000 NA
ATOM     13  C   UNL     1       1.288   2.661  21.683  0.00  0.00    +0.000 C 
ATOM     14  C   UNL     1       3.589   2.515  21.080  0.00  0.00    +0.000 C 
ENDBRANCH  11  12
ENDBRANCH  10  11
ENDBRANCH   7  10
ENDBRANCH   1   7
BRANCH   3  15
ATOM     15  O   UNL     1       6.484   5.245  14.753  0.00  0.00    +0.000 OA
ATOM     16  C   UNL     1       6.374   4.054  13.980  0.00  0.00    +0.000 C 
ENDBRANCH   3  15
BRANCH   4  17
ATOM     17  O   UNL     1       7.291   6.946  16.596  0.00  0.00    +0.000 OA
ATOM     18  C   UNL     1       7.695   7.937  17.530  0.00  0.00    +0.000 C 
ENDBRANCH   4  17
BRANCH   6  19
ATOM     19  O   UNL     1       3.823   5.683  19.602  0.00  0.00    +0.000 OA
ATOM     20  C   UNL     1       2.613   6.423  19.648  0.00  0.00    +0.000 C 
ENDBRANCH   6  19
TORSDOF 7
ENDMDL
MODEL 6
REMARK VINA RESULT:      -6.0      1.296      1.611
REMARK  Name = 
REMARK  12 active torsions:
REMARK  status: ('A' for Active; 'I' for Inactive)
REMARK    1  A    between atoms: C_2  and  C_3
REMARK    2  A    between atoms: C_2  and  C_7
REMARK    3  A    between atoms: C_3  and  N_4
REMARK    4  A    between atoms: N_4  and  C_5
REMARK    5  A    between atoms: N_4  and  C_6
REMARK    6  A    between atoms: C_7  and  C_9
REMARK    7  A    between atoms: C_11  and  O_12
REMARK    8  A    between atoms: O_12  and  C_13
REMARK    9  A    between atoms: C_14  and  O_15
REMARK   10  A    between atoms: O_15  and  C_16
REMARK   11  A    between atoms: C_18  and  O_19
REMARK   12  A    between atoms: O_19  and  C_20
REMARK                            x       y       z     vdW  Elec       q    Type
REMARK                         _______ _______ _______ _____ _____    ______ ____
ROOT
ATOM      1  C   UNL     1       4.743   4.113  17.502  0.00  0.00    +0.000 A 
ATOM      2  C   UNL     1       5.482   4.141  16.306  0.00  0.00    +0.000 A 
ATOM      3  C   UNL     1       6.468   5.098  16.068  0.00  0.00    +0.000 A 
ATOM      4  C   UNL     1       6.675   6.114  17.010  0.00  0.00    +0.000 A 
ATOM      5  C   UNL     1       5.896   6.133  18.173  0.00  0.00    +0.000 A 
ATOM      6  C   UNL     1       4.935   5.137  18.440  0.00  0.00    +0.000 A 
ENDROOT
BRANCH   1   7
ATOM      7  C   UNL     1       3.727   3.028  17.603  0.00  0.00    +0.000 C 
ATOM      8  O   UNL     1       4.061   1.870  17.375  0.00  0.00    +0.000 OA
BRANCH   7  10
ATOM      9  C   UNL     1       1.536   4.269  17.500  0.00  0.00    +0.000 C 
ATOM     10  C   UNL     1       2.319   3.341  18.088  0.00  0.00    +0.000 C 
BRANCH  10  11
ATOM     11  C   UNL     1       1.871   2.507  19.277  0.00  0.00    +0.000 C 
BRANCH  11  12
ATOM     12  N   UNL     1       2.340   2.974  20.605  0.00  0.00    +0.000 NA
ATOM     13  C   UNL     1       1.340   2.718  21.649  0.00  0.00    +0.000 C 
ATOM     14  C   UNL     1       3.581   2.279  20.968  0.00  0.00    +0.000 C 
ENDBRANCH  11  12
ENDBRANCH  10  11
ENDBRANCH   7  10
ENDBRANCH   1   7
BRANCH   3  15
ATOM     15  O   UNL     1       7.264   5.101  14.950  0.00  0.00    +0.000 OA
ATOM     16  C   UNL     1       6.777   4.398  13.812  0.00  0.00    +0.000 C 
ENDBRANCH   3  15
BRANCH   4  17
ATOM     17  O   UNL     1       7.644   7.033  16.701  0.00  0.00    +0.000 OA
ATOM     18  C   UNL     1       7.808   8.139  17.576  0.00  0.00    +0.000 C 
ENDBRANCH   4  17
BRANCH   6  19
ATOM     19  O   UNL     1       4.264   5.368  19.610  0.00  0.00    +0.000 OA
ATOM     20  C   UNL     1       3.255   6.367  19.622  0.00  0.00    +0.000 C 
ENDBRANCH   6  19
TORSDOF 7
ENDMDL
MODEL 7
REMARK VINA RESULT:      -6.0      2.569      5.708
REMARK  Name = 
REMARK  12 active torsions:
REMARK  status: ('A' for Active; 'I' for Inactive)
REMARK    1  A    between atoms: C_2  and  C_3
REMARK    2  A    between atoms: C_2  and  C_7
REMARK    3  A    between atoms: C_3  and  N_4
REMARK    4  A    between atoms: N_4  and  C_5
REMARK    5  A    between atoms: N_4  and  C_6
REMARK    6  A    between atoms: C_7  and  C_9
REMARK    7  A    between atoms: C_11  and  O_12
REMARK    8  A    between atoms: O_12  and  C_13
REMARK    9  A    between atoms: C_14  and  O_15
REMARK   10  A    between atoms: O_15  and  C_16
REMARK   11  A    between atoms: C_18  and  O_19
REMARK   12  A    between atoms: O_19  and  C_20
REMARK                            x       y       z     vdW  Elec       q    Type
REMARK                         _______ _______ _______ _____ _____    ______ ____
ROOT
ATOM      1  C   UNL     1       4.827   5.122  18.452  0.00  0.00    +0.000 A 
ATOM      2  C   UNL     1       4.652   3.728  18.381  0.00  0.00    +0.000 A 
ATOM      3  C   UNL     1       3.406   3.150  18.138  0.00  0.00    +0.000 A 
ATOM      4  C   UNL     1       2.278   3.975  18.042  0.00  0.00    +0.000 A 
ATOM      5  C   UNL     1       2.433   5.359  18.180  0.00  0.00    +0.000 A 
ATOM      6  C   UNL     1       3.699   5.949  18.374  0.00  0.00    +0.000 A 
ENDROOT
BRANCH   1   7
ATOM      7  C   UNL     1       6.219   5.581  18.718  0.00  0.00    +0.000 C 
ATOM      8  O   UNL     1       6.703   5.412  19.832  0.00  0.00    +0.000 OA
BRANCH   7  10
ATOM      9  C   UNL     1       7.600   7.391  17.637  0.00  0.00    +0.000 C 
ATOM     10  C   UNL     1       7.064   6.153  17.590  0.00  0.00    +0.000 C 
BRANCH  10  11
ATOM     11  C   UNL     1       7.264   5.205  16.419  0.00  0.00    +0.000 C 
BRANCH  11  12
ATOM     12  N   UNL     1       6.782   5.695  15.103  0.00  0.00    +0.000 NA
ATOM     13  C   UNL     1       7.111   4.754  14.025  0.00  0.00    +0.000 C 
ATOM     14  C   UNL     1       5.326   5.872  15.140  0.00  0.00    +0.000 C 
ENDBRANCH  11  12
ENDBRANCH  10  11
ENDBRANCH   7  10
ENDBRANCH   1   7
BRANCH   3  15
ATOM     15  O   UNL     1       3.218   1.800  17.978  0.00  0.00    +0.000 OA
ATOM     16  C   UNL     1       3.949   0.941  18.848  0.00  0.00    +0.000 C 
ENDBRANCH   3  15
BRANCH   4  17
ATOM     17  O   UNL     1       1.084   3.337  17.825  0.00  0.00    +0.000 OA
ATOM     18  C   UNL     1       0.449   2.727  18.939  0.00  0.00    +0.000 C 
ENDBRANCH   4  17
BRANCH   6  19
ATOM     19  O   UNL     1       3.616   7.307  18.520  0.00  0.00    +0.000 OA
ATOM     20  C   UNL     1       2.511   7.981  17.937  0.00  0.00    +0.000 C 
ENDBRANCH   6  19
TORSDOF 7
ENDMDL
MODEL 8
REMARK VINA RESULT:      -5.9      2.638      5.992
REMARK  Name = 
REMARK  12 active torsions:
REMARK  status: ('A' for Active; 'I' for Inactive)
REMARK    1  A    between atoms: C_2  and  C_3
REMARK    2  A    between atoms: C_2  and  C_7
REMARK    3  A    between atoms: C_3  and  N_4
REMARK    4  A    between atoms: N_4  and  C_5
REMARK    5  A    between atoms: N_4  and  C_6
REMARK    6  A    between atoms: C_7  and  C_9
REMARK    7  A    between atoms: C_11  and  O_12
REMARK    8  A    between atoms: O_12  and  C_13
REMARK    9  A    between atoms: C_14  and  O_15
REMARK   10  A    between atoms: O_15  and  C_16
REMARK   11  A    between atoms: C_18  and  O_19
REMARK   12  A    between atoms: O_19  and  C_20
REMARK                            x       y       z     vdW  Elec       q    Type
REMARK                         _______ _______ _______ _____ _____    ______ ____
ROOT
ATOM      1  C   UNL     1       5.729   5.098  16.345  0.00  0.00    +0.000 A 
ATOM      2  C   UNL     1       4.762   4.127  16.662  0.00  0.00    +0.000 A 
ATOM      3  C   UNL     1       3.593   4.446  17.352  0.00  0.00    +0.000 A 
ATOM      4  C   UNL     1       3.411   5.754  17.818  0.00  0.00    +0.000 A 
ATOM      5  C   UNL     1       4.401   6.711  17.566  0.00  0.00    +0.000 A 
ATOM      6  C   UNL     1       5.559   6.404  16.824  0.00  0.00    +0.000 A 
ENDROOT
BRANCH   1   7
ATOM      7  C   UNL     1       6.921   4.598  15.604  0.00  0.00    +0.000 C 
ATOM      8  O   UNL     1       7.884   4.174  16.234  0.00  0.00    +0.000 OA
BRANCH   7  10
ATOM      9  C   UNL     1       7.694   5.273  13.302  0.00  0.00    +0.000 C 
ATOM     10  C   UNL     1       6.899   4.515  14.085  0.00  0.00    +0.000 C 
BRANCH  10  11
ATOM     11  C   UNL     1       5.917   3.495  13.532  0.00  0.00    +0.000 C 
BRANCH  11  12
ATOM     12  N   UNL     1       5.872   3.380  12.053  0.00  0.00    +0.000 NA
ATOM     13  C   UNL     1       6.533   2.154  11.589  0.00  0.00    +0.000 C 
ATOM     14  C   UNL     1       4.477   3.359  11.597  0.00  0.00    +0.000 C 
ENDBRANCH  11  12
ENDBRANCH  10  11
ENDBRANCH   7  10
ENDBRANCH   1   7
BRANCH   3  15
ATOM     15  O   UNL     1       2.592   3.541  17.601  0.00  0.00    +0.000 OA
ATOM     16  C   UNL     1       2.992   2.232  17.996  0.00  0.00    +0.000 C 
ENDBRANCH   3  15
BRANCH   4  17
ATOM     17  O   UNL     1       2.250   5.991  18.508  0.00  0.00    +0.000 OA
ATOM     18  C   UNL     1       2.346   6.206  19.908  0.00  0.00    +0.000 C 
ENDBRANCH   4  17
BRANCH   6  19
ATOM     19  O   UNL     1       6.408   7.473  16.729  0.00  0.00    +0.000 OA
ATOM     20  C   UNL     1       7.534   7.517  17.592  0.00  0.00    +0.000 C 
ENDBRANCH   6  19
TORSDOF 7
ENDMDL
MODEL 9
REMARK VINA RESULT:      -5.9      1.229      3.310
REMARK  Name = 
REMARK  12 active torsions:
REMARK  status: ('A' for Active; 'I' for Inactive)
REMARK    1  A    between atoms: C_2  and  C_3
REMARK    2  A    between atoms: C_2  and  C_7
REMARK    3  A    between atoms: C_3  and  N_4
REMARK    4  A    between atoms: N_4  and  C_5
REMARK    5  A    between atoms: N_4  and  C_6
REMARK    6  A    between atoms: C_7  and  C_9
REMARK    7  A    between atoms: C_11  and  O_12
REMARK    8  A    between atoms: O_12  and  C_13
REMARK    9  A    between atoms: C_14  and  O_15
REMARK   10  A    between atoms: O_15  and  C_16
REMARK   11  A    between atoms: C_18  and  O_19
REMARK   12  A    between atoms: O_19  and  C_20
REMARK                            x       y       z     vdW  Elec       q    Type
REMARK                         _______ _______ _______ _____ _____    ______ ____
ROOT
ATOM      1  C   UNL     1       4.846   5.167  17.986  0.00  0.00    +0.000 A 
ATOM      2  C   UNL     1       5.951   6.034  17.918  0.00  0.00    +0.000 A 
ATOM      3  C   UNL     1       6.766   6.106  16.787  0.00  0.00    +0.000 A 
ATOM      4  C   UNL     1       6.530   5.232  15.719  0.00  0.00    +0.000 A 
ATOM      5  C   UNL     1       5.474   4.318  15.807  0.00  0.00    +0.000 A 
ATOM      6  C   UNL     1       4.617   4.279  16.926  0.00  0.00    +0.000 A 
ENDROOT
BRANCH   1   7
ATOM      7  C   UNL     1       4.077   5.208  19.260  0.00  0.00    +0.000 C 
ATOM      8  O   UNL     1       4.624   4.864  20.303  0.00  0.00    +0.000 OA
BRANCH   7  10
ATOM      9  C   UNL     1       2.279   6.806  18.508  0.00  0.00    +0.000 C 
ATOM     10  C   UNL     1       2.663   5.771  19.283  0.00  0.00    +0.000 C 
BRANCH  10  11
ATOM     11  C   UNL     1       1.724   5.057  20.241  0.00  0.00    +0.000 C 
BRANCH  11  12
ATOM     12  N   UNL     1       1.792   3.574  20.224  0.00  0.00    +0.000 NA
ATOM     13  C   UNL     1       1.711   3.017  21.580  0.00  0.00    +0.000 C 
ATOM     14  C   UNL     1       0.682   3.033  19.430  0.00  0.00    +0.000 C 
ENDBRANCH  11  12
ENDBRANCH  10  11
ENDBRANCH   7  10
ENDBRANCH   1   7
BRANCH   3  15
ATOM     15  O   UNL     1       7.798   7.001  16.657  0.00  0.00    +0.000 OA
ATOM     16  C   UNL     1       7.837   8.078  17.587  0.00  0.00    +0.000 C 
ENDBRANCH   3  15
BRANCH   4  17
ATOM     17  O   UNL     1       7.383   5.344  14.651  0.00  0.00    +0.000 OA
ATOM     18  C   UNL     1       7.038   4.658  13.456  0.00  0.00    +0.000 C 
ENDBRANCH   4  17
BRANCH   6  19
ATOM     19  O   UNL     1       3.678   3.289  16.821  0.00  0.00    +0.000 OA
ATOM     20  C   UNL     1       3.786   2.164  17.680  0.00  0.00    +0.000 C 
ENDBRANCH   6  19
TORSDOF 7
ENDMDL
