MODEL 1
REMARK VINA RESULT:      -8.2      0.000      0.000
REMARK  Name = 
REMARK  3 active torsions:
REMARK  status: ('A' for Active; 'I' for Inactive)
REMARK    1  A    between atoms: C_2  and  C_3
REMARK    2  A    between atoms: C_3  and  C_4
REMARK    3  A    between atoms: C_4  and  C_5
REMARK                            x       y       z     vdW  Elec       q    Type
REMARK                         _______ _______ _______ _____ _____    ______ ____
ROOT
ATOM      1  O   UNL     1       2.448  10.000  17.362  0.00  0.00    +0.000 OA
ATOM      2  C   UNL     1       2.262   8.999  18.055  0.00  0.00    +0.000 C 
ATOM      3  N   UNL     1       2.881   7.822  17.693  0.00  0.00    +0.000 N 
ATOM      4  C   UNL     1       2.926   6.580  18.284  0.00  0.00    +0.000 A 
ATOM      5  N   UNL     1       2.183   6.229  19.276  0.00  0.00    +0.000 NA
ATOM      6  C   UNL     1       2.313   4.943  19.835  0.00  0.00    +0.000 A 
ATOM      7  C   UNL     1       1.254   4.414  20.572  0.00  0.00    +0.000 A 
ATOM      8  C   UNL     1       1.355   3.150  21.167  0.00  0.00    +0.000 A 
ATOM      9  C   UNL     1       2.537   2.419  21.061  0.00  0.00    +0.000 A 
ATOM     10  C   UNL     1       3.616   2.942  20.356  0.00  0.00    +0.000 A 
ATOM     11  C   UNL     1       3.486   4.188  19.734  0.00  0.00    +0.000 A 
ATOM     12  C   UNL     1       4.585   4.708  18.914  0.00  0.00    +0.000 A 
ATOM     13  O   UNL     1       5.756   4.468  19.166  0.00  0.00    +0.000 OA
ATOM     14  S   UNL     1       4.113   5.601  17.489  0.00  0.00    +0.000 S 
ATOM     15  H   UNL     1       3.468   7.926  16.876  0.00  0.00    +0.000 HD
ENDROOT
BRANCH   2  16
ATOM     16  C   UNL     1       1.428   9.006  19.309  0.00  0.00    +0.000 C 
BRANCH  16  17
ATOM     17  C   UNL     1       0.222   9.935  19.192  0.00  0.00    +0.000 C 
BRANCH  17  18
ATOM     18  C   UNL     1      -0.326  10.241  20.564  0.00  0.00    +0.000 A 
ATOM     19  C   UNL     1      -0.931  11.476  20.831  0.00  0.00    +0.000 A 
ATOM     20  C   UNL     1      -1.358  11.787  22.121  0.00  0.00    +0.000 A 
ATOM     21  C   UNL     1      -1.184  10.871  23.156  0.00  0.00    +0.000 A 
ATOM     22  C   UNL     1      -0.588   9.637  22.900  0.00  0.00    +0.000 A 
ATOM     23  C   UNL     1      -0.160   9.322  21.610  0.00  0.00    +0.000 A 
ENDBRANCH  17  18
ENDBRANCH  16  17
ENDBRANCH   2  16
TORSDOF 3
ENDMDL
MODEL 2
REMARK VINA RESULT:      -8.2      0.110      1.032
REMARK  Name = 
REMARK  3 active torsions:
REMARK  status: ('A' for Active; 'I' for Inactive)
REMARK    1  A    between atoms: C_2  and  C_3
REMARK    2  A    between atoms: C_3  and  C_4
REMARK    3  A    between atoms: C_4  and  C_5
REMARK                            x       y       z     vdW  Elec       q    Type
REMARK                         _______ _______ _______ _____ _____    ______ ____
ROOT
ATOM      1  O   UNL     1       2.392  10.003  17.436  0.00  0.00    +0.000 OA
ATOM      2  C   UNL     1       2.209   8.994  18.118  0.00  0.00    +0.000 C 
ATOM      3  N   UNL     1       2.835   7.824  17.747  0.00  0.00    +0.000 N 
ATOM      4  C   UNL     1       2.883   6.576  18.325  0.00  0.00    +0.000 A 
ATOM      5  N   UNL     1       2.139   6.212  19.311  0.00  0.00    +0.000 NA
ATOM      6  C   UNL     1       2.274   4.920  19.858  0.00  0.00    +0.000 A 
ATOM      7  C   UNL     1       1.214   4.380  20.586  0.00  0.00    +0.000 A 
ATOM      8  C   UNL     1       1.319   3.110  21.169  0.00  0.00    +0.000 A 
ATOM      9  C   UNL     1       2.505   2.385  21.059  0.00  0.00    +0.000 A 
ATOM     10  C   UNL     1       3.584   2.921  20.362  0.00  0.00    +0.000 A 
ATOM     11  C   UNL     1       3.450   4.172  19.752  0.00  0.00    +0.000 A 
ATOM     12  C   UNL     1       4.548   4.706  18.941  0.00  0.00    +0.000 A 
ATOM     13  O   UNL     1       5.720   4.468  19.194  0.00  0.00    +0.000 OA
ATOM     14  S   UNL     1       4.077   5.610  17.523  0.00  0.00    +0.000 S 
ATOM     15  H   UNL     1       3.424   7.939  16.932  0.00  0.00    +0.000 HD
ENDROOT
BRANCH   2  16
ATOM     16  C   UNL     1       1.371   8.984  19.369  0.00  0.00    +0.000 C 
BRANCH  16  17
ATOM     17  C   UNL     1       0.161   9.909  19.259  0.00  0.00    +0.000 C 
BRANCH  17  18
ATOM     18  C   UNL     1      -0.296  10.326  20.634  0.00  0.00    +0.000 A 
ATOM     19  C   UNL     1      -0.078   9.494  21.740  0.00  0.00    +0.000 A 
ATOM     20  C   UNL     1      -0.578   9.843  22.994  0.00  0.00    +0.000 A 
ATOM     21  C   UNL     1      -1.302  11.023  23.154  0.00  0.00    +0.000 A 
ATOM     22  C   UNL     1      -1.520  11.860  22.062  0.00  0.00    +0.000 A 
ATOM     23  C   UNL     1      -1.021  11.514  20.806  0.00  0.00    +0.000 A 
ENDBRANCH  17  18
ENDBRANCH  16  17
ENDBRANCH   2  16
TORSDOF 3
ENDMDL
MODEL 3
REMARK VINA RESULT:      -8.1      5.018      8.862
REMARK  Name = 
REMARK  3 active torsions:
REMARK  status: ('A' for Active; 'I' for Inactive)
REMARK    1  A    between atoms: C_2  and  C_3
REMARK    2  A    between atoms: C_3  and  C_4
REMARK    3  A    between atoms: C_4  and  C_5
REMARK                            x       y       z     vdW  Elec       q    Type
REMARK                         _______ _______ _______ _____ _____    ______ ____
ROOT
ATOM      1  O   UNL     1       7.467   5.351  15.064  0.00  0.00    +0.000 OA
ATOM      2  C   UNL     1       6.440   4.847  15.521  0.00  0.00    +0.000 C 
ATOM      3  N   UNL     1       6.138   5.056  16.849  0.00  0.00    +0.000 N 
ATOM      4  C   UNL     1       5.057   4.693  17.621  0.00  0.00    +0.000 A 
ATOM      5  N   UNL     1       4.143   3.871  17.236  0.00  0.00    +0.000 NA
ATOM      6  C   UNL     1       3.058   3.576  18.083  0.00  0.00    +0.000 A 
ATOM      7  C   UNL     1       2.339   2.398  17.878  0.00  0.00    +0.000 A 
ATOM      8  C   UNL     1       1.236   2.082  18.681  0.00  0.00    +0.000 A 
ATOM      9  C   UNL     1       0.819   2.966  19.676  0.00  0.00    +0.000 A 
ATOM     10  C   UNL     1       1.504   4.159  19.877  0.00  0.00    +0.000 A 
ATOM     11  C   UNL     1       2.627   4.443  19.092  0.00  0.00    +0.000 A 
ATOM     12  C   UNL     1       3.409   5.655  19.355  0.00  0.00    +0.000 A 
ATOM     13  O   UNL     1       2.896   6.684  19.768  0.00  0.00    +0.000 OA
ATOM     14  S   UNL     1       5.137   5.505  19.149  0.00  0.00    +0.000 S 
ATOM     15  H   UNL     1       6.813   5.649  17.314  0.00  0.00    +0.000 HD
ENDROOT
BRANCH   2  16
ATOM     16  C   UNL     1       5.468   4.054  14.688  0.00  0.00    +0.000 C 
BRANCH  16  17
ATOM     17  C   UNL     1       5.432   4.530  13.238  0.00  0.00    +0.000 C 
BRANCH  17  18
ATOM     18  C   UNL     1       5.931   3.437  12.325  0.00  0.00    +0.000 A 
ATOM     19  C   UNL     1       5.056   2.456  11.843  0.00  0.00    +0.000 A 
ATOM     20  C   UNL     1       5.537   1.399  11.070  0.00  0.00    +0.000 A 
ATOM     21  C   UNL     1       6.896   1.312  10.775  0.00  0.00    +0.000 A 
ATOM     22  C   UNL     1       7.775   2.286  11.245  0.00  0.00    +0.000 A 
ATOM     23  C   UNL     1       7.296   3.344  12.018  0.00  0.00    +0.000 A 
ENDBRANCH  17  18
ENDBRANCH  16  17
ENDBRANCH   2  16
TORSDOF 3
ENDMDL
MODEL 4
REMARK VINA RESULT:      -8.0      4.971      8.830
REMARK  Name = 
REMARK  3 active torsions:
REMARK  status: ('A' for Active; 'I' for Inactive)
REMARK    1  A    between atoms: C_2  and  C_3
REMARK    2  A    between atoms: C_3  and  C_4
REMARK    3  A    between atoms: C_4  and  C_5
REMARK                            x       y       z     vdW  Elec       q    Type
REMARK                         _______ _______ _______ _____ _____    ______ ____
ROOT
ATOM      1  O   UNL     1       7.528   5.488  15.291  0.00  0.00    +0.000 OA
ATOM      2  C   UNL     1       6.496   4.956  15.705  0.00  0.00    +0.000 C 
ATOM      3  N   UNL     1       6.121   5.175  17.012  0.00  0.00    +0.000 N 
ATOM      4  C   UNL     1       5.016   4.788  17.736  0.00  0.00    +0.000 A 
ATOM      5  N   UNL     1       4.150   3.929  17.321  0.00  0.00    +0.000 NA
ATOM      6  C   UNL     1       3.034   3.610  18.118  0.00  0.00    +0.000 A 
ATOM      7  C   UNL     1       2.367   2.405  17.898  0.00  0.00    +0.000 A 
ATOM      8  C   UNL     1       1.236   2.065  18.651  0.00  0.00    +0.000 A 
ATOM      9  C   UNL     1       0.740   2.949  19.609  0.00  0.00    +0.000 A 
ATOM     10  C   UNL     1       1.374   4.168  19.822  0.00  0.00    +0.000 A 
ATOM     11  C   UNL     1       2.525   4.477  19.089  0.00  0.00    +0.000 A 
ATOM     12  C   UNL     1       3.252   5.720  19.369  0.00  0.00    +0.000 A 
ATOM     13  O   UNL     1       2.684   6.737  19.738  0.00  0.00    +0.000 OA
ATOM     14  S   UNL     1       4.991   5.626  19.251  0.00  0.00    +0.000 S 
ATOM     15  H   UNL     1       6.751   5.799  17.500  0.00  0.00    +0.000 HD
ENDROOT
BRANCH   2  16
ATOM     16  C   UNL     1       5.595   4.117  14.838  0.00  0.00    +0.000 C 
BRANCH  16  17
ATOM     17  C   UNL     1       5.608   4.574  13.382  0.00  0.00    +0.000 C 
BRANCH  17  18
ATOM     18  C   UNL     1       6.049   3.440  12.490  0.00  0.00    +0.000 A 
ATOM     19  C   UNL     1       7.372   3.361  12.039  0.00  0.00    +0.000 A 
ATOM     20  C   UNL     1       7.754   2.361  11.145  0.00  0.00    +0.000 A 
ATOM     21  C   UNL     1       6.819   1.433  10.694  0.00  0.00    +0.000 A 
ATOM     22  C   UNL     1       5.501   1.499  11.141  0.00  0.00    +0.000 A 
ATOM     23  C   UNL     1       5.115   2.498  12.035  0.00  0.00    +0.000 A 
ENDBRANCH  17  18
ENDBRANCH  16  17
ENDBRANCH   2  16
TORSDOF 3
ENDMDL
MODEL 5
REMARK VINA RESULT:      -7.9      2.490      3.863
REMARK  Name = 
REMARK  3 active torsions:
REMARK  status: ('A' for Active; 'I' for Inactive)
REMARK    1  A    between atoms: C_2  and  C_3
REMARK    2  A    between atoms: C_3  and  C_4
REMARK    3  A    between atoms: C_4  and  C_5
REMARK                            x       y       z     vdW  Elec       q    Type
REMARK                         _______ _______ _______ _____ _____    ______ ____
ROOT
ATOM      1  O   UNL     1       0.351   8.844  21.725  0.00  0.00    +0.000 OA
ATOM      2  C   UNL     1       1.043   8.468  20.778  0.00  0.00    +0.000 C 
ATOM      3  N   UNL     1       1.589   7.204  20.820  0.00  0.00    +0.000 N 
ATOM      4  C   UNL     1       2.333   6.485  19.912  0.00  0.00    +0.000 A 
ATOM      5  N   UNL     1       2.837   6.988  18.838  0.00  0.00    +0.000 NA
ATOM      6  C   UNL     1       3.565   6.172  17.951  0.00  0.00    +0.000 A 
ATOM      7  C   UNL     1       4.462   6.768  17.064  0.00  0.00    +0.000 A 
ATOM      8  C   UNL     1       5.183   5.993  16.147  0.00  0.00    +0.000 A 
ATOM      9  C   UNL     1       4.984   4.614  16.085  0.00  0.00    +0.000 A 
ATOM     10  C   UNL     1       4.072   4.006  16.941  0.00  0.00    +0.000 A 
ATOM     11  C   UNL     1       3.387   4.787  17.877  0.00  0.00    +0.000 A 
ATOM     12  C   UNL     1       2.491   4.144  18.843  0.00  0.00    +0.000 A 
ATOM     13  O   UNL     1       1.857   3.135  18.572  0.00  0.00    +0.000 OA
ATOM     14  S   UNL     1       2.470   4.843  20.444  0.00  0.00    +0.000 S 
ATOM     15  H   UNL     1       1.325   6.693  21.653  0.00  0.00    +0.000 HD
ENDROOT
BRANCH   2  16
ATOM     16  C   UNL     1       1.284   9.305  19.548  0.00  0.00    +0.000 C 
BRANCH  16  17
ATOM     17  C   UNL     1       0.666  10.695  19.669  0.00  0.00    +0.000 C 
BRANCH  17  18
ATOM     18  C   UNL     1      -0.616  10.760  18.877  0.00  0.00    +0.000 A 
ATOM     19  C   UNL     1      -1.674  11.575  19.298  0.00  0.00    +0.000 A 
ATOM     20  C   UNL     1      -2.888  11.566  18.611  0.00  0.00    +0.000 A 
ATOM     21  C   UNL     1      -3.057  10.741  17.502  0.00  0.00    +0.000 A 
ATOM     22  C   UNL     1      -2.009   9.930  17.071  0.00  0.00    +0.000 A 
ATOM     23  C   UNL     1      -0.793   9.937  17.756  0.00  0.00    +0.000 A 
ENDBRANCH  17  18
ENDBRANCH  16  17
ENDBRANCH   2  16
TORSDOF 3
ENDMDL
MODEL 6
REMARK VINA RESULT:      -7.9      2.462      3.938
REMARK  Name = 
REMARK  3 active torsions:
REMARK  status: ('A' for Active; 'I' for Inactive)
REMARK    1  A    between atoms: C_2  and  C_3
REMARK    2  A    between atoms: C_3  and  C_4
REMARK    3  A    between atoms: C_4  and  C_5
REMARK                            x       y       z     vdW  Elec       q    Type
REMARK                         _______ _______ _______ _____ _____    ______ ____
ROOT
ATOM      1  O   UNL     1       0.528   8.522  21.709  0.00  0.00    +0.000 OA
ATOM      2  C   UNL     1       1.210   8.200  20.735  0.00  0.00    +0.000 C 
ATOM      3  N   UNL     1       1.801   6.956  20.725  0.00  0.00    +0.000 N 
ATOM      4  C   UNL     1       2.547   6.292  19.778  0.00  0.00    +0.000 A 
ATOM      5  N   UNL     1       3.007   6.845  18.709  0.00  0.00    +0.000 NA
ATOM      6  C   UNL     1       3.741   6.083  17.780  0.00  0.00    +0.000 A 
ATOM      7  C   UNL     1       4.595   6.737  16.892  0.00  0.00    +0.000 A 
ATOM      8  C   UNL     1       5.321   6.016  15.935  0.00  0.00    +0.000 A 
ATOM      9  C   UNL     1       5.169   4.634  15.834  0.00  0.00    +0.000 A 
ATOM     10  C   UNL     1       4.299   3.967  16.692  0.00  0.00    +0.000 A 
ATOM     11  C   UNL     1       3.611   4.695  17.668  0.00  0.00    +0.000 A 
ATOM     12  C   UNL     1       2.762   3.991  18.634  0.00  0.00    +0.000 A 
ATOM     13  O   UNL     1       2.157   2.969  18.345  0.00  0.00    +0.000 OA
ATOM     14  S   UNL     1       2.755   4.640  20.255  0.00  0.00    +0.000 S 
ATOM     15  H   UNL     1       1.575   6.411  21.547  0.00  0.00    +0.000 HD
ENDROOT
BRANCH   2  16
ATOM     16  C   UNL     1       1.391   9.082  19.527  0.00  0.00    +0.000 C 
BRANCH  16  17
ATOM     17  C   UNL     1       0.805  10.475  19.739  0.00  0.00    +0.000 C 
BRANCH  17  18
ATOM     18  C   UNL     1      -0.510  10.597  19.011  0.00  0.00    +0.000 A 
ATOM     19  C   UNL     1      -0.748   9.863  17.842  0.00  0.00    +0.000 A 
ATOM     20  C   UNL     1      -1.930  10.043  17.124  0.00  0.00    +0.000 A 
ATOM     21  C   UNL     1      -2.883  10.958  17.565  0.00  0.00    +0.000 A 
ATOM     22  C   UNL     1      -2.659  11.690  18.730  0.00  0.00    +0.000 A 
ATOM     23  C   UNL     1      -1.477  11.512  19.450  0.00  0.00    +0.000 A 
ENDBRANCH  17  18
ENDBRANCH  16  17
ENDBRANCH   2  16
TORSDOF 3
ENDMDL
MODEL 7
REMARK VINA RESULT:      -7.7      1.402      2.225
REMARK  Name = 
REMARK  3 active torsions:
REMARK  status: ('A' for Active; 'I' for Inactive)
REMARK    1  A    between atoms: C_2  and  C_3
REMARK    2  A    between atoms: C_3  and  C_4
REMARK    3  A    between atoms: C_4  and  C_5
REMARK                            x       y       z     vdW  Elec       q    Type
REMARK                         _______ _______ _______ _____ _____    ______ ____
ROOT
ATOM      1  O   UNL     1       2.384  10.213  17.488  0.00  0.00    +0.000 OA
ATOM      2  C   UNL     1       2.176   9.181  18.126  0.00  0.00    +0.000 C 
ATOM      3  N   UNL     1       2.880   8.045  17.792  0.00  0.00    +0.000 N 
ATOM      4  C   UNL     1       2.922   6.785  18.344  0.00  0.00    +0.000 A 
ATOM      5  N   UNL     1       2.101   6.368  19.245  0.00  0.00    +0.000 NA
ATOM      6  C   UNL     1       2.233   5.069  19.773  0.00  0.00    +0.000 A 
ATOM      7  C   UNL     1       1.130   4.470  20.382  0.00  0.00    +0.000 A 
ATOM      8  C   UNL     1       1.229   3.191  20.944  0.00  0.00    +0.000 A 
ATOM      9  C   UNL     1       2.448   2.514  20.934  0.00  0.00    +0.000 A 
ATOM     10  C   UNL     1       3.567   3.106  20.358  0.00  0.00    +0.000 A 
ATOM     11  C   UNL     1       3.443   4.368  19.767  0.00  0.00    +0.000 A 
ATOM     12  C   UNL     1       4.593   4.963  19.078  0.00  0.00    +0.000 A 
ATOM     13  O   UNL     1       5.743   4.762  19.439  0.00  0.00    +0.000 OA
ATOM     14  S   UNL     1       4.225   5.886  17.642  0.00  0.00    +0.000 S 
ATOM     15  H   UNL     1       3.540   8.202  17.042  0.00  0.00    +0.000 HD
ENDROOT
BRANCH   2  16
ATOM     16  C   UNL     1       1.222   9.108  19.290  0.00  0.00    +0.000 C 
BRANCH  16  17
ATOM     17  C   UNL     1       0.675  10.481  19.671  0.00  0.00    +0.000 C 
BRANCH  17  18
ATOM     18  C   UNL     1      -0.701  10.669  19.081  0.00  0.00    +0.000 A 
ATOM     19  C   UNL     1      -1.080   9.976  17.924  0.00  0.00    +0.000 A 
ATOM     20  C   UNL     1      -2.320  10.218  17.332  0.00  0.00    +0.000 A 
ATOM     21  C   UNL     1      -3.189  11.155  17.888  0.00  0.00    +0.000 A 
ATOM     22  C   UNL     1      -2.823  11.845  19.042  0.00  0.00    +0.000 A 
ATOM     23  C   UNL     1      -1.584  11.605  19.636  0.00  0.00    +0.000 A 
ENDBRANCH  17  18
ENDBRANCH  16  17
ENDBRANCH   2  16
TORSDOF 3
ENDMDL
MODEL 8
REMARK VINA RESULT:      -7.7      1.366      1.987
REMARK  Name = 
REMARK  3 active torsions:
REMARK  status: ('A' for Active; 'I' for Inactive)
REMARK    1  A    between atoms: C_2  and  C_3
REMARK    2  A    between atoms: C_3  and  C_4
REMARK    3  A    between atoms: C_4  and  C_5
REMARK                            x       y       z     vdW  Elec       q    Type
REMARK                         _______ _______ _______ _____ _____    ______ ____
ROOT
ATOM      1  O   UNL     1       2.357  10.111  17.394  0.00  0.00    +0.000 OA
ATOM      2  C   UNL     1       2.161   9.092  18.058  0.00  0.00    +0.000 C 
ATOM      3  N   UNL     1       2.862   7.950  17.737  0.00  0.00    +0.000 N 
ATOM      4  C   UNL     1       2.916   6.702  18.315  0.00  0.00    +0.000 A 
ATOM      5  N   UNL     1       2.111   6.303  19.238  0.00  0.00    +0.000 NA
ATOM      6  C   UNL     1       2.255   5.016  19.791  0.00  0.00    +0.000 A 
ATOM      7  C   UNL     1       1.163   4.429  20.432  0.00  0.00    +0.000 A 
ATOM      8  C   UNL     1       1.274   3.162  21.019  0.00  0.00    +0.000 A 
ATOM      9  C   UNL     1       2.494   2.487  21.003  0.00  0.00    +0.000 A 
ATOM     10  C   UNL     1       3.602   3.069  20.396  0.00  0.00    +0.000 A 
ATOM     11  C   UNL     1       3.466   4.317  19.780  0.00  0.00    +0.000 A 
ATOM     12  C   UNL     1       4.603   4.899  19.059  0.00  0.00    +0.000 A 
ATOM     13  O   UNL     1       5.759   4.709  19.406  0.00  0.00    +0.000 OA
ATOM     14  S   UNL     1       4.209   5.791  17.610  0.00  0.00    +0.000 S 
ATOM     15  H   UNL     1       3.509   8.093  16.972  0.00  0.00    +0.000 HD
ENDROOT
BRANCH   2  16
ATOM     16  C   UNL     1       1.226   9.042  19.239  0.00  0.00    +0.000 C 
BRANCH  16  17
ATOM     17  C   UNL     1       0.831  10.436  19.718  0.00  0.00    +0.000 C 
BRANCH  17  18
ATOM     18  C   UNL     1      -0.530  10.799  19.177  0.00  0.00    +0.000 A 
ATOM     19  C   UNL     1      -1.295  11.800  19.789  0.00  0.00    +0.000 A 
ATOM     20  C   UNL     1      -2.588  12.073  19.340  0.00  0.00    +0.000 A 
ATOM     21  C   UNL     1      -3.126  11.348  18.280  0.00  0.00    +0.000 A 
ATOM     22  C   UNL     1      -2.371  10.353  17.661  0.00  0.00    +0.000 A 
ATOM     23  C   UNL     1      -1.078  10.078  18.108  0.00  0.00    +0.000 A 
ENDBRANCH  17  18
ENDBRANCH  16  17
ENDBRANCH   2  16
TORSDOF 3
ENDMDL
MODEL 9
REMARK VINA RESULT:      -7.7      2.536      3.990
REMARK  Name = 
REMARK  3 active torsions:
REMARK  status: ('A' for Active; 'I' for Inactive)
REMARK    1  A    between atoms: C_2  and  C_3
REMARK    2  A    between atoms: C_3  and  C_4
REMARK    3  A    between atoms: C_4  and  C_5
REMARK                            x       y       z     vdW  Elec       q    Type
REMARK                         _______ _______ _______ _____ _____    ______ ____
ROOT
ATOM      1  O   UNL     1       1.155   8.246  20.870  0.00  0.00    +0.000 OA
ATOM      2  C   UNL     1       1.807   7.886  19.889  0.00  0.00    +0.000 C 
ATOM      3  N   UNL     1       2.554   6.732  19.982  0.00  0.00    +0.000 N 
ATOM      4  C   UNL     1       3.317   6.046  19.064  0.00  0.00    +0.000 A 
ATOM      5  N   UNL     1       3.630   6.507  17.902  0.00  0.00    +0.000 NA
ATOM      6  C   UNL     1       4.395   5.726  17.015  0.00  0.00    +0.000 A 
ATOM      7  C   UNL     1       5.095   6.358  15.987  0.00  0.00    +0.000 A 
ATOM      8  C   UNL     1       5.845   5.613  15.068  0.00  0.00    +0.000 A 
ATOM      9  C   UNL     1       5.869   4.221  15.148  0.00  0.00    +0.000 A 
ATOM     10  C   UNL     1       5.153   3.571  16.148  0.00  0.00    +0.000 A 
ATOM     11  C   UNL     1       4.440   4.330  17.082  0.00  0.00    +0.000 A 
ATOM     12  C   UNL     1       3.756   3.660  18.192  0.00  0.00    +0.000 A 
ATOM     13  O   UNL     1       3.273   2.543  18.080  0.00  0.00    +0.000 OA
ATOM     14  S   UNL     1       3.771   4.508  19.718  0.00  0.00    +0.000 S 
ATOM     15  H   UNL     1       2.456   6.275  20.879  0.00  0.00    +0.000 HD
ENDROOT
BRANCH   2  16
ATOM     16  C   UNL     1       1.791   8.618  18.573  0.00  0.00    +0.000 C 
BRANCH  16  17
ATOM     17  C   UNL     1       1.490  10.104  18.746  0.00  0.00    +0.000 C 
BRANCH  17  18
ATOM     18  C   UNL     1       0.012  10.353  18.575  0.00  0.00    +0.000 A 
ATOM     19  C   UNL     1      -0.710   9.693  17.573  0.00  0.00    +0.000 A 
ATOM     20  C   UNL     1      -2.057   9.990  17.362  0.00  0.00    +0.000 A 
ATOM     21  C   UNL     1      -2.692  10.949  18.147  0.00  0.00    +0.000 A 
ATOM     22  C   UNL     1      -1.984  11.608  19.150  0.00  0.00    +0.000 A 
ATOM     23  C   UNL     1      -0.637  11.313  19.364  0.00  0.00    +0.000 A 
ENDBRANCH  17  18
ENDBRANCH  16  17
ENDBRANCH   2  16
TORSDOF 3
ENDMDL
