MODEL 1
REMARK VINA RESULT:      -7.5      0.000      0.000
REMARK  Name = 
REMARK  10 active torsions:
REMARK  status: ('A' for Active; 'I' for Inactive)
REMARK    1  A    between atoms: C_1  and  O_2
REMARK    2  A    between atoms: O_2  and  C_3
REMARK    3  A    between atoms: C_3  and  C_5
REMARK    4  A    between atoms: C_7  and  O_8
REMARK    5  A    between atoms: O_8  and  C_9
REMARK    6  A    between atoms: C_9  and  C_10
REMARK    7  A    between atoms: C_15  and  C_16
REMARK    8  A    between atoms: C_23  and  C_24
REMARK    9  A    between atoms: C_24  and  O_26
REMARK   10  A    between atoms: C_28  and  C_29
REMARK                            x       y       z     vdW  Elec       q    Type
REMARK                         _______ _______ _______ _____ _____    ______ ____
ROOT
ATOM      1  C   UNL     1       2.088   4.433  19.800  0.00  0.00    +0.000 C 
ATOM      2  C   UNL     1       1.183   5.647  20.128  0.00  0.00    +0.000 C 
ATOM      3  C   UNL     1       1.957   6.966  20.203  0.00  0.00    +0.000 C 
ATOM      4  C   UNL     1       2.775   7.120  18.915  0.00  0.00    +0.000 C 
ATOM      5  O   UNL     1       2.695   8.110  18.192  0.00  0.00    +0.000 OA
ATOM      6  C   UNL     1       3.733   5.952  18.622  0.00  0.00    +0.000 C 
ATOM      7  C   UNL     1       2.906   4.630  18.462  0.00  0.00    +0.000 C 
ATOM      8  C   UNL     1       1.913   4.663  17.277  0.00  0.00    +0.000 C 
ATOM      9  C   UNL     1       3.901   3.452  18.251  0.00  0.00    +0.000 C 
ATOM     10  C   UNL     1       4.972   3.714  17.182  0.00  0.00    +0.000 C 
ATOM     11  C   UNL     1       5.778   4.980  17.503  0.00  0.00    +0.000 C 
ATOM     12  C   UNL     1       6.963   5.185  16.574  0.00  0.00    +0.000 C 
ATOM     13  O   UNL     1       7.392   4.311  15.830  0.00  0.00    +0.000 OA
ATOM     14  O   UNL     1       7.625   6.364  16.693  0.00  0.00    +0.000 OA
ATOM     15  C   UNL     1       7.039   7.564  17.246  0.00  0.00    +0.000 C 
ATOM     16  C   UNL     1       5.807   7.337  18.121  0.00  0.00    +0.000 C 
ATOM     17  C   UNL     1       4.876   6.231  17.576  0.00  0.00    +0.000 C 
ATOM     18  C   UNL     1       4.373   6.635  16.169  0.00  0.00    +0.000 C 
ENDROOT
BRANCH   1  19
ATOM     19  C   UNL     1       1.324   3.109  19.849  0.00  0.00    +0.000 C 
ATOM     20  O   UNL     1       0.267   2.925  19.264  0.00  0.00    +0.000 OA
BRANCH  19  22
ATOM     21  C   UNL     1       2.495   2.753  21.849  0.00  0.00    +0.000 C 
ATOM     22  O   UNL     1       1.928   2.198  20.661  0.00  0.00    +0.000 OA
ENDBRANCH  19  22
ENDBRANCH   1  19
BRANCH  15  23
ATOM     23  C   UNL     1       8.127   8.305  18.027  0.00  0.00    +0.000 C 
ATOM     24  O   UNL     1       8.491   9.448  17.792  0.00  0.00    +0.000 OA
BRANCH  23  25
ATOM     25  O   UNL     1       8.694   7.552  19.001  0.00  0.00    +0.000 OA
ATOM     26  H   UNL     1       8.327   7.769  19.885  0.00  0.00    +0.000 HD
ENDBRANCH  23  25
ENDBRANCH  15  23
BRANCH   3  27
ATOM     27  O   UNL     1       1.052   8.073  20.360  0.00  0.00    +0.000 OA
BRANCH  27  28
ATOM     28  C   UNL     1       0.974   8.593  21.614  0.00  0.00    +0.000 C 
ATOM     29  C   UNL     1      -0.441   8.758  22.083  0.00  0.00    +0.000 C 
ATOM     30  O   UNL     1       1.944   8.889  22.300  0.00  0.00    +0.000 OA
ENDBRANCH  27  28
ENDBRANCH   3  27
TORSDOF 6
ENDMDL
MODEL 2
REMARK VINA RESULT:      -6.9      2.124      6.561
REMARK  Name = 
REMARK  10 active torsions:
REMARK  status: ('A' for Active; 'I' for Inactive)
REMARK    1  A    between atoms: C_1  and  O_2
REMARK    2  A    between atoms: O_2  and  C_3
REMARK    3  A    between atoms: C_3  and  C_5
REMARK    4  A    between atoms: C_7  and  O_8
REMARK    5  A    between atoms: O_8  and  C_9
REMARK    6  A    between atoms: C_9  and  C_10
REMARK    7  A    between atoms: C_15  and  C_16
REMARK    8  A    between atoms: C_23  and  C_24
REMARK    9  A    between atoms: C_24  and  O_26
REMARK   10  A    between atoms: C_28  and  C_29
REMARK                            x       y       z     vdW  Elec       q    Type
REMARK                         _______ _______ _______ _____ _____    ______ ____
ROOT
ATOM      1  C   UNL     1       3.271   7.309  18.142  0.00  0.00    +0.000 C 
ATOM      2  C   UNL     1       3.951   7.116  16.763  0.00  0.00    +0.000 C 
ATOM      3  C   UNL     1       4.918   5.928  16.734  0.00  0.00    +0.000 C 
ATOM      4  C   UNL     1       4.176   4.689  17.250  0.00  0.00    +0.000 C 
ATOM      5  O   UNL     1       4.104   3.644  16.608  0.00  0.00    +0.000 OA
ATOM      6  C   UNL     1       3.563   4.847  18.652  0.00  0.00    +0.000 C 
ATOM      7  C   UNL     1       2.512   6.011  18.631  0.00  0.00    +0.000 C 
ATOM      8  C   UNL     1       1.320   5.749  17.681  0.00  0.00    +0.000 C 
ATOM      9  C   UNL     1       1.969   6.207  20.076  0.00  0.00    +0.000 C 
ATOM     10  C   UNL     1       1.526   4.908  20.766  0.00  0.00    +0.000 C 
ATOM     11  C   UNL     1       2.670   3.886  20.811  0.00  0.00    +0.000 C 
ATOM     12  C   UNL     1       2.339   2.655  21.637  0.00  0.00    +0.000 C 
ATOM     13  O   UNL     1       1.384   2.597  22.402  0.00  0.00    +0.000 OA
ATOM     14  O   UNL     1       3.237   1.638  21.591  0.00  0.00    +0.000 OA
ATOM     15  C   UNL     1       4.173   1.440  20.506  0.00  0.00    +0.000 C 
ATOM     16  C   UNL     1       4.437   2.675  19.648  0.00  0.00    +0.000 C 
ATOM     17  C   UNL     1       3.165   3.518  19.396  0.00  0.00    +0.000 C 
ATOM     18  C   UNL     1       2.120   2.653  18.650  0.00  0.00    +0.000 C 
ENDROOT
BRANCH   1  19
ATOM     19  C   UNL     1       2.404   8.567  18.191  0.00  0.00    +0.000 C 
ATOM     20  O   UNL     1       2.227   9.295  17.227  0.00  0.00    +0.000 OA
BRANCH  19  22
ATOM     21  C   UNL     1       0.919   9.827  19.498  0.00  0.00    +0.000 C 
ATOM     22  O   UNL     1       1.913   8.802  19.439  0.00  0.00    +0.000 OA
ENDBRANCH  19  22
ENDBRANCH   1  19
BRANCH  15  23
ATOM     23  C   UNL     1       5.479   0.906  21.101  0.00  0.00    +0.000 C 
ATOM     24  O   UNL     1       6.019   1.357  22.101  0.00  0.00    +0.000 OA
BRANCH  23  25
ATOM     25  O   UNL     1       6.019  -0.109  20.383  0.00  0.00    +0.000 OA
ATOM     26  H   UNL     1       6.895  -0.375  20.736  0.00  0.00    +0.000 HD
ENDBRANCH  23  25
ENDBRANCH  15  23
BRANCH   3  27
ATOM     27  O   UNL     1       5.403   5.706  15.399  0.00  0.00    +0.000 OA
BRANCH  27  28
ATOM     28  C   UNL     1       6.598   5.064  15.308  0.00  0.00    +0.000 C 
ATOM     29  C   UNL     1       6.681   4.166  14.110  0.00  0.00    +0.000 C 
ATOM     30  O   UNL     1       7.517   5.202  16.105  0.00  0.00    +0.000 OA
ENDBRANCH  27  28
ENDBRANCH   3  27
TORSDOF 6
ENDMDL
MODEL 3
REMARK VINA RESULT:      -6.1      2.369      5.272
REMARK  Name = 
REMARK  10 active torsions:
REMARK  status: ('A' for Active; 'I' for Inactive)
REMARK    1  A    between atoms: C_1  and  O_2
REMARK    2  A    between atoms: O_2  and  C_3
REMARK    3  A    between atoms: C_3  and  C_5
REMARK    4  A    between atoms: C_7  and  O_8
REMARK    5  A    between atoms: O_8  and  C_9
REMARK    6  A    between atoms: C_9  and  C_10
REMARK    7  A    between atoms: C_15  and  C_16
REMARK    8  A    between atoms: C_23  and  C_24
REMARK    9  A    between atoms: C_24  and  O_26
REMARK   10  A    between atoms: C_28  and  C_29
REMARK                            x       y       z     vdW  Elec       q    Type
REMARK                         _______ _______ _______ _____ _____    ______ ____
ROOT
ATOM      1  C   UNL     1       2.646   6.257  18.027  0.00  0.00    +0.000 C 
ATOM      2  C   UNL     1       1.845   5.036  18.545  0.00  0.00    +0.000 C 
ATOM      3  C   UNL     1       1.832   3.865  17.558  0.00  0.00    +0.000 C 
ATOM      4  C   UNL     1       3.281   3.549  17.167  0.00  0.00    +0.000 C 
ATOM      5  O   UNL     1       3.769   2.427  17.284  0.00  0.00    +0.000 OA
ATOM      6  C   UNL     1       4.061   4.737  16.579  0.00  0.00    +0.000 C 
ATOM      7  C   UNL     1       4.134   5.887  17.644  0.00  0.00    +0.000 C 
ATOM      8  C   UNL     1       4.890   5.487  18.932  0.00  0.00    +0.000 C 
ATOM      9  C   UNL     1       4.853   7.107  16.998  0.00  0.00    +0.000 C 
ATOM     10  C   UNL     1       6.167   6.762  16.284  0.00  0.00    +0.000 C 
ATOM     11  C   UNL     1       5.946   5.698  15.199  0.00  0.00    +0.000 C 
ATOM     12  C   UNL     1       7.178   5.450  14.346  0.00  0.00    +0.000 C 
ATOM     13  O   UNL     1       8.151   6.196  14.338  0.00  0.00    +0.000 OA
ATOM     14  O   UNL     1       7.110   4.412  13.475  0.00  0.00    +0.000 OA
ATOM     15  C   UNL     1       6.210   3.290  13.629  0.00  0.00    +0.000 C 
ATOM     16  C   UNL     1       5.015   3.542  14.546  0.00  0.00    +0.000 C 
ATOM     17  C   UNL     1       5.376   4.389  15.788  0.00  0.00    +0.000 C 
ATOM     18  C   UNL     1       6.447   3.643  16.620  0.00  0.00    +0.000 C 
ENDROOT
BRANCH   1  19
ATOM     19  C   UNL     1       2.547   7.457  18.968  0.00  0.00    +0.000 C 
ATOM     20  O   UNL     1       2.345   7.353  20.168  0.00  0.00    +0.000 OA
BRANCH  19  22
ATOM     21  C   UNL     1       1.401   9.284  18.045  0.00  0.00    +0.000 C 
ATOM     22  O   UNL     1       2.651   8.640  18.301  0.00  0.00    +0.000 OA
ENDBRANCH  19  22
ENDBRANCH   1  19
BRANCH  15  23
ATOM     23  C   UNL     1       5.740   2.867  12.235  0.00  0.00    +0.000 C 
ATOM     24  O   UNL     1       4.680   3.205  11.729  0.00  0.00    +0.000 OA
BRANCH  23  25
ATOM     25  O   UNL     1       6.605   2.031  11.609  0.00  0.00    +0.000 OA
ATOM     26  H   UNL     1       6.950   2.423  10.779  0.00  0.00    +0.000 HD
ENDBRANCH  23  25
ENDBRANCH  15  23
BRANCH   3  27
ATOM     27  O   UNL     1       1.206   2.714  18.149  0.00  0.00    +0.000 OA
BRANCH  27  28
ATOM     28  C   UNL     1       1.090   2.739  19.503  0.00  0.00    +0.000 C 
ATOM     29  C   UNL     1       2.232   2.052  20.192  0.00  0.00    +0.000 C 
ATOM     30  O   UNL     1       0.167   3.269  20.106  0.00  0.00    +0.000 OA
ENDBRANCH  27  28
ENDBRANCH   3  27
TORSDOF 6
ENDMDL
MODEL 4
REMARK VINA RESULT:      -5.9      8.318     12.701
REMARK  Name = 
REMARK  10 active torsions:
REMARK  status: ('A' for Active; 'I' for Inactive)
REMARK    1  A    between atoms: C_1  and  O_2
REMARK    2  A    between atoms: O_2  and  C_3
REMARK    3  A    between atoms: C_3  and  C_5
REMARK    4  A    between atoms: C_7  and  O_8
REMARK    5  A    between atoms: O_8  and  C_9
REMARK    6  A    between atoms: C_9  and  C_10
REMARK    7  A    between atoms: C_15  and  C_16
REMARK    8  A    between atoms: C_23  and  C_24
REMARK    9  A    between atoms: C_24  and  O_26
REMARK   10  A    between atoms: C_28  and  C_29
REMARK                            x       y       z     vdW  Elec       q    Type
REMARK                         _______ _______ _______ _____ _____    ______ ____
ROOT
ATOM      1  C   UNL     1      -5.861  15.167  20.085  0.00  0.00    +0.000 C 
ATOM      2  C   UNL     1      -7.044  14.187  20.282  0.00  0.00    +0.000 C 
ATOM      3  C   UNL     1      -6.592  12.769  20.644  0.00  0.00    +0.000 C 
ATOM      4  C   UNL     1      -5.640  12.857  21.844  0.00  0.00    +0.000 C 
ATOM      5  O   UNL     1      -5.822  12.225  22.882  0.00  0.00    +0.000 OA
ATOM      6  C   UNL     1      -4.421  13.770  21.628  0.00  0.00    +0.000 C 
ATOM      7  C   UNL     1      -4.911  15.233  21.347  0.00  0.00    +0.000 C 
ATOM      8  C   UNL     1      -5.698  15.857  22.524  0.00  0.00    +0.000 C 
ATOM      9  C   UNL     1      -3.666  16.118  21.050  0.00  0.00    +0.000 C 
ATOM     10  C   UNL     1      -2.528  15.970  22.069  0.00  0.00    +0.000 C 
ATOM     11  C   UNL     1      -2.070  14.510  22.181  0.00  0.00    +0.000 C 
ATOM     12  C   UNL     1      -0.831  14.336  23.043  0.00  0.00    +0.000 C 
ATOM     13  O   UNL     1      -0.117  15.271  23.388  0.00  0.00    +0.000 OA
ATOM     14  O   UNL     1      -0.463  13.060  23.321  0.00  0.00    +0.000 OA
ATOM     15  C   UNL     1      -1.370  11.935  23.283  0.00  0.00    +0.000 C 
ATOM     16  C   UNL     1      -2.642  12.157  22.466  0.00  0.00    +0.000 C 
ATOM     17  C   UNL     1      -3.220  13.581  22.628  0.00  0.00    +0.000 C 
ATOM     18  C   UNL     1      -3.580  13.819  24.115  0.00  0.00    +0.000 C 
ENDROOT
BRANCH   1  19
ATOM     19  C   UNL     1      -6.321  16.544  19.606  0.00  0.00    +0.000 C 
ATOM     20  O   UNL     1      -6.978  17.307  20.297  0.00  0.00    +0.000 OA
BRANCH  19  22
ATOM     21  C   UNL     1      -7.061  17.075  17.444  0.00  0.00    +0.000 C 
ATOM     22  O   UNL     1      -5.965  16.782  18.313  0.00  0.00    +0.000 OA
ENDBRANCH  19  22
ENDBRANCH   1  19
BRANCH  15  23
ATOM     23  C   UNL     1      -0.597  10.722  22.758  0.00  0.00    +0.000 C 
ATOM     24  O   UNL     1       0.027   9.941  23.462  0.00  0.00    +0.000 OA
BRANCH  23  25
ATOM     25  O   UNL     1      -0.632  10.607  21.408  0.00  0.00    +0.000 OA
ATOM     26  H   UNL     1      -0.247   9.756  21.107  0.00  0.00    +0.000 HD
ENDBRANCH  23  25
ENDBRANCH  15  23
BRANCH   3  27
ATOM     27  O   UNL     1      -7.727  11.943  20.960  0.00  0.00    +0.000 OA
BRANCH  27  28
ATOM     28  C   UNL     1      -7.620  10.637  20.598  0.00  0.00    +0.000 C 
ATOM     29  C   UNL     1      -7.091  10.466  19.205  0.00  0.00    +0.000 C 
ATOM     30  O   UNL     1      -7.912   9.694  21.322  0.00  0.00    +0.000 OA
ENDBRANCH  27  28
ENDBRANCH   3  27
TORSDOF 6
ENDMDL
MODEL 5
REMARK VINA RESULT:      -5.8      7.501     11.893
REMARK  Name = 
REMARK  10 active torsions:
REMARK  status: ('A' for Active; 'I' for Inactive)
REMARK    1  A    between atoms: C_1  and  O_2
REMARK    2  A    between atoms: O_2  and  C_3
REMARK    3  A    between atoms: C_3  and  C_5
REMARK    4  A    between atoms: C_7  and  O_8
REMARK    5  A    between atoms: O_8  and  C_9
REMARK    6  A    between atoms: C_9  and  C_10
REMARK    7  A    between atoms: C_15  and  C_16
REMARK    8  A    between atoms: C_23  and  C_24
REMARK    9  A    between atoms: C_24  and  O_26
REMARK   10  A    between atoms: C_28  and  C_29
REMARK                            x       y       z     vdW  Elec       q    Type
REMARK                         _______ _______ _______ _____ _____    ______ ____
ROOT
ATOM      1  C   UNL     1      -0.521  11.906  20.152  0.00  0.00    +0.000 C 
ATOM      2  C   UNL     1      -1.208  11.724  18.776  0.00  0.00    +0.000 C 
ATOM      3  C   UNL     1      -2.720  11.505  18.886  0.00  0.00    +0.000 C 
ATOM      4  C   UNL     1      -3.310  12.632  19.742  0.00  0.00    +0.000 C 
ATOM      5  O   UNL     1      -4.230  13.348  19.353  0.00  0.00    +0.000 OA
ATOM      6  C   UNL     1      -2.685  12.770  21.140  0.00  0.00    +0.000 C 
ATOM      7  C   UNL     1      -1.155  13.083  20.996  0.00  0.00    +0.000 C 
ATOM      8  C   UNL     1      -0.864  14.419  20.275  0.00  0.00    +0.000 C 
ATOM      9  C   UNL     1      -0.529  13.134  22.420  0.00  0.00    +0.000 C 
ATOM     10  C   UNL     1      -1.305  14.002  23.421  0.00  0.00    +0.000 C 
ATOM     11  C   UNL     1      -2.762  13.535  23.547  0.00  0.00    +0.000 C 
ATOM     12  C   UNL     1      -3.524  14.246  24.652  0.00  0.00    +0.000 C 
ATOM     13  O   UNL     1      -2.977  14.916  25.521  0.00  0.00    +0.000 OA
ATOM     14  O   UNL     1      -4.858  14.004  24.718  0.00  0.00    +0.000 OA
ATOM     15  C   UNL     1      -5.648  13.546  23.597  0.00  0.00    +0.000 C 
ATOM     16  C   UNL     1      -4.851  12.896  22.467  0.00  0.00    +0.000 C 
ATOM     17  C   UNL     1      -3.504  13.604  22.195  0.00  0.00    +0.000 C 
ATOM     18  C   UNL     1      -3.773  15.071  21.783  0.00  0.00    +0.000 C 
ENDROOT
BRANCH   1  19
ATOM     19  C   UNL     1       1.000  12.002  20.033  0.00  0.00    +0.000 C 
ATOM     20  O   UNL     1       1.747  12.027  21.000  0.00  0.00    +0.000 OA
BRANCH  19  22
ATOM     21  C   UNL     1       2.312  13.195  18.498  0.00  0.00    +0.000 C 
ATOM     22  O   UNL     1       1.407  12.116  18.739  0.00  0.00    +0.000 OA
ENDBRANCH  19  22
ENDBRANCH   1  19
BRANCH  15  23
ATOM     23  C   UNL     1      -6.712  12.583  24.131  0.00  0.00    +0.000 C 
ATOM     24  O   UNL     1      -7.916  12.787  24.083  0.00  0.00    +0.000 OA
BRANCH  23  25
ATOM     25  O   UNL     1      -6.189  11.475  24.711  0.00  0.00    +0.000 OA
ATOM     26  H   UNL     1      -5.999  10.776  24.049  0.00  0.00    +0.000 HD
ENDBRANCH  23  25
ENDBRANCH  15  23
BRANCH   3  27
ATOM     27  O   UNL     1      -3.324  11.492  17.582  0.00  0.00    +0.000 OA
BRANCH  27  28
ATOM     28  C   UNL     1      -3.243  10.313  16.909  0.00  0.00    +0.000 C 
ATOM     29  C   UNL     1      -2.907  10.498  15.459  0.00  0.00    +0.000 C 
ATOM     30  O   UNL     1      -3.415   9.214  17.421  0.00  0.00    +0.000 OA
ENDBRANCH  27  28
ENDBRANCH   3  27
TORSDOF 6
ENDMDL
MODEL 6
REMARK VINA RESULT:      -5.7      8.650     11.856
REMARK  Name = 
REMARK  10 active torsions:
REMARK  status: ('A' for Active; 'I' for Inactive)
REMARK    1  A    between atoms: C_1  and  O_2
REMARK    2  A    between atoms: O_2  and  C_3
REMARK    3  A    between atoms: C_3  and  C_5
REMARK    4  A    between atoms: C_7  and  O_8
REMARK    5  A    between atoms: O_8  and  C_9
REMARK    6  A    between atoms: C_9  and  C_10
REMARK    7  A    between atoms: C_15  and  C_16
REMARK    8  A    between atoms: C_23  and  C_24
REMARK    9  A    between atoms: C_24  and  O_26
REMARK   10  A    between atoms: C_28  and  C_29
REMARK                            x       y       z     vdW  Elec       q    Type
REMARK                         _______ _______ _______ _____ _____    ______ ____
ROOT
ATOM      1  C   UNL     1      -3.362  15.960  23.271  0.00  0.00    +0.000 C 
ATOM      2  C   UNL     1      -4.349  15.101  24.101  0.00  0.00    +0.000 C 
ATOM      3  C   UNL     1      -4.918  13.917  23.313  0.00  0.00    +0.000 C 
ATOM      4  C   UNL     1      -3.748  13.128  22.713  0.00  0.00    +0.000 C 
ATOM      5  O   UNL     1      -3.594  11.924  22.901  0.00  0.00    +0.000 OA
ATOM      6  C   UNL     1      -2.805  13.958  21.825  0.00  0.00    +0.000 C 
ATOM      7  C   UNL     1      -2.167  15.109  22.679  0.00  0.00    +0.000 C 
ATOM      8  C   UNL     1      -1.297  14.599  23.851  0.00  0.00    +0.000 C 
ATOM      9  C   UNL     1      -1.285  15.984  21.742  0.00  0.00    +0.000 C 
ATOM     10  C   UNL     1      -0.319  15.184  20.856  0.00  0.00    +0.000 C 
ATOM     11  C   UNL     1      -1.073  14.159  19.997  0.00  0.00    +0.000 C 
ATOM     12  C   UNL     1      -0.185  13.466  18.978  0.00  0.00    +0.000 C 
ATOM     13  O   UNL     1       0.936  13.864  18.683  0.00  0.00    +0.000 OA
ATOM     14  O   UNL     1      -0.743  12.434  18.294  0.00  0.00    +0.000 OA
ATOM     15  C   UNL     1      -1.874  11.670  18.773  0.00  0.00    +0.000 C 
ATOM     16  C   UNL     1      -2.711  12.361  19.848  0.00  0.00    +0.000 C 
ATOM     17  C   UNL     1      -1.855  13.149  20.865  0.00  0.00    +0.000 C 
ATOM     18  C   UNL     1      -0.893  12.174  21.586  0.00  0.00    +0.000 C 
ENDROOT
BRANCH   1  19
ATOM     19  C   UNL     1      -2.897  17.203  24.029  0.00  0.00    +0.000 C 
ATOM     20  O   UNL     1      -2.549  18.234  23.473  0.00  0.00    +0.000 OA
BRANCH  19  22
ATOM     21  C   UNL     1      -1.731  17.580  26.029  0.00  0.00    +0.000 C 
ATOM     22  O   UNL     1      -2.862  17.000  25.375  0.00  0.00    +0.000 OA
ENDBRANCH  19  22
ENDBRANCH   1  19
BRANCH  15  23
ATOM     23  C   UNL     1      -2.741  11.303  17.566  0.00  0.00    +0.000 C 
ATOM     24  O   UNL     1      -3.774  10.652  17.628  0.00  0.00    +0.000 OA
BRANCH  23  25
ATOM     25  O   UNL     1      -2.232  11.740  16.388  0.00  0.00    +0.000 OA
ATOM     26  H   UNL     1      -2.572  11.216  15.631  0.00  0.00    +0.000 HD
ENDBRANCH  23  25
ENDBRANCH  15  23
BRANCH   3  27
ATOM     27  O   UNL     1      -5.707  13.074  24.171  0.00  0.00    +0.000 OA
BRANCH  27  28
ATOM     28  C   UNL     1      -7.037  13.031  23.889  0.00  0.00    +0.000 C 
ATOM     29  C   UNL     1      -7.320  12.467  22.529  0.00  0.00    +0.000 C 
ATOM     30  O   UNL     1      -7.916  13.400  24.656  0.00  0.00    +0.000 OA
ENDBRANCH  27  28
ENDBRANCH   3  27
TORSDOF 6
ENDMDL
MODEL 7
REMARK VINA RESULT:      -5.6      5.440     10.381
REMARK  Name = 
REMARK  10 active torsions:
REMARK  status: ('A' for Active; 'I' for Inactive)
REMARK    1  A    between atoms: C_1  and  O_2
REMARK    2  A    between atoms: O_2  and  C_3
REMARK    3  A    between atoms: C_3  and  C_5
REMARK    4  A    between atoms: C_7  and  O_8
REMARK    5  A    between atoms: O_8  and  C_9
REMARK    6  A    between atoms: C_9  and  C_10
REMARK    7  A    between atoms: C_15  and  C_16
REMARK    8  A    between atoms: C_23  and  C_24
REMARK    9  A    between atoms: C_24  and  O_26
REMARK   10  A    between atoms: C_28  and  C_29
REMARK                            x       y       z     vdW  Elec       q    Type
REMARK                         _______ _______ _______ _____ _____    ______ ____
ROOT
ATOM      1  C   UNL     1      -0.085  10.380  18.975  0.00  0.00    +0.000 C 
ATOM      2  C   UNL     1      -1.132  10.117  17.863  0.00  0.00    +0.000 C 
ATOM      3  C   UNL     1      -2.576  10.233  18.362  0.00  0.00    +0.000 C 
ATOM      4  C   UNL     1      -2.734  11.584  19.070  0.00  0.00    +0.000 C 
ATOM      5  O   UNL     1      -3.601  12.398  18.759  0.00  0.00    +0.000 OA
ATOM      6  C   UNL     1      -1.748  11.822  20.226  0.00  0.00    +0.000 C 
ATOM      7  C   UNL     1      -0.281  11.786  19.671  0.00  0.00    +0.000 C 
ATOM      8  C   UNL     1       0.014  12.896  18.635  0.00  0.00    +0.000 C 
ATOM      9  C   UNL     1       0.700  11.944  20.869  0.00  0.00    +0.000 C 
ATOM     10  C   UNL     1       0.361  13.107  21.813  0.00  0.00    +0.000 C 
ATOM     11  C   UNL     1      -1.064  12.976  22.366  0.00  0.00    +0.000 C 
ATOM     12  C   UNL     1      -1.386  14.002  23.440  0.00  0.00    +0.000 C 
ATOM     13  O   UNL     1      -0.531  14.680  23.997  0.00  0.00    +0.000 OA
ATOM     14  O   UNL     1      -2.676  14.052  23.859  0.00  0.00    +0.000 OA
ATOM     15  C   UNL     1      -3.796  13.586  23.073  0.00  0.00    +0.000 C 
ATOM     16  C   UNL     1      -3.439  12.608  21.956  0.00  0.00    +0.000 C 
ATOM     17  C   UNL     1      -2.118  12.969  21.238  0.00  0.00    +0.000 C 
ATOM     18  C   UNL     1      -2.254  14.371  20.596  0.00  0.00    +0.000 C 
ENDROOT
BRANCH   1  19
ATOM     19  C   UNL     1       1.346  10.142  18.492  0.00  0.00    +0.000 C 
ATOM     20  O   UNL     1       1.961  10.941  17.803  0.00  0.00    +0.000 OA
BRANCH  19  22
ATOM     21  C   UNL     1       2.597   8.256  17.875  0.00  0.00    +0.000 C 
ATOM     22  O   UNL     1       1.818   8.922  18.871  0.00  0.00    +0.000 OA
ENDBRANCH  19  22
ENDBRANCH   1  19
BRANCH  15  23
ATOM     23  C   UNL     1      -4.817  12.964  24.029  0.00  0.00    +0.000 C 
ATOM     24  O   UNL     1      -4.713  11.852  24.526  0.00  0.00    +0.000 OA
BRANCH  23  25
ATOM     25  O   UNL     1      -5.894  13.757  24.252  0.00  0.00    +0.000 OA
ATOM     26  H   UNL     1      -5.628  14.661  24.523  0.00  0.00    +0.000 HD
ENDBRANCH  23  25
ENDBRANCH  15  23
BRANCH   3  27
ATOM     27  O   UNL     1      -3.498  10.127  17.264  0.00  0.00    +0.000 OA
BRANCH  27  28
ATOM     28  C   UNL     1      -3.033  10.563  16.063  0.00  0.00    +0.000 C 
ATOM     29  C   UNL     1      -3.040   9.487  15.017  0.00  0.00    +0.000 C 
ATOM     30  O   UNL     1      -2.655  11.706  15.843  0.00  0.00    +0.000 OA
ENDBRANCH  27  28
ENDBRANCH   3  27
TORSDOF 6
ENDMDL
MODEL 8
REMARK VINA RESULT:      -5.6      7.565     10.112
REMARK  Name = 
REMARK  10 active torsions:
REMARK  status: ('A' for Active; 'I' for Inactive)
REMARK    1  A    between atoms: C_1  and  O_2
REMARK    2  A    between atoms: O_2  and  C_3
REMARK    3  A    between atoms: C_3  and  C_5
REMARK    4  A    between atoms: C_7  and  O_8
REMARK    5  A    between atoms: O_8  and  C_9
REMARK    6  A    between atoms: C_9  and  C_10
REMARK    7  A    between atoms: C_15  and  C_16
REMARK    8  A    between atoms: C_23  and  C_24
REMARK    9  A    between atoms: C_24  and  O_26
REMARK   10  A    between atoms: C_28  and  C_29
REMARK                            x       y       z     vdW  Elec       q    Type
REMARK                         _______ _______ _______ _____ _____    ______ ____
ROOT
ATOM      1  C   UNL     1      -4.073  13.658  20.669  0.00  0.00    +0.000 C 
ATOM      2  C   UNL     1      -4.540  12.434  19.841  0.00  0.00    +0.000 C 
ATOM      3  C   UNL     1      -3.508  11.986  18.802  0.00  0.00    +0.000 C 
ATOM      4  C   UNL     1      -2.162  11.789  19.512  0.00  0.00    +0.000 C 
ATOM      5  O   UNL     1      -1.528  10.739  19.450  0.00  0.00    +0.000 OA
ATOM      6  C   UNL     1      -1.654  13.025  20.274  0.00  0.00    +0.000 C 
ATOM      7  C   UNL     1      -2.687  13.409  21.389  0.00  0.00    +0.000 C 
ATOM      8  C   UNL     1      -2.878  12.308  22.458  0.00  0.00    +0.000 C 
ATOM      9  C   UNL     1      -2.193  14.708  22.089  0.00  0.00    +0.000 C 
ATOM     10  C   UNL     1      -0.719  14.674  22.516  0.00  0.00    +0.000 C 
ATOM     11  C   UNL     1       0.199  14.388  21.319  0.00  0.00    +0.000 C 
ATOM     12  C   UNL     1       1.675  14.519  21.653  0.00  0.00    +0.000 C 
ATOM     13  O   UNL     1       2.087  15.053  22.676  0.00  0.00    +0.000 OA
ATOM     14  O   UNL     1       2.548  14.124  20.692  0.00  0.00    +0.000 OA
ATOM     15  C   UNL     1       2.217  13.189  19.639  0.00  0.00    +0.000 C 
ATOM     16  C   UNL     1       0.723  13.023  19.368  0.00  0.00    +0.000 C 
ATOM     17  C   UNL     1      -0.128  13.031  20.659  0.00  0.00    +0.000 C 
ATOM     18  C   UNL     1       0.310  11.854  21.564  0.00  0.00    +0.000 C 
ENDROOT
BRANCH   1  19
ATOM     19  C   UNL     1      -5.159  14.168  21.615  0.00  0.00    +0.000 C 
ATOM     20  O   UNL     1      -5.196  15.314  22.036  0.00  0.00    +0.000 OA
BRANCH  19  22
ATOM     21  C   UNL     1      -6.384  13.182  23.357  0.00  0.00    +0.000 C 
ATOM     22  O   UNL     1      -6.031  13.184  21.972  0.00  0.00    +0.000 OA
ENDBRANCH  19  22
ENDBRANCH   1  19
BRANCH  15  23
ATOM     23  C   UNL     1       2.951  13.629  18.369  0.00  0.00    +0.000 C 
ATOM     24  O   UNL     1       3.791  14.516  18.327  0.00  0.00    +0.000 OA
BRANCH  23  25
ATOM     25  O   UNL     1       2.551  12.959  17.260  0.00  0.00    +0.000 OA
ATOM     26  H   UNL     1       1.706  13.314  16.909  0.00  0.00    +0.000 HD
ENDBRANCH  23  25
ENDBRANCH  15  23
BRANCH   3  27
ATOM     27  O   UNL     1      -3.928  10.764  18.169  0.00  0.00    +0.000 OA
BRANCH  27  28
ATOM     28  C   UNL     1      -3.887  10.764  16.811  0.00  0.00    +0.000 C 
ATOM     29  C   UNL     1      -2.809   9.874  16.266  0.00  0.00    +0.000 C 
ATOM     30  O   UNL     1      -4.647  11.406  16.098  0.00  0.00    +0.000 OA
ENDBRANCH  27  28
ENDBRANCH   3  27
TORSDOF 6
ENDMDL
MODEL 9
REMARK VINA RESULT:      -5.6      8.887     11.216
REMARK  Name = 
REMARK  10 active torsions:
REMARK  status: ('A' for Active; 'I' for Inactive)
REMARK    1  A    between atoms: C_1  and  O_2
REMARK    2  A    between atoms: O_2  and  C_3
REMARK    3  A    between atoms: C_3  and  C_5
REMARK    4  A    between atoms: C_7  and  O_8
REMARK    5  A    between atoms: O_8  and  C_9
REMARK    6  A    between atoms: C_9  and  C_10
REMARK    7  A    between atoms: C_15  and  C_16
REMARK    8  A    between atoms: C_23  and  C_24
REMARK    9  A    between atoms: C_24  and  O_26
REMARK   10  A    between atoms: C_28  and  C_29
REMARK                            x       y       z     vdW  Elec       q    Type
REMARK                         _______ _______ _______ _____ _____    ______ ____
ROOT
ATOM      1  C   UNL     1       6.171  16.291  20.467  0.00  0.00    +0.000 C 
ATOM      2  C   UNL     1       6.028  15.874  21.952  0.00  0.00    +0.000 C 
ATOM      3  C   UNL     1       6.935  14.700  22.334  0.00  0.00    +0.000 C 
ATOM      4  C   UNL     1       8.370  15.041  21.910  0.00  0.00    +0.000 C 
ATOM      5  O   UNL     1       9.316  15.013  22.693  0.00  0.00    +0.000 OA
ATOM      6  C   UNL     1       8.533  15.382  20.419  0.00  0.00    +0.000 C 
ATOM      7  C   UNL     1       7.663  16.641  20.076  0.00  0.00    +0.000 C 
ATOM      8  C   UNL     1       8.089  17.913  20.845  0.00  0.00    +0.000 C 
ATOM      9  C   UNL     1       7.779  16.915  18.548  0.00  0.00    +0.000 C 
ATOM     10  C   UNL     1       9.219  16.922  18.015  0.00  0.00    +0.000 C 
ATOM     11  C   UNL     1       9.932  15.599  18.327  0.00  0.00    +0.000 C 
ATOM     12  C   UNL     1      11.297  15.487  17.668  0.00  0.00    +0.000 C 
ATOM     13  O   UNL     1      11.674  16.236  16.775  0.00  0.00    +0.000 OA
ATOM     14  O   UNL     1      12.054  14.419  18.028  0.00  0.00    +0.000 OA
ATOM     15  C   UNL     1      11.889  13.698  19.270  0.00  0.00    +0.000 C 
ATOM     16  C   UNL     1      10.533  13.882  19.949  0.00  0.00    +0.000 C 
ATOM     17  C   UNL     1       9.998  15.328  19.846  0.00  0.00    +0.000 C 
ATOM     18  C   UNL     1      10.994  16.291  20.538  0.00  0.00    +0.000 C 
ENDROOT
BRANCH   1  19
ATOM     19  C   UNL     1       5.175  17.380  20.071  0.00  0.00    +0.000 C 
ATOM     20  O   UNL     1       5.389  18.572  20.226  0.00  0.00    +0.000 OA
BRANCH  19  22
ATOM     21  C   UNL     1       4.054  16.511  18.202  0.00  0.00    +0.000 C 
ATOM     22  O   UNL     1       4.013  16.860  19.587  0.00  0.00    +0.000 OA
ENDBRANCH  19  22
ENDBRANCH   1  19
BRANCH  15  23
ATOM     23  C   UNL     1      12.159  12.217  18.996  0.00  0.00    +0.000 C 
ATOM     24  O   UNL     1      12.333  11.372  19.863  0.00  0.00    +0.000 OA
BRANCH  23  25
ATOM     25  O   UNL     1      12.229  11.921  17.675  0.00  0.00    +0.000 OA
ATOM     26  H   UNL     1      13.115  11.581  17.427  0.00  0.00    +0.000 HD
ENDBRANCH  23  25
ENDBRANCH  15  23
BRANCH   3  27
ATOM     27  O   UNL     1       6.872  14.455  23.750  0.00  0.00    +0.000 OA
BRANCH  27  28
ATOM     28  C   UNL     1       6.066  13.429  24.131  0.00  0.00    +0.000 C 
ATOM     29  C   UNL     1       6.463  12.122  23.511  0.00  0.00    +0.000 C 
ATOM     30  O   UNL     1       5.123  13.543  24.902  0.00  0.00    +0.000 OA
ENDBRANCH  27  28
ENDBRANCH   3  27
TORSDOF 6
ENDMDL
