MODEL 1
REMARK VINA RESULT:      -8.5      0.000      0.000
REMARK  Name = 
REMARK  3 active torsions:
REMARK  status: ('A' for Active; 'I' for Inactive)
REMARK    1  A    between atoms: C_1  and  C_2
REMARK    2  A    between atoms: C_8  and  C_9
REMARK    3  A    between atoms: C_15  and  C_16
REMARK                            x       y       z     vdW  Elec       q    Type
REMARK                         _______ _______ _______ _____ _____    ______ ____
ROOT
ATOM      1  C   UNL     1       7.139   5.364  15.731  0.00  0.00    +0.000 C 
ATOM      2  C   UNL     1       6.364   5.740  16.995  0.00  0.00    +0.000 C 
ATOM      3  C   UNL     1       7.314   6.274  18.057  0.00  0.00    +0.000 C 
ATOM      4  C   UNL     1       6.975   5.505  19.312  0.00  0.00    +0.000 C 
ATOM      5  C   UNL     1       5.995   4.449  18.883  0.00  0.00    +0.000 C 
ATOM      6  O   UNL     1       5.562   3.621  19.668  0.00  0.00    +0.000 OA
ATOM      7  N   UNL     1       5.651   4.624  17.549  0.00  0.00    +0.000 N 
ATOM      8  C   UNL     1       4.284   4.637  17.009  0.00  0.00    +0.000 C 
ATOM      9  C   UNL     1       4.065   6.169  16.832  0.00  0.00    +0.000 C 
ATOM     10  O   UNL     1       5.386   6.739  16.668  0.00  0.00    +0.000 OA
ENDROOT
BRANCH   8  11
ATOM     11  C   UNL     1       3.149   3.818  17.609  0.00  0.00    +0.000 A 
ATOM     12  C   UNL     1       1.823   4.305  17.621  0.00  0.00    +0.000 A 
ATOM     13  C   UNL     1       0.786   3.615  18.255  0.00  0.00    +0.000 A 
ATOM     14  C   UNL     1       1.038   2.386  18.850  0.00  0.00    +0.000 A 
ATOM     15  C   UNL     1       2.313   1.837  18.767  0.00  0.00    +0.000 A 
ATOM     16  C   UNL     1       3.346   2.531  18.123  0.00  0.00    +0.000 A 
ENDBRANCH   8  11
BRANCH   9  17
ATOM     17  C   UNL     1       3.335   6.935  17.926  0.00  0.00    +0.000 A 
ATOM     18  C   UNL     1       3.200   6.440  19.231  0.00  0.00    +0.000 A 
ATOM     19  C   UNL     1       2.352   7.043  20.157  0.00  0.00    +0.000 A 
ATOM     20  C   UNL     1       1.635   8.175  19.804  0.00  0.00    +0.000 A 
ATOM     21  C   UNL     1       1.797   8.731  18.536  0.00  0.00    +0.000 A 
ATOM     22  C   UNL     1       2.650   8.122  17.606  0.00  0.00    +0.000 A 
ENDBRANCH   9  17
TORSDOF 2
ENDMDL
MODEL 2
REMARK VINA RESULT:      -8.5      1.859      4.593
REMARK  Name = 
REMARK  3 active torsions:
REMARK  status: ('A' for Active; 'I' for Inactive)
REMARK    1  A    between atoms: C_1  and  C_2
REMARK    2  A    between atoms: C_8  and  C_9
REMARK    3  A    between atoms: C_15  and  C_16
REMARK                            x       y       z     vdW  Elec       q    Type
REMARK                         _______ _______ _______ _____ _____    ______ ____
ROOT
ATOM      1  C   UNL     1       2.652   2.404  21.621  0.00  0.00    +0.000 C 
ATOM      2  C   UNL     1       2.263   3.330  20.468  0.00  0.00    +0.000 C 
ATOM      3  C   UNL     1       0.781   3.189  20.154  0.00  0.00    +0.000 C 
ATOM      4  C   UNL     1       0.713   2.983  18.659  0.00  0.00    +0.000 C 
ATOM      5  C   UNL     1       2.139   2.827  18.210  0.00  0.00    +0.000 C 
ATOM      6  O   UNL     1       2.422   2.593  17.046  0.00  0.00    +0.000 OA
ATOM      7  N   UNL     1       3.006   3.050  19.272  0.00  0.00    +0.000 N 
ATOM      8  C   UNL     1       4.186   3.927  19.247  0.00  0.00    +0.000 C 
ATOM      9  C   UNL     1       3.625   5.177  19.988  0.00  0.00    +0.000 C 
ATOM     10  O   UNL     1       2.558   4.687  20.834  0.00  0.00    +0.000 OA
ENDROOT
BRANCH   8  11
ATOM     11  C   UNL     1       5.023   4.154  17.994  0.00  0.00    +0.000 A 
ATOM     12  C   UNL     1       6.375   4.550  18.082  0.00  0.00    +0.000 A 
ATOM     13  C   UNL     1       7.131   4.861  16.947  0.00  0.00    +0.000 A 
ATOM     14  C   UNL     1       6.566   4.729  15.686  0.00  0.00    +0.000 A 
ATOM     15  C   UNL     1       5.268   4.245  15.568  0.00  0.00    +0.000 A 
ATOM     16  C   UNL     1       4.519   3.929  16.708  0.00  0.00    +0.000 A 
ENDBRANCH   8  11
BRANCH   9  17
ATOM     17  C   UNL     1       3.097   6.341  19.161  0.00  0.00    +0.000 A 
ATOM     18  C   UNL     1       3.642   6.691  17.917  0.00  0.00    +0.000 A 
ATOM     19  C   UNL     1       3.298   7.879  17.276  0.00  0.00    +0.000 A 
ATOM     20  C   UNL     1       2.377   8.736  17.857  0.00  0.00    +0.000 A 
ATOM     21  C   UNL     1       1.767   8.386  19.061  0.00  0.00    +0.000 A 
ATOM     22  C   UNL     1       2.116   7.192  19.704  0.00  0.00    +0.000 A 
ENDBRANCH   9  17
TORSDOF 2
ENDMDL
MODEL 3
REMARK VINA RESULT:      -8.3      1.888      4.546
REMARK  Name = 
REMARK  3 active torsions:
REMARK  status: ('A' for Active; 'I' for Inactive)
REMARK    1  A    between atoms: C_1  and  C_2
REMARK    2  A    between atoms: C_8  and  C_9
REMARK    3  A    between atoms: C_15  and  C_16
REMARK                            x       y       z     vdW  Elec       q    Type
REMARK                         _______ _______ _______ _____ _____    ______ ____
ROOT
ATOM      1  C   UNL     1       2.576   2.429  21.692  0.00  0.00    +0.000 C 
ATOM      2  C   UNL     1       2.193   3.352  20.534  0.00  0.00    +0.000 C 
ATOM      3  C   UNL     1       0.713   3.208  20.212  0.00  0.00    +0.000 C 
ATOM      4  C   UNL     1       0.654   2.998  18.717  0.00  0.00    +0.000 C 
ATOM      5  C   UNL     1       2.083   2.842  18.277  0.00  0.00    +0.000 C 
ATOM      6  O   UNL     1       2.373   2.605  17.115  0.00  0.00    +0.000 OA
ATOM      7  N   UNL     1       2.943   3.069  19.343  0.00  0.00    +0.000 N 
ATOM      8  C   UNL     1       4.123   3.946  19.322  0.00  0.00    +0.000 C 
ATOM      9  C   UNL     1       3.556   5.199  20.056  0.00  0.00    +0.000 C 
ATOM     10  O   UNL     1       2.485   4.709  20.898  0.00  0.00    +0.000 OA
ENDROOT
BRANCH   8  11
ATOM     11  C   UNL     1       4.967   4.170  18.074  0.00  0.00    +0.000 A 
ATOM     12  C   UNL     1       4.414   4.024  16.783  0.00  0.00    +0.000 A 
ATOM     13  C   UNL     1       5.194   4.126  15.627  0.00  0.00    +0.000 A 
ATOM     14  C   UNL     1       6.543   4.434  15.732  0.00  0.00    +0.000 A 
ATOM     15  C   UNL     1       7.091   4.681  16.986  0.00  0.00    +0.000 A 
ATOM     16  C   UNL     1       6.302   4.584  18.139  0.00  0.00    +0.000 A 
ENDBRANCH   8  11
BRANCH   9  17
ATOM     17  C   UNL     1       3.032   6.360  19.223  0.00  0.00    +0.000 A 
ATOM     18  C   UNL     1       3.591   6.712  17.986  0.00  0.00    +0.000 A 
ATOM     19  C   UNL     1       3.248   7.898  17.341  0.00  0.00    +0.000 A 
ATOM     20  C   UNL     1       2.315   8.751  17.910  0.00  0.00    +0.000 A 
ATOM     21  C   UNL     1       1.692   8.397  19.106  0.00  0.00    +0.000 A 
ATOM     22  C   UNL     1       2.040   7.205  19.754  0.00  0.00    +0.000 A 
ENDBRANCH   9  17
TORSDOF 2
ENDMDL
MODEL 4
REMARK VINA RESULT:      -8.2      1.625      4.664
REMARK  Name = 
REMARK  3 active torsions:
REMARK  status: ('A' for Active; 'I' for Inactive)
REMARK    1  A    between atoms: C_1  and  C_2
REMARK    2  A    between atoms: C_8  and  C_9
REMARK    3  A    between atoms: C_15  and  C_16
REMARK                            x       y       z     vdW  Elec       q    Type
REMARK                         _______ _______ _______ _____ _____    ______ ____
ROOT
ATOM      1  C   UNL     1       2.390   2.021  17.434  0.00  0.00    +0.000 C 
ATOM      2  C   UNL     1       3.343   2.914  18.229  0.00  0.00    +0.000 C 
ATOM      3  C   UNL     1       4.053   2.102  19.304  0.00  0.00    +0.000 C 
ATOM      4  C   UNL     1       3.882   2.899  20.576  0.00  0.00    +0.000 C 
ATOM      5  C   UNL     1       2.938   4.015  20.227  0.00  0.00    +0.000 C 
ATOM      6  O   UNL     1       2.555   4.816  21.065  0.00  0.00    +0.000 OA
ATOM      7  N   UNL     1       2.662   4.006  18.866  0.00  0.00    +0.000 N 
ATOM      8  C   UNL     1       2.721   5.170  17.970  0.00  0.00    +0.000 C 
ATOM      9  C   UNL     1       4.089   4.918  17.268  0.00  0.00    +0.000 C 
ATOM     10  O   UNL     1       4.308   3.488  17.334  0.00  0.00    +0.000 OA
ENDROOT
BRANCH   8  11
ATOM     11  C   UNL     1       2.404   6.587  18.431  0.00  0.00    +0.000 A 
ATOM     12  C   UNL     1       2.164   6.875  19.792  0.00  0.00    +0.000 A 
ATOM     13  C   UNL     1       1.774   8.147  20.222  0.00  0.00    +0.000 A 
ATOM     14  C   UNL     1       1.666   9.182  19.304  0.00  0.00    +0.000 A 
ATOM     15  C   UNL     1       1.993   8.949  17.972  0.00  0.00    +0.000 A 
ATOM     16  C   UNL     1       2.390   7.674  17.549  0.00  0.00    +0.000 A 
ENDBRANCH   8  11
BRANCH   9  17
ATOM     17  C   UNL     1       5.326   5.626  17.803  0.00  0.00    +0.000 A 
ATOM     18  C   UNL     1       5.919   6.711  17.141  0.00  0.00    +0.000 A 
ATOM     19  C   UNL     1       7.164   7.207  17.521  0.00  0.00    +0.000 A 
ATOM     20  C   UNL     1       7.836   6.643  18.594  0.00  0.00    +0.000 A 
ATOM     21  C   UNL     1       7.243   5.607  19.315  0.00  0.00    +0.000 A 
ATOM     22  C   UNL     1       5.992   5.109  18.929  0.00  0.00    +0.000 A 
ENDBRANCH   9  17
TORSDOF 2
ENDMDL
MODEL 5
REMARK VINA RESULT:      -8.1      0.130      1.027
REMARK  Name = 
REMARK  3 active torsions:
REMARK  status: ('A' for Active; 'I' for Inactive)
REMARK    1  A    between atoms: C_1  and  C_2
REMARK    2  A    between atoms: C_8  and  C_9
REMARK    3  A    between atoms: C_15  and  C_16
REMARK                            x       y       z     vdW  Elec       q    Type
REMARK                         _______ _______ _______ _____ _____    ______ ____
ROOT
ATOM      1  C   UNL     1       6.999   5.349  15.612  0.00  0.00    +0.000 C 
ATOM      2  C   UNL     1       6.278   5.756  16.898  0.00  0.00    +0.000 C 
ATOM      3  C   UNL     1       7.271   6.321  17.903  0.00  0.00    +0.000 C 
ATOM      4  C   UNL     1       6.989   5.584  19.191  0.00  0.00    +0.000 C 
ATOM      5  C   UNL     1       5.996   4.514  18.833  0.00  0.00    +0.000 C 
ATOM      6  O   UNL     1       5.600   3.705  19.657  0.00  0.00    +0.000 OA
ATOM      7  N   UNL     1       5.594   4.653  17.511  0.00  0.00    +0.000 N 
ATOM      8  C   UNL     1       4.205   4.648  17.031  0.00  0.00    +0.000 C 
ATOM      9  C   UNL     1       3.972   6.174  16.823  0.00  0.00    +0.000 C 
ATOM     10  O   UNL     1       5.283   6.743  16.587  0.00  0.00    +0.000 OA
ENDROOT
BRANCH   8  11
ATOM     11  C   UNL     1       3.100   3.841  17.701  0.00  0.00    +0.000 A 
ATOM     12  C   UNL     1       3.387   2.642  18.390  0.00  0.00    +0.000 A 
ATOM     13  C   UNL     1       2.377   1.837  18.925  0.00  0.00    +0.000 A 
ATOM     14  C   UNL     1       1.052   2.238  18.831  0.00  0.00    +0.000 A 
ATOM     15  C   UNL     1       0.751   3.463  18.244  0.00  0.00    +0.000 A 
ATOM     16  C   UNL     1       1.767   4.269  17.718  0.00  0.00    +0.000 A 
ENDBRANCH   8  11
BRANCH   9  17
ATOM     17  C   UNL     1       3.287   6.966  17.927  0.00  0.00    +0.000 A 
ATOM     18  C   UNL     1       3.178   6.489  19.241  0.00  0.00    +0.000 A 
ATOM     19  C   UNL     1       2.367   7.118  20.183  0.00  0.00    +0.000 A 
ATOM     20  C   UNL     1       1.663   8.261  19.836  0.00  0.00    +0.000 A 
ATOM     21  C   UNL     1       1.801   8.799  18.557  0.00  0.00    +0.000 A 
ATOM     22  C   UNL     1       2.616   8.163  17.612  0.00  0.00    +0.000 A 
ENDBRANCH   9  17
TORSDOF 2
ENDMDL
MODEL 6
REMARK VINA RESULT:      -8.0      1.642      4.604
REMARK  Name = 
REMARK  3 active torsions:
REMARK  status: ('A' for Active; 'I' for Inactive)
REMARK    1  A    between atoms: C_1  and  C_2
REMARK    2  A    between atoms: C_8  and  C_9
REMARK    3  A    between atoms: C_15  and  C_16
REMARK                            x       y       z     vdW  Elec       q    Type
REMARK                         _______ _______ _______ _____ _____    ______ ____
ROOT
ATOM      1  C   UNL     1       2.437   1.951  17.460  0.00  0.00    +0.000 C 
ATOM      2  C   UNL     1       3.379   2.868  18.243  0.00  0.00    +0.000 C 
ATOM      3  C   UNL     1       4.118   2.076  19.313  0.00  0.00    +0.000 C 
ATOM      4  C   UNL     1       3.943   2.874  20.583  0.00  0.00    +0.000 C 
ATOM      5  C   UNL     1       2.972   3.968  20.240  0.00  0.00    +0.000 C 
ATOM      6  O   UNL     1       2.580   4.764  21.079  0.00  0.00    +0.000 OA
ATOM      7  N   UNL     1       2.682   3.947  18.882  0.00  0.00    +0.000 N 
ATOM      8  C   UNL     1       2.706   5.109  17.981  0.00  0.00    +0.000 C 
ATOM      9  C   UNL     1       4.072   4.884  17.266  0.00  0.00    +0.000 C 
ATOM     10  O   UNL     1       4.321   3.459  17.335  0.00  0.00    +0.000 OA
ENDROOT
BRANCH   8  11
ATOM     11  C   UNL     1       2.363   6.520  18.440  0.00  0.00    +0.000 A 
ATOM     12  C   UNL     1       2.315   7.594  17.524  0.00  0.00    +0.000 A 
ATOM     13  C   UNL     1       2.102   8.912  17.939  0.00  0.00    +0.000 A 
ATOM     14  C   UNL     1       1.876   9.184  19.281  0.00  0.00    +0.000 A 
ATOM     15  C   UNL     1       1.819   8.132  20.190  0.00  0.00    +0.000 A 
ATOM     16  C   UNL     1       2.026   6.814  19.766  0.00  0.00    +0.000 A 
ENDBRANCH   8  11
BRANCH   9  17
ATOM     17  C   UNL     1       5.298   5.621  17.785  0.00  0.00    +0.000 A 
ATOM     18  C   UNL     1       5.843   6.734  17.128  0.00  0.00    +0.000 A 
ATOM     19  C   UNL     1       7.080   7.261  17.489  0.00  0.00    +0.000 A 
ATOM     20  C   UNL     1       7.793   6.700  18.537  0.00  0.00    +0.000 A 
ATOM     21  C   UNL     1       7.250   5.635  19.253  0.00  0.00    +0.000 A 
ATOM     22  C   UNL     1       6.005   5.105  18.887  0.00  0.00    +0.000 A 
ENDBRANCH   9  17
TORSDOF 2
ENDMDL
MODEL 7
REMARK VINA RESULT:      -8.0      1.867      4.572
REMARK  Name = 
REMARK  3 active torsions:
REMARK  status: ('A' for Active; 'I' for Inactive)
REMARK    1  A    between atoms: C_1  and  C_2
REMARK    2  A    between atoms: C_8  and  C_9
REMARK    3  A    between atoms: C_15  and  C_16
REMARK                            x       y       z     vdW  Elec       q    Type
REMARK                         _______ _______ _______ _____ _____    ______ ____
ROOT
ATOM      1  C   UNL     1       2.549   2.405  21.517  0.00  0.00    +0.000 C 
ATOM      2  C   UNL     1       2.235   3.426  20.422  0.00  0.00    +0.000 C 
ATOM      3  C   UNL     1       0.744   3.432  20.119  0.00  0.00    +0.000 C 
ATOM      4  C   UNL     1       0.648   3.318  18.616  0.00  0.00    +0.000 C 
ATOM      5  C   UNL     1       2.051   3.065  18.142  0.00  0.00    +0.000 C 
ATOM      6  O   UNL     1       2.305   2.874  16.963  0.00  0.00    +0.000 OA
ATOM      7  N   UNL     1       2.942   3.151  19.203  0.00  0.00    +0.000 N 
ATOM      8  C   UNL     1       4.194   3.922  19.213  0.00  0.00    +0.000 C 
ATOM      9  C   UNL     1       3.750   5.172  20.030  0.00  0.00    +0.000 C 
ATOM     10  O   UNL     1       2.650   4.729  20.861  0.00  0.00    +0.000 OA
ENDROOT
BRANCH   8  11
ATOM     11  C   UNL     1       5.039   4.146  17.966  0.00  0.00    +0.000 A 
ATOM     12  C   UNL     1       6.393   4.533  18.061  0.00  0.00    +0.000 A 
ATOM     13  C   UNL     1       7.157   4.841  16.931  0.00  0.00    +0.000 A 
ATOM     14  C   UNL     1       6.597   4.716  15.667  0.00  0.00    +0.000 A 
ATOM     15  C   UNL     1       5.296   4.242  15.540  0.00  0.00    +0.000 A 
ATOM     16  C   UNL     1       4.540   3.928  16.676  0.00  0.00    +0.000 A 
ENDBRANCH   8  11
BRANCH   9  17
ATOM     17  C   UNL     1       3.320   6.423  19.276  0.00  0.00    +0.000 A 
ATOM     18  C   UNL     1       2.277   7.249  19.720  0.00  0.00    +0.000 A 
ATOM     19  C   UNL     1       1.754   8.259  18.916  0.00  0.00    +0.000 A 
ATOM     20  C   UNL     1       2.282   8.484  17.654  0.00  0.00    +0.000 A 
ATOM     21  C   UNL     1       3.362   7.723  17.210  0.00  0.00    +0.000 A 
ATOM     22  C   UNL     1       3.886   6.706  18.019  0.00  0.00    +0.000 A 
ENDBRANCH   9  17
TORSDOF 2
ENDMDL
MODEL 8
REMARK VINA RESULT:      -7.8      1.866      4.523
REMARK  Name = 
REMARK  3 active torsions:
REMARK  status: ('A' for Active; 'I' for Inactive)
REMARK    1  A    between atoms: C_1  and  C_2
REMARK    2  A    between atoms: C_8  and  C_9
REMARK    3  A    between atoms: C_15  and  C_16
REMARK                            x       y       z     vdW  Elec       q    Type
REMARK                         _______ _______ _______ _____ _____    ______ ____
ROOT
ATOM      1  C   UNL     1       2.525   2.360  21.508  0.00  0.00    +0.000 C 
ATOM      2  C   UNL     1       2.218   3.383  20.413  0.00  0.00    +0.000 C 
ATOM      3  C   UNL     1       0.733   3.370  20.079  0.00  0.00    +0.000 C 
ATOM      4  C   UNL     1       0.669   3.264  18.574  0.00  0.00    +0.000 C 
ATOM      5  C   UNL     1       2.085   3.033  18.127  0.00  0.00    +0.000 C 
ATOM      6  O   UNL     1       2.365   2.852  16.952  0.00  0.00    +0.000 OA
ATOM      7  N   UNL     1       2.953   3.125  19.207  0.00  0.00    +0.000 N 
ATOM      8  C   UNL     1       4.194   3.913  19.246  0.00  0.00    +0.000 C 
ATOM      9  C   UNL     1       3.716   5.152  20.061  0.00  0.00    +0.000 C 
ATOM     10  O   UNL     1       2.605   4.689  20.867  0.00  0.00    +0.000 OA
ENDROOT
BRANCH   8  11
ATOM     11  C   UNL     1       5.060   4.157  18.017  0.00  0.00    +0.000 A 
ATOM     12  C   UNL     1       4.530   4.030  16.714  0.00  0.00    +0.000 A 
ATOM     13  C   UNL     1       5.331   4.151  15.575  0.00  0.00    +0.000 A 
ATOM     14  C   UNL     1       6.678   4.457  15.708  0.00  0.00    +0.000 A 
ATOM     15  C   UNL     1       7.203   4.685  16.976  0.00  0.00    +0.000 A 
ATOM     16  C   UNL     1       6.393   4.570  18.113  0.00  0.00    +0.000 A 
ENDBRANCH   8  11
BRANCH   9  17
ATOM     17  C   UNL     1       3.283   6.401  19.306  0.00  0.00    +0.000 A 
ATOM     18  C   UNL     1       2.261   7.245  19.766  0.00  0.00    +0.000 A 
ATOM     19  C   UNL     1       1.732   8.254  18.965  0.00  0.00    +0.000 A 
ATOM     20  C   UNL     1       2.232   8.460  17.689  0.00  0.00    +0.000 A 
ATOM     21  C   UNL     1       3.293   7.682  17.227  0.00  0.00    +0.000 A 
ATOM     22  C   UNL     1       3.823   6.667  18.034  0.00  0.00    +0.000 A 
ENDBRANCH   9  17
TORSDOF 2
ENDMDL
MODEL 9
REMARK VINA RESULT:      -7.7      1.753      4.777
REMARK  Name = 
REMARK  3 active torsions:
REMARK  status: ('A' for Active; 'I' for Inactive)
REMARK    1  A    between atoms: C_1  and  C_2
REMARK    2  A    between atoms: C_8  and  C_9
REMARK    3  A    between atoms: C_15  and  C_16
REMARK                            x       y       z     vdW  Elec       q    Type
REMARK                         _______ _______ _______ _____ _____    ______ ____
ROOT
ATOM      1  C   UNL     1       2.405   2.539  21.418  0.00  0.00    +0.000 C 
ATOM      2  C   UNL     1       2.115   3.524  20.284  0.00  0.00    +0.000 C 
ATOM      3  C   UNL     1       0.919   3.052  19.469  0.00  0.00    +0.000 C 
ATOM      4  C   UNL     1       1.374   3.113  18.030  0.00  0.00    +0.000 C 
ATOM      5  C   UNL     1       2.843   3.427  18.087  0.00  0.00    +0.000 C 
ATOM      6  O   UNL     1       3.523   3.494  17.075  0.00  0.00    +0.000 OA
ATOM      7  N   UNL     1       3.233   3.675  19.396  0.00  0.00    +0.000 N 
ATOM      8  C   UNL     1       4.030   4.824  19.851  0.00  0.00    +0.000 C 
ATOM      9  C   UNL     1       2.910   5.722  20.457  0.00  0.00    +0.000 C 
ATOM     10  O   UNL     1       1.846   4.819  20.841  0.00  0.00    +0.000 OA
ENDROOT
BRANCH   8  11
ATOM     11  C   UNL     1       5.091   5.491  18.986  0.00  0.00    +0.000 A 
ATOM     12  C   UNL     1       6.459   5.431  19.333  0.00  0.00    +0.000 A 
ATOM     13  C   UNL     1       7.437   6.119  18.609  0.00  0.00    +0.000 A 
ATOM     14  C   UNL     1       7.077   6.845  17.482  0.00  0.00    +0.000 A 
ATOM     15  C   UNL     1       5.751   6.840  17.061  0.00  0.00    +0.000 A 
ATOM     16  C   UNL     1       4.778   6.141  17.787  0.00  0.00    +0.000 A 
ENDBRANCH   8  11
BRANCH   9  17
ATOM     17  C   UNL     1       2.321   6.834  19.600  0.00  0.00    +0.000 A 
ATOM     18  C   UNL     1       2.267   6.759  18.201  0.00  0.00    +0.000 A 
ATOM     19  C   UNL     1       1.929   7.864  17.423  0.00  0.00    +0.000 A 
ATOM     20  C   UNL     1       1.610   9.068  18.031  0.00  0.00    +0.000 A 
ATOM     21  C   UNL     1       1.590   9.157  19.423  0.00  0.00    +0.000 A 
ATOM     22  C   UNL     1       1.933   8.045  20.203  0.00  0.00    +0.000 A 
ENDBRANCH   9  17
TORSDOF 2
ENDMDL
