MODEL 1
REMARK VINA RESULT:      -8.8      0.000      0.000
REMARK  Name = 
REMARK  7 active torsions:
REMARK  status: ('A' for Active; 'I' for Inactive)
REMARK    1  A    between atoms: C_1  and  C_2
REMARK    2  A    between atoms: C_5  and  S_6
REMARK    3  A    between atoms: S_6  and  N_9
REMARK    4  A    between atoms: C_14  and  C_15
REMARK    5  A    between atoms: C_15  and  C_16
REMARK    6  A    between atoms: N_18  and  C_19
REMARK    7  A    between atoms: C_24  and  C_25
REMARK                            x       y       z     vdW  Elec       q    Type
REMARK                         _______ _______ _______ _____ _____    ______ ____
ROOT
ATOM      1  N   UNL     1       3.919   3.918  17.975  0.00  0.00    +0.000 NA
ATOM      2  C   UNL     1       4.110   2.529  18.478  0.00  0.00    +0.000 C 
ATOM      3  C   UNL     1       2.848   1.687  18.310  0.00  0.00    +0.000 C 
ATOM      4  C   UNL     1       1.627   2.367  18.912  0.00  0.00    +0.000 C 
ATOM      5  C   UNL     1       1.470   3.745  18.288  0.00  0.00    +0.000 C 
ATOM      6  C   UNL     1       2.704   4.638  18.522  0.00  0.00    +0.000 C 
ENDROOT
BRANCH   1   7
ATOM      7  S   UNL     1       5.356   4.858  17.908  0.00  0.00    +0.000 S 
ATOM      8  O   UNL     1       6.269   4.310  18.884  0.00  0.00    +0.000 OA
ATOM      9  O   UNL     1       4.981   6.259  17.938  0.00  0.00    +0.000 OA
BRANCH   7  14
ATOM     10  C   UNL     1       7.193   4.541  12.150  0.00  0.00    +0.000 C 
ATOM     11  C   UNL     1       6.814   4.469  13.602  0.00  0.00    +0.000 A 
ATOM     12  C   UNL     1       5.617   3.859  14.003  0.00  0.00    +0.000 A 
ATOM     13  C   UNL     1       5.212   3.905  15.340  0.00  0.00    +0.000 A 
ATOM     14  C   UNL     1       6.009   4.560  16.282  0.00  0.00    +0.000 A 
ATOM     15  C   UNL     1       7.227   5.131  15.906  0.00  0.00    +0.000 A 
ATOM     16  C   UNL     1       7.620   5.092  14.565  0.00  0.00    +0.000 A 
ENDBRANCH   7  14
ENDBRANCH   1   7
BRANCH   6  17
ATOM     17  C   UNL     1       2.899   5.087  19.985  0.00  0.00    +0.000 C 
BRANCH  17  18
ATOM     18  C   UNL     1       1.833   6.073  20.428  0.00  0.00    +0.000 C 
ATOM     19  O   UNL     1       0.727   5.706  20.810  0.00  0.00    +0.000 OA
ATOM     20  N   UNL     1       2.239   7.399  20.314  0.00  0.00    +0.000 N 
ATOM     21  H   UNL     1       3.033   7.581  19.710  0.00  0.00    +0.000 HD
BRANCH  20  22
ATOM     22  C   UNL     1       1.425   8.498  20.663  0.00  0.00    +0.000 A 
ATOM     23  C   UNL     1       1.193   8.863  21.991  0.00  0.00    +0.000 A 
ATOM     24  C   UNL     1       0.256   9.847  22.304  0.00  0.00    +0.000 A 
ATOM     25  C   UNL     1      -0.434  10.485  21.286  0.00  0.00    +0.000 A 
ATOM     26  F   UNL     1      -1.371  11.381  21.623  0.00  0.00    +0.000 F 
ATOM     27  C   UNL     1      -0.174  10.198  19.948  0.00  0.00    +0.000 A 
ATOM     28  C   UNL     1       0.793   9.217  19.640  0.00  0.00    +0.000 A 
BRANCH  27  29
ATOM     29  C   UNL     1      -0.935  10.889  18.857  0.00  0.00    +0.000 C 
ATOM     30  F   UNL     1      -2.273  11.013  19.070  0.00  0.00    +0.000 F 
ATOM     31  F   UNL     1      -0.476  12.152  18.630  0.00  0.00    +0.000 F 
ATOM     32  F   UNL     1      -0.815  10.238  17.665  0.00  0.00    +0.000 F 
ENDBRANCH  27  29
ENDBRANCH  20  22
ENDBRANCH  17  18
ENDBRANCH   6  17
TORSDOF 6
ENDMDL
MODEL 2
REMARK VINA RESULT:      -8.7      0.821      1.042
REMARK  Name = 
REMARK  7 active torsions:
REMARK  status: ('A' for Active; 'I' for Inactive)
REMARK    1  A    between atoms: C_1  and  C_2
REMARK    2  A    between atoms: C_5  and  S_6
REMARK    3  A    between atoms: S_6  and  N_9
REMARK    4  A    between atoms: C_14  and  C_15
REMARK    5  A    between atoms: C_15  and  C_16
REMARK    6  A    between atoms: N_18  and  C_19
REMARK    7  A    between atoms: C_24  and  C_25
REMARK                            x       y       z     vdW  Elec       q    Type
REMARK                         _______ _______ _______ _____ _____    ______ ____
ROOT
ATOM      1  N   UNL     1       3.888   4.182  18.164  0.00  0.00    +0.000 NA
ATOM      2  C   UNL     1       4.005   2.924  18.953  0.00  0.00    +0.000 C 
ATOM      3  C   UNL     1       2.717   2.105  18.907  0.00  0.00    +0.000 C 
ATOM      4  C   UNL     1       1.503   2.933  19.298  0.00  0.00    +0.000 C 
ATOM      5  C   UNL     1       1.424   4.154  18.395  0.00  0.00    +0.000 C 
ATOM      6  C   UNL     1       2.683   5.038  18.493  0.00  0.00    +0.000 C 
ENDROOT
BRANCH   1   7
ATOM      7  S   UNL     1       5.363   5.041  17.968  0.00  0.00    +0.000 S 
ATOM      8  O   UNL     1       6.289   4.526  18.948  0.00  0.00    +0.000 OA
ATOM      9  O   UNL     1       5.054   6.457  17.900  0.00  0.00    +0.000 OA
BRANCH   7  14
ATOM     10  C   UNL     1       6.938   4.188  12.186  0.00  0.00    +0.000 C 
ATOM     11  C   UNL     1       6.618   4.247  13.653  0.00  0.00    +0.000 A 
ATOM     12  C   UNL     1       5.414   3.727  14.148  0.00  0.00    +0.000 A 
ATOM     13  C   UNL     1       5.069   3.897  15.492  0.00  0.00    +0.000 A 
ATOM     14  C   UNL     1       5.933   4.587  16.347  0.00  0.00    +0.000 A 
ATOM     15  C   UNL     1       7.157   5.069  15.878  0.00  0.00    +0.000 A 
ATOM     16  C   UNL     1       7.491   4.906  14.531  0.00  0.00    +0.000 A 
ENDBRANCH   7  14
ENDBRANCH   1   7
BRANCH   6  17
ATOM     17  C   UNL     1       2.841   5.777  19.838  0.00  0.00    +0.000 C 
BRANCH  17  18
ATOM     18  C   UNL     1       2.189   7.148  19.817  0.00  0.00    +0.000 C 
ATOM     19  O   UNL     1       2.259   7.887  18.841  0.00  0.00    +0.000 OA
ATOM     20  N   UNL     1       1.557   7.467  21.016  0.00  0.00    +0.000 N 
ATOM     21  H   UNL     1       1.827   6.925  21.829  0.00  0.00    +0.000 HD
BRANCH  20  22
ATOM     22  C   UNL     1       0.882   8.685  21.243  0.00  0.00    +0.000 A 
ATOM     23  C   UNL     1       0.605   9.155  22.529  0.00  0.00    +0.000 A 
ATOM     24  C   UNL     1      -0.205  10.274  22.717  0.00  0.00    +0.000 A 
ATOM     25  C   UNL     1      -0.721  10.940  21.616  0.00  0.00    +0.000 A 
ATOM     26  F   UNL     1      -1.545  11.973  21.832  0.00  0.00    +0.000 F 
ATOM     27  C   UNL     1      -0.405  10.542  20.319  0.00  0.00    +0.000 A 
ATOM     28  C   UNL     1       0.434   9.422  20.139  0.00  0.00    +0.000 A 
BRANCH  27  29
ATOM     29  C   UNL     1      -0.979  11.264  19.138  0.00  0.00    +0.000 C 
ATOM     30  F   UNL     1      -0.625  12.573  19.028  0.00  0.00    +0.000 F 
ATOM     31  F   UNL     1      -0.622  10.682  17.958  0.00  0.00    +0.000 F 
ATOM     32  F   UNL     1      -2.342  11.254  19.151  0.00  0.00    +0.000 F 
ENDBRANCH  27  29
ENDBRANCH  20  22
ENDBRANCH  17  18
ENDBRANCH   6  17
TORSDOF 6
ENDMDL
MODEL 3
REMARK VINA RESULT:      -8.6      0.814      1.184
REMARK  Name = 
REMARK  7 active torsions:
REMARK  status: ('A' for Active; 'I' for Inactive)
REMARK    1  A    between atoms: C_1  and  C_2
REMARK    2  A    between atoms: C_5  and  S_6
REMARK    3  A    between atoms: S_6  and  N_9
REMARK    4  A    between atoms: C_14  and  C_15
REMARK    5  A    between atoms: C_15  and  C_16
REMARK    6  A    between atoms: N_18  and  C_19
REMARK    7  A    between atoms: C_24  and  C_25
REMARK                            x       y       z     vdW  Elec       q    Type
REMARK                         _______ _______ _______ _____ _____    ______ ____
ROOT
ATOM      1  N   UNL     1       3.959   4.127  18.097  0.00  0.00    +0.000 NA
ATOM      2  C   UNL     1       4.079   2.866  18.882  0.00  0.00    +0.000 C 
ATOM      3  C   UNL     1       2.792   2.047  18.838  0.00  0.00    +0.000 C 
ATOM      4  C   UNL     1       1.578   2.874  19.235  0.00  0.00    +0.000 C 
ATOM      5  C   UNL     1       1.496   4.097  18.335  0.00  0.00    +0.000 C 
ATOM      6  C   UNL     1       2.755   4.981  18.432  0.00  0.00    +0.000 C 
ENDROOT
BRANCH   1   7
ATOM      7  S   UNL     1       5.433   4.987  17.899  0.00  0.00    +0.000 S 
ATOM      8  O   UNL     1       6.445   4.277  18.645  0.00  0.00    +0.000 OA
ATOM      9  O   UNL     1       5.171   6.393  18.144  0.00  0.00    +0.000 OA
BRANCH   7  14
ATOM     10  C   UNL     1       6.934   3.760  12.165  0.00  0.00    +0.000 C 
ATOM     11  C   UNL     1       6.525   4.223  13.535  0.00  0.00    +0.000 A 
ATOM     12  C   UNL     1       7.459   4.794  14.410  0.00  0.00    +0.000 A 
ATOM     13  C   UNL     1       7.100   5.107  15.724  0.00  0.00    +0.000 A 
ATOM     14  C   UNL     1       5.799   4.853  16.165  0.00  0.00    +0.000 A 
ATOM     15  C   UNL     1       4.844   4.329  15.290  0.00  0.00    +0.000 A 
ATOM     16  C   UNL     1       5.213   4.006  13.981  0.00  0.00    +0.000 A 
ENDBRANCH   7  14
ENDBRANCH   1   7
BRANCH   6  17
ATOM     17  C   UNL     1       2.916   5.717  19.778  0.00  0.00    +0.000 C 
BRANCH  17  18
ATOM     18  C   UNL     1       2.256   7.084  19.765  0.00  0.00    +0.000 C 
ATOM     19  O   UNL     1       2.314   7.826  18.791  0.00  0.00    +0.000 OA
ATOM     20  N   UNL     1       1.631   7.396  20.970  0.00  0.00    +0.000 N 
ATOM     21  H   UNL     1       1.911   6.854  21.780  0.00  0.00    +0.000 HD
BRANCH  20  22
ATOM     22  C   UNL     1       0.951   8.610  21.205  0.00  0.00    +0.000 A 
ATOM     23  C   UNL     1       0.701   9.087  22.494  0.00  0.00    +0.000 A 
ATOM     24  C   UNL     1      -0.114  10.200  22.694  0.00  0.00    +0.000 A 
ATOM     25  C   UNL     1      -0.663  10.853  21.601  0.00  0.00    +0.000 A 
ATOM     26  F   UNL     1      -1.491  11.880  21.830  0.00  0.00    +0.000 F 
ATOM     27  C   UNL     1      -0.375  10.449  20.300  0.00  0.00    +0.000 A 
ATOM     28  C   UNL     1       0.470   9.335  20.107  0.00  0.00    +0.000 A 
BRANCH  27  29
ATOM     29  C   UNL     1      -0.983  11.158  19.128  0.00  0.00    +0.000 C 
ATOM     30  F   UNL     1      -2.343  11.208  19.120  0.00  0.00    +0.000 F 
ATOM     31  F   UNL     1      -0.563  12.451  19.035  0.00  0.00    +0.000 F 
ATOM     32  F   UNL     1      -0.633  10.576  17.946  0.00  0.00    +0.000 F 
ENDBRANCH  27  29
ENDBRANCH  20  22
ENDBRANCH  17  18
ENDBRANCH   6  17
TORSDOF 6
ENDMDL
MODEL 4
REMARK VINA RESULT:      -8.6      1.228      1.834
REMARK  Name = 
REMARK  7 active torsions:
REMARK  status: ('A' for Active; 'I' for Inactive)
REMARK    1  A    between atoms: C_1  and  C_2
REMARK    2  A    between atoms: C_5  and  S_6
REMARK    3  A    between atoms: S_6  and  N_9
REMARK    4  A    between atoms: C_14  and  C_15
REMARK    5  A    between atoms: C_15  and  C_16
REMARK    6  A    between atoms: N_18  and  C_19
REMARK    7  A    between atoms: C_24  and  C_25
REMARK                            x       y       z     vdW  Elec       q    Type
REMARK                         _______ _______ _______ _____ _____    ______ ____
ROOT
ATOM      1  N   UNL     1       4.160   4.437  17.959  0.00  0.00    +0.000 NA
ATOM      2  C   UNL     1       4.196   3.230  18.832  0.00  0.00    +0.000 C 
ATOM      3  C   UNL     1       2.844   2.523  18.876  0.00  0.00    +0.000 C 
ATOM      4  C   UNL     1       1.714   3.476  19.237  0.00  0.00    +0.000 C 
ATOM      5  C   UNL     1       1.710   4.635  18.253  0.00  0.00    +0.000 C 
ATOM      6  C   UNL     1       3.041   5.413  18.258  0.00  0.00    +0.000 C 
ENDROOT
BRANCH   1   7
ATOM      7  S   UNL     1       5.694   5.153  17.667  0.00  0.00    +0.000 S 
ATOM      8  O   UNL     1       6.670   4.382  18.400  0.00  0.00    +0.000 OA
ATOM      9  O   UNL     1       5.569   6.584  17.865  0.00  0.00    +0.000 OA
BRANCH   7  14
ATOM     10  C   UNL     1       6.932   3.617  11.945  0.00  0.00    +0.000 C 
ATOM     11  C   UNL     1       6.578   4.152  13.304  0.00  0.00    +0.000 A 
ATOM     12  C   UNL     1       7.533   4.815  14.087  0.00  0.00    +0.000 A 
ATOM     13  C   UNL     1       7.233   5.199  15.397  0.00  0.00    +0.000 A 
ATOM     14  C   UNL     1       5.970   4.921  15.927  0.00  0.00    +0.000 A 
ATOM     15  C   UNL     1       4.993   4.303  15.143  0.00  0.00    +0.000 A 
ATOM     16  C   UNL     1       5.304   3.912  13.838  0.00  0.00    +0.000 A 
ENDBRANCH   7  14
ENDBRANCH   1   7
BRANCH   6  17
ATOM     17  C   UNL     1       3.300   6.226  19.542  0.00  0.00    +0.000 C 
BRANCH  17  18
ATOM     18  C   UNL     1       2.160   7.178  19.857  0.00  0.00    +0.000 C 
ATOM     19  O   UNL     1       1.377   6.974  20.778  0.00  0.00    +0.000 OA
ATOM     20  N   UNL     1       2.094   8.254  18.976  0.00  0.00    +0.000 N 
ATOM     21  H   UNL     1       2.585   8.151  18.096  0.00  0.00    +0.000 HD
BRANCH  20  22
ATOM     22  C   UNL     1       1.121   9.274  19.060  0.00  0.00    +0.000 A 
ATOM     23  C   UNL     1       1.070  10.169  20.131  0.00  0.00    +0.000 A 
ATOM     24  C   UNL     1       0.002  11.055  20.266  0.00  0.00    +0.000 A 
ATOM     25  C   UNL     1      -1.007  11.063  19.316  0.00  0.00    +0.000 A 
ATOM     26  F   UNL     1      -2.049  11.882  19.507  0.00  0.00    +0.000 F 
ATOM     27  C   UNL     1      -0.949  10.235  18.197  0.00  0.00    +0.000 A 
ATOM     28  C   UNL     1       0.147   9.358  18.057  0.00  0.00    +0.000 A 
BRANCH  27  29
ATOM     29  C   UNL     1      -2.052  10.246  17.182  0.00  0.00    +0.000 C 
ATOM     30  F   UNL     1      -1.843   9.467  16.086  0.00  0.00    +0.000 F 
ATOM     31  F   UNL     1      -3.240   9.835  17.710  0.00  0.00    +0.000 F 
ATOM     32  F   UNL     1      -2.284  11.500  16.698  0.00  0.00    +0.000 F 
ENDBRANCH  27  29
ENDBRANCH  20  22
ENDBRANCH  17  18
ENDBRANCH   6  17
TORSDOF 6
ENDMDL
MODEL 5
REMARK VINA RESULT:      -8.5      1.561      1.819
REMARK  Name = 
REMARK  7 active torsions:
REMARK  status: ('A' for Active; 'I' for Inactive)
REMARK    1  A    between atoms: C_1  and  C_2
REMARK    2  A    between atoms: C_5  and  S_6
REMARK    3  A    between atoms: S_6  and  N_9
REMARK    4  A    between atoms: C_14  and  C_15
REMARK    5  A    between atoms: C_15  and  C_16
REMARK    6  A    between atoms: N_18  and  C_19
REMARK    7  A    between atoms: C_24  and  C_25
REMARK                            x       y       z     vdW  Elec       q    Type
REMARK                         _______ _______ _______ _____ _____    ______ ____
ROOT
ATOM      1  N   UNL     1       3.808   4.469  17.834  0.00  0.00    +0.000 NA
ATOM      2  C   UNL     1       3.795   3.157  18.540  0.00  0.00    +0.000 C 
ATOM      3  C   UNL     1       2.445   2.458  18.413  0.00  0.00    +0.000 C 
ATOM      4  C   UNL     1       1.294   3.361  18.831  0.00  0.00    +0.000 C 
ATOM      5  C   UNL     1       1.345   4.639  18.008  0.00  0.00    +0.000 C 
ATOM      6  C   UNL     1       2.671   5.403  18.193  0.00  0.00    +0.000 C 
ENDROOT
BRANCH   1   7
ATOM      7  S   UNL     1       5.355   5.208  17.728  0.00  0.00    +0.000 S 
ATOM      8  O   UNL     1       6.184   4.608  18.747  0.00  0.00    +0.000 OA
ATOM      9  O   UNL     1       5.165   6.645  17.667  0.00  0.00    +0.000 OA
BRANCH   7  14
ATOM     10  C   UNL     1       7.112   4.272  12.012  0.00  0.00    +0.000 C 
ATOM     11  C   UNL     1       6.743   4.350  13.467  0.00  0.00    +0.000 A 
ATOM     12  C   UNL     1       5.511   3.860  13.923  0.00  0.00    +0.000 A 
ATOM     13  C   UNL     1       5.123   4.049  15.252  0.00  0.00    +0.000 A 
ATOM     14  C   UNL     1       5.971   4.727  16.132  0.00  0.00    +0.000 A 
ATOM     15  C   UNL     1       7.221   5.179  15.703  0.00  0.00    +0.000 A 
ATOM     16  C   UNL     1       7.598   4.998  14.369  0.00  0.00    +0.000 A 
ENDBRANCH   7  14
ENDBRANCH   1   7
BRANCH   6  17
ATOM     17  C   UNL     1       2.853   6.038  19.586  0.00  0.00    +0.000 C 
BRANCH  17  18
ATOM     18  C   UNL     1       2.135   7.370  19.707  0.00  0.00    +0.000 C 
ATOM     19  O   UNL     1       1.626   7.742  20.758  0.00  0.00    +0.000 OA
ATOM     20  N   UNL     1       2.094   8.075  18.507  0.00  0.00    +0.000 N 
ATOM     21  H   UNL     1       2.268   7.543  17.662  0.00  0.00    +0.000 HD
BRANCH  20  22
ATOM     22  C   UNL     1       1.480   9.338  18.363  0.00  0.00    +0.000 A 
ATOM     23  C   UNL     1       2.168  10.532  18.594  0.00  0.00    +0.000 A 
ATOM     24  C   UNL     1       1.492  11.751  18.604  0.00  0.00    +0.000 A 
ATOM     25  C   UNL     1       0.128  11.780  18.359  0.00  0.00    +0.000 A 
ATOM     26  F   UNL     1      -0.503  12.959  18.436  0.00  0.00    +0.000 F 
ATOM     27  C   UNL     1      -0.575  10.617  18.052  0.00  0.00    +0.000 A 
ATOM     28  C   UNL     1       0.123   9.391  18.021  0.00  0.00    +0.000 A 
BRANCH  27  29
ATOM     29  C   UNL     1      -2.052  10.661  17.799  0.00  0.00    +0.000 C 
ATOM     30  F   UNL     1      -2.804  11.139  18.828  0.00  0.00    +0.000 F 
ATOM     31  F   UNL     1      -2.365  11.432  16.720  0.00  0.00    +0.000 F 
ATOM     32  F   UNL     1      -2.556   9.425  17.522  0.00  0.00    +0.000 F 
ENDBRANCH  27  29
ENDBRANCH  20  22
ENDBRANCH  17  18
ENDBRANCH   6  17
TORSDOF 6
ENDMDL
MODEL 6
REMARK VINA RESULT:      -8.4      1.875      2.290
REMARK  Name = 
REMARK  7 active torsions:
REMARK  status: ('A' for Active; 'I' for Inactive)
REMARK    1  A    between atoms: C_1  and  C_2
REMARK    2  A    between atoms: C_5  and  S_6
REMARK    3  A    between atoms: S_6  and  N_9
REMARK    4  A    between atoms: C_14  and  C_15
REMARK    5  A    between atoms: C_15  and  C_16
REMARK    6  A    between atoms: N_18  and  C_19
REMARK    7  A    between atoms: C_24  and  C_25
REMARK                            x       y       z     vdW  Elec       q    Type
REMARK                         _______ _______ _______ _____ _____    ______ ____
ROOT
ATOM      1  N   UNL     1       4.089   4.513  18.082  0.00  0.00    +0.000 NA
ATOM      2  C   UNL     1       4.024   3.642  19.289  0.00  0.00    +0.000 C 
ATOM      3  C   UNL     1       2.688   2.913  19.391  0.00  0.00    +0.000 C 
ATOM      4  C   UNL     1       1.508   3.869  19.293  0.00  0.00    +0.000 C 
ATOM      5  C   UNL     1       1.619   4.660  17.999  0.00  0.00    +0.000 C 
ATOM      6  C   UNL     1       2.927   5.471  17.918  0.00  0.00    +0.000 C 
ENDROOT
BRANCH   1   7
ATOM      7  S   UNL     1       5.638   5.183  17.766  0.00  0.00    +0.000 S 
ATOM      8  O   UNL     1       6.601   4.394  18.499  0.00  0.00    +0.000 OA
ATOM      9  O   UNL     1       5.554   6.619  17.948  0.00  0.00    +0.000 OA
BRANCH   7  14
ATOM     10  C   UNL     1       6.836   3.575  12.055  0.00  0.00    +0.000 C 
ATOM     11  C   UNL     1       6.483   4.124  13.409  0.00  0.00    +0.000 A 
ATOM     12  C   UNL     1       7.418   4.854  14.155  0.00  0.00    +0.000 A 
ATOM     13  C   UNL     1       7.126   5.253  15.462  0.00  0.00    +0.000 A 
ATOM     14  C   UNL     1       5.891   4.923  16.026  0.00  0.00    +0.000 A 
ATOM     15  C   UNL     1       4.931   4.237  15.278  0.00  0.00    +0.000 A 
ATOM     16  C   UNL     1       5.235   3.831  13.976  0.00  0.00    +0.000 A 
ENDBRANCH   7  14
ENDBRANCH   1   7
BRANCH   6  17
ATOM     17  C   UNL     1       3.004   6.657  18.901  0.00  0.00    +0.000 C 
BRANCH  17  18
ATOM     18  C   UNL     1       2.416   7.927  18.313  0.00  0.00    +0.000 C 
ATOM     19  O   UNL     1       2.692   8.308  17.181  0.00  0.00    +0.000 OA
ATOM     20  N   UNL     1       1.583   8.602  19.202  0.00  0.00    +0.000 N 
ATOM     21  H   UNL     1       1.679   8.363  20.182  0.00  0.00    +0.000 HD
BRANCH  20  22
ATOM     22  C   UNL     1       0.920   9.807  18.889  0.00  0.00    +0.000 A 
ATOM     23  C   UNL     1       1.480  11.059  19.159  0.00  0.00    +0.000 A 
ATOM     24  C   UNL     1       0.733  12.223  18.989  0.00  0.00    +0.000 A 
ATOM     25  C   UNL     1      -0.571  12.139  18.527  0.00  0.00    +0.000 A 
ATOM     26  F   UNL     1      -1.282  13.271  18.434  0.00  0.00    +0.000 F 
ATOM     27  C   UNL     1      -1.136  10.915  18.178  0.00  0.00    +0.000 A 
ATOM     28  C   UNL     1      -0.364   9.744  18.331  0.00  0.00    +0.000 A 
BRANCH  27  29
ATOM     29  C   UNL     1      -2.550  10.838  17.690  0.00  0.00    +0.000 C 
ATOM     30  F   UNL     1      -3.482  11.390  18.514  0.00  0.00    +0.000 F 
ATOM     31  F   UNL     1      -2.711  11.451  16.483  0.00  0.00    +0.000 F 
ATOM     32  F   UNL     1      -2.952   9.549  17.499  0.00  0.00    +0.000 F 
ENDBRANCH  27  29
ENDBRANCH  20  22
ENDBRANCH  17  18
ENDBRANCH   6  17
TORSDOF 6
ENDMDL
MODEL 7
REMARK VINA RESULT:      -8.3      1.761      2.070
REMARK  Name = 
REMARK  7 active torsions:
REMARK  status: ('A' for Active; 'I' for Inactive)
REMARK    1  A    between atoms: C_1  and  C_2
REMARK    2  A    between atoms: C_5  and  S_6
REMARK    3  A    between atoms: S_6  and  N_9
REMARK    4  A    between atoms: C_14  and  C_15
REMARK    5  A    between atoms: C_15  and  C_16
REMARK    6  A    between atoms: N_18  and  C_19
REMARK    7  A    between atoms: C_24  and  C_25
REMARK                            x       y       z     vdW  Elec       q    Type
REMARK                         _______ _______ _______ _____ _____    ______ ____
ROOT
ATOM      1  N   UNL     1       4.045   4.836  18.072  0.00  0.00    +0.000 NA
ATOM      2  C   UNL     1       4.098   3.922  19.247  0.00  0.00    +0.000 C 
ATOM      3  C   UNL     1       2.809   3.119  19.399  0.00  0.00    +0.000 C 
ATOM      4  C   UNL     1       1.579   4.013  19.406  0.00  0.00    +0.000 C 
ATOM      5  C   UNL     1       1.570   4.853  18.139  0.00  0.00    +0.000 C 
ATOM      6  C   UNL     1       2.828   5.736  18.012  0.00  0.00    +0.000 C 
ENDROOT
BRANCH   1   7
ATOM      7  S   UNL     1       5.536   5.598  17.692  0.00  0.00    +0.000 S 
ATOM      8  O   UNL     1       6.491   5.191  18.695  0.00  0.00    +0.000 OA
ATOM      9  O   UNL     1       5.273   7.002  17.435  0.00  0.00    +0.000 OA
BRANCH   7  14
ATOM     10  C   UNL     1       6.792   3.864  12.030  0.00  0.00    +0.000 C 
ATOM     11  C   UNL     1       6.550   4.146  13.486  0.00  0.00    +0.000 A 
ATOM     12  C   UNL     1       5.362   3.740  14.109  0.00  0.00    +0.000 A 
ATOM     13  C   UNL     1       5.090   4.113  15.428  0.00  0.00    +0.000 A 
ATOM     14  C   UNL     1       6.012   4.895  16.130  0.00  0.00    +0.000 A 
ATOM     15  C   UNL     1       7.221   5.268  15.538  0.00  0.00    +0.000 A 
ATOM     16  C   UNL     1       7.481   4.901  14.215  0.00  0.00    +0.000 A 
ENDBRANCH   7  14
ENDBRANCH   1   7
BRANCH   6  17
ATOM     17  C   UNL     1       2.903   6.890  19.033  0.00  0.00    +0.000 C 
BRANCH  17  18
ATOM     18  C   UNL     1       2.184   8.134  18.544  0.00  0.00    +0.000 C 
ATOM     19  O   UNL     1       2.314   8.553  17.400  0.00  0.00    +0.000 OA
ATOM     20  N   UNL     1       1.416   8.741  19.535  0.00  0.00    +0.000 N 
ATOM     21  H   UNL     1       1.631   8.490  20.493  0.00  0.00    +0.000 HD
BRANCH  20  22
ATOM     22  C   UNL     1       0.656   9.912  19.326  0.00  0.00    +0.000 A 
ATOM     23  C   UNL     1       1.009  11.140  19.890  0.00  0.00    +0.000 A 
ATOM     24  C   UNL     1       0.151  12.235  19.801  0.00  0.00    +0.000 A 
ATOM     25  C   UNL     1      -1.053  12.109  19.125  0.00  0.00    +0.000 A 
ATOM     26  F   UNL     1      -1.882  13.161  19.110  0.00  0.00    +0.000 F 
ATOM     27  C   UNL     1      -1.402  10.921  18.487  0.00  0.00    +0.000 A 
ATOM     28  C   UNL     1      -0.517   9.825  18.564  0.00  0.00    +0.000 A 
BRANCH  27  29
ATOM     29  C   UNL     1      -2.711  10.796  17.770  0.00  0.00    +0.000 C 
ATOM     30  F   UNL     1      -3.021   9.543  17.338  0.00  0.00    +0.000 F 
ATOM     31  F   UNL     1      -3.761  11.192  18.543  0.00  0.00    +0.000 F 
ATOM     32  F   UNL     1      -2.759  11.586  16.659  0.00  0.00    +0.000 F 
ENDBRANCH  27  29
ENDBRANCH  20  22
ENDBRANCH  17  18
ENDBRANCH   6  17
TORSDOF 6
ENDMDL
MODEL 8
REMARK VINA RESULT:      -8.2      4.619     10.208
REMARK  Name = 
REMARK  7 active torsions:
REMARK  status: ('A' for Active; 'I' for Inactive)
REMARK    1  A    between atoms: C_1  and  C_2
REMARK    2  A    between atoms: C_5  and  S_6
REMARK    3  A    between atoms: S_6  and  N_9
REMARK    4  A    between atoms: C_14  and  C_15
REMARK    5  A    between atoms: C_15  and  C_16
REMARK    6  A    between atoms: N_18  and  C_19
REMARK    7  A    between atoms: C_24  and  C_25
REMARK                            x       y       z     vdW  Elec       q    Type
REMARK                         _______ _______ _______ _____ _____    ______ ____
ROOT
ATOM      1  N   UNL     1      -0.824  11.293  20.337  0.00  0.00    +0.000 NA
ATOM      2  C   UNL     1      -1.185  12.456  19.478  0.00  0.00    +0.000 C 
ATOM      3  C   UNL     1      -2.135  12.056  18.352  0.00  0.00    +0.000 C 
ATOM      4  C   UNL     1      -1.603  10.877  17.551  0.00  0.00    +0.000 C 
ATOM      5  C   UNL     1      -1.334   9.717  18.497  0.00  0.00    +0.000 C 
ATOM      6  C   UNL     1      -0.310  10.080  19.591  0.00  0.00    +0.000 C 
ENDROOT
BRANCH   1   7
ATOM      7  S   UNL     1       0.047  11.699  21.760  0.00  0.00    +0.000 S 
ATOM      8  O   UNL     1       1.115  12.588  21.366  0.00  0.00    +0.000 OA
ATOM      9  O   UNL     1       0.323  10.474  22.486  0.00  0.00    +0.000 OA
BRANCH   7  14
ATOM     10  C   UNL     1      -4.236  15.046  24.423  0.00  0.00    +0.000 C 
ATOM     11  C   UNL     1      -3.114  14.182  23.919  0.00  0.00    +0.000 A 
ATOM     12  C   UNL     1      -1.858  14.732  23.627  0.00  0.00    +0.000 A 
ATOM     13  C   UNL     1      -0.860  13.948  23.043  0.00  0.00    +0.000 A 
ATOM     14  C   UNL     1      -1.116  12.606  22.752  0.00  0.00    +0.000 A 
ATOM     15  C   UNL     1      -2.346  12.031  23.082  0.00  0.00    +0.000 A 
ATOM     16  C   UNL     1      -3.344  12.824  23.655  0.00  0.00    +0.000 A 
ENDBRANCH   7  14
ENDBRANCH   1   7
BRANCH   6  17
ATOM     17  C   UNL     1       1.131  10.275  19.077  0.00  0.00    +0.000 C 
BRANCH  17  18
ATOM     18  C   UNL     1       1.680   9.022  18.420  0.00  0.00    +0.000 C 
ATOM     19  O   UNL     1       1.820   8.933  17.205  0.00  0.00    +0.000 OA
ATOM     20  N   UNL     1       1.958   8.008  19.332  0.00  0.00    +0.000 N 
ATOM     21  H   UNL     1       1.520   8.084  20.243  0.00  0.00    +0.000 HD
BRANCH  20  22
ATOM     22  C   UNL     1       2.474   6.747  18.965  0.00  0.00    +0.000 A 
ATOM     23  C   UNL     1       3.559   6.610  18.094  0.00  0.00    +0.000 A 
ATOM     24  C   UNL     1       3.938   5.353  17.624  0.00  0.00    +0.000 A 
ATOM     25  C   UNL     1       3.246   4.227  18.044  0.00  0.00    +0.000 A 
ATOM     26  F   UNL     1       3.596   3.043  17.526  0.00  0.00    +0.000 F 
ATOM     27  C   UNL     1       2.208   4.320  18.968  0.00  0.00    +0.000 A 
ATOM     28  C   UNL     1       1.847   5.594  19.455  0.00  0.00    +0.000 A 
BRANCH  27  29
ATOM     29  C   UNL     1       1.462   3.096  19.404  0.00  0.00    +0.000 C 
ATOM     30  F   UNL     1       0.606   2.577  18.482  0.00  0.00    +0.000 F 
ATOM     31  F   UNL     1       2.302   2.078  19.747  0.00  0.00    +0.000 F 
ATOM     32  F   UNL     1       0.705   3.332  20.513  0.00  0.00    +0.000 F 
ENDBRANCH  27  29
ENDBRANCH  20  22
ENDBRANCH  17  18
ENDBRANCH   6  17
TORSDOF 6
ENDMDL
MODEL 9
REMARK VINA RESULT:      -8.2      1.089      2.127
REMARK  Name = 
REMARK  7 active torsions:
REMARK  status: ('A' for Active; 'I' for Inactive)
REMARK    1  A    between atoms: C_1  and  C_2
REMARK    2  A    between atoms: C_5  and  S_6
REMARK    3  A    between atoms: S_6  and  N_9
REMARK    4  A    between atoms: C_14  and  C_15
REMARK    5  A    between atoms: C_15  and  C_16
REMARK    6  A    between atoms: N_18  and  C_19
REMARK    7  A    between atoms: C_24  and  C_25
REMARK                            x       y       z     vdW  Elec       q    Type
REMARK                         _______ _______ _______ _____ _____    ______ ____
ROOT
ATOM      1  N   UNL     1       3.769   3.954  18.104  0.00  0.00    +0.000 NA
ATOM      2  C   UNL     1       3.986   2.616  18.721  0.00  0.00    +0.000 C 
ATOM      3  C   UNL     1       2.747   1.731  18.606  0.00  0.00    +0.000 C 
ATOM      4  C   UNL     1       1.501   2.427  19.133  0.00  0.00    +0.000 C 
ATOM      5  C   UNL     1       1.320   3.745  18.396  0.00  0.00    +0.000 C 
ATOM      6  C   UNL     1       2.529   4.685  18.573  0.00  0.00    +0.000 C 
ENDROOT
BRANCH   1   7
ATOM      7  S   UNL     1       5.184   4.921  17.981  0.00  0.00    +0.000 S 
ATOM      8  O   UNL     1       6.209   4.279  18.770  0.00  0.00    +0.000 OA
ATOM      9  O   UNL     1       4.809   6.302  18.221  0.00  0.00    +0.000 OA
BRANCH   7  14
ATOM     10  C   UNL     1       7.030   3.854  12.316  0.00  0.00    +0.000 C 
ATOM     11  C   UNL     1       6.527   4.275  13.668  0.00  0.00    +0.000 A 
ATOM     12  C   UNL     1       7.380   4.896  14.591  0.00  0.00    +0.000 A 
ATOM     13  C   UNL     1       6.940   5.172  15.888  0.00  0.00    +0.000 A 
ATOM     14  C   UNL     1       5.639   4.829  16.265  0.00  0.00    +0.000 A 
ATOM     15  C   UNL     1       4.763   4.253  15.342  0.00  0.00    +0.000 A 
ATOM     16  C   UNL     1       5.213   3.969  14.050  0.00  0.00    +0.000 A 
ENDBRANCH   7  14
ENDBRANCH   1   7
BRANCH   6  17
ATOM     17  C   UNL     1       2.689   5.257  19.997  0.00  0.00    +0.000 C 
BRANCH  17  18
ATOM     18  C   UNL     1       2.044   6.623  20.142  0.00  0.00    +0.000 C 
ATOM     19  O   UNL     1       1.370   6.923  21.121  0.00  0.00    +0.000 OA
ATOM     20  N   UNL     1       2.272   7.450  19.045  0.00  0.00    +0.000 N 
ATOM     21  H   UNL     1       2.568   6.996  18.189  0.00  0.00    +0.000 HD
BRANCH  20  22
ATOM     22  C   UNL     1       1.774   8.766  18.943  0.00  0.00    +0.000 A 
ATOM     23  C   UNL     1       2.190   9.645  17.939  0.00  0.00    +0.000 A 
ATOM     24  C   UNL     1       1.806  10.985  17.964  0.00  0.00    +0.000 A 
ATOM     25  C   UNL     1       0.984  11.443  18.982  0.00  0.00    +0.000 A 
ATOM     26  F   UNL     1       0.683  12.748  19.011  0.00  0.00    +0.000 F 
ATOM     27  C   UNL     1       0.491  10.579  19.956  0.00  0.00    +0.000 A 
ATOM     28  C   UNL     1       0.867   9.219  19.910  0.00  0.00    +0.000 A 
BRANCH  27  29
ATOM     29  C   UNL     1      -0.389  11.090  21.056  0.00  0.00    +0.000 C 
ATOM     30  F   UNL     1      -1.559  11.655  20.652  0.00  0.00    +0.000 F 
ATOM     31  F   UNL     1      -0.734  10.108  21.936  0.00  0.00    +0.000 F 
ATOM     32  F   UNL     1       0.237  12.044  21.803  0.00  0.00    +0.000 F 
ENDBRANCH  27  29
ENDBRANCH  20  22
ENDBRANCH  17  18
ENDBRANCH   6  17
TORSDOF 6
ENDMDL
