MODEL 1
REMARK VINA RESULT:      -7.8      0.000      0.000
REMARK  Name = 
REMARK  0 active torsions:
REMARK  status: ('A' for Active; 'I' for Inactive)
REMARK                            x       y       z     vdW  Elec       q    Type
REMARK                         _______ _______ _______ _____ _____    ______ ____
ROOT
ATOM      1  C   UNL     1       1.377   8.990  19.330  0.00  0.00    +0.000 A 
ATOM      2  C   UNL     1       0.891  10.189  19.668  0.00  0.00    +0.000 A 
ATOM      3  C   UNL     1       0.568  10.423  21.012  0.00  0.00    +0.000 A 
ATOM      4  N   UNL     1       0.092  11.455  21.672  0.00  0.00    +0.000 NA
ATOM      5  N   UNL     1      -0.016  11.037  22.978  0.00  0.00    +0.000 NA
ATOM      6  N   UNL     1       0.380   9.777  23.119  0.00  0.00    +0.000 NA
ATOM      7  N   UNL     1       0.752   9.379  21.892  0.00  0.00    +0.000 N 
ATOM      8  N   UNL     1       1.230   8.138  21.642  0.00  0.00    +0.000 NA
ATOM      9  C   UNL     1       1.570   7.933  20.394  0.00  0.00    +0.000 A 
ATOM     10  N   UNL     1       2.084   6.696  20.031  0.00  0.00    +0.000 N 
ATOM     11  C   UNL     1       3.099   6.507  18.994  0.00  0.00    +0.000 C 
ATOM     12  C   UNL     1       2.594   5.470  18.002  0.00  0.00    +0.000 C 
ATOM     13  C   UNL     1       2.253   4.164  18.721  0.00  0.00    +0.000 C 
ATOM     14  C   UNL     1       1.317   4.398  19.909  0.00  0.00    +0.000 C 
ATOM     15  C   UNL     1       1.847   5.491  20.832  0.00  0.00    +0.000 C 
ATOM     16  O   UNL     1       3.476   3.554  19.174  0.00  0.00    +0.000 OA
ATOM     17  C   UNL     1       3.369   2.184  18.787  0.00  0.00    +0.000 C 
ATOM     18  C   UNL     1       2.539   2.239  17.535  0.00  0.00    +0.000 C 
ATOM     19  O   UNL     1       1.597   3.277  17.798  0.00  0.00    +0.000 OA
ENDROOT
TORSDOF 0
ENDMDL
MODEL 2
REMARK VINA RESULT:      -7.4      1.193      1.422
REMARK  Name = 
REMARK  0 active torsions:
REMARK  status: ('A' for Active; 'I' for Inactive)
REMARK                            x       y       z     vdW  Elec       q    Type
REMARK                         _______ _______ _______ _____ _____    ______ ____
ROOT
ATOM      1  C   UNL     1       2.062   8.559  17.985  0.00  0.00    +0.000 A 
ATOM      2  C   UNL     1       1.543   9.790  17.931  0.00  0.00    +0.000 A 
ATOM      3  C   UNL     1       0.998  10.336  19.102  0.00  0.00    +0.000 A 
ATOM      4  N   UNL     1       0.431  11.485  19.397  0.00  0.00    +0.000 NA
ATOM      5  N   UNL     1       0.093  11.394  20.727  0.00  0.00    +0.000 NA
ATOM      6  N   UNL     1       0.439  10.219  21.238  0.00  0.00    +0.000 NA
ATOM      7  N   UNL     1       1.010   9.544  20.228  0.00  0.00    +0.000 N 
ATOM      8  N   UNL     1       1.505   8.292  20.375  0.00  0.00    +0.000 NA
ATOM      9  C   UNL     1       2.051   7.799  19.293  0.00  0.00    +0.000 A 
ATOM     10  N   UNL     1       2.602   6.525  19.337  0.00  0.00    +0.000 N 
ATOM     11  C   UNL     1       3.777   6.116  18.568  0.00  0.00    +0.000 C 
ATOM     12  C   UNL     1       3.434   4.855  17.789  0.00  0.00    +0.000 C 
ATOM     13  C   UNL     1       2.954   3.756  18.737  0.00  0.00    +0.000 C 
ATOM     14  C   UNL     1       1.831   4.246  19.653  0.00  0.00    +0.000 C 
ATOM     15  C   UNL     1       2.210   5.546  20.357  0.00  0.00    +0.000 C 
ATOM     16  O   UNL     1       4.071   3.307  19.527  0.00  0.00    +0.000 OA
ATOM     17  C   UNL     1       4.010   1.883  19.476  0.00  0.00    +0.000 C 
ATOM     18  C   UNL     1       3.410   1.608  18.125  0.00  0.00    +0.000 C 
ATOM     19  O   UNL     1       2.453   2.653  17.961  0.00  0.00    +0.000 OA
ENDROOT
TORSDOF 0
ENDMDL
MODEL 3
REMARK VINA RESULT:      -7.3      5.115      7.509
REMARK  Name = 
REMARK  0 active torsions:
REMARK  status: ('A' for Active; 'I' for Inactive)
REMARK                            x       y       z     vdW  Elec       q    Type
REMARK                         _______ _______ _______ _____ _____    ______ ____
ROOT
ATOM      1  C   UNL     1       6.224   5.515  16.900  0.00  0.00    +0.000 A 
ATOM      2  C   UNL     1       7.192   5.786  16.017  0.00  0.00    +0.000 A 
ATOM      3  C   UNL     1       7.112   5.206  14.743  0.00  0.00    +0.000 A 
ATOM      4  N   UNL     1       7.861   5.262  13.664  0.00  0.00    +0.000 NA
ATOM      5  N   UNL     1       7.242   4.446  12.746  0.00  0.00    +0.000 NA
ATOM      6  N   UNL     1       6.141   3.899  13.246  0.00  0.00    +0.000 NA
ATOM      7  N   UNL     1       6.046   4.368  14.500  0.00  0.00    +0.000 N 
ATOM      8  N   UNL     1       5.029   4.034  15.328  0.00  0.00    +0.000 NA
ATOM      9  C   UNL     1       5.081   4.608  16.504  0.00  0.00    +0.000 A 
ATOM     10  N   UNL     1       4.078   4.344  17.427  0.00  0.00    +0.000 N 
ATOM     11  C   UNL     1       3.586   5.320  18.399  0.00  0.00    +0.000 C 
ATOM     12  C   UNL     1       3.648   4.699  19.787  0.00  0.00    +0.000 C 
ATOM     13  C   UNL     1       2.851   3.395  19.824  0.00  0.00    +0.000 C 
ATOM     14  C   UNL     1       3.263   2.444  18.698  0.00  0.00    +0.000 C 
ATOM     15  C   UNL     1       3.241   3.142  17.341  0.00  0.00    +0.000 C 
ATOM     16  O   UNL     1       1.450   3.707  19.714  0.00  0.00    +0.000 OA
ATOM     17  C   UNL     1       0.819   2.935  20.736  0.00  0.00    +0.000 C 
ATOM     18  C   UNL     1       1.869   2.854  21.809  0.00  0.00    +0.000 C 
ATOM     19  O   UNL     1       3.090   2.734  21.080  0.00  0.00    +0.000 OA
ENDROOT
TORSDOF 0
ENDMDL
MODEL 4
REMARK VINA RESULT:      -7.0      3.477      6.776
REMARK  Name = 
REMARK  0 active torsions:
REMARK  status: ('A' for Active; 'I' for Inactive)
REMARK                            x       y       z     vdW  Elec       q    Type
REMARK                         _______ _______ _______ _____ _____    ______ ____
ROOT
ATOM      1  C   UNL     1       1.529   5.445  20.750  0.00  0.00    +0.000 A 
ATOM      2  C   UNL     1       1.876   4.164  20.915  0.00  0.00    +0.000 A 
ATOM      3  C   UNL     1       3.041   3.703  20.285  0.00  0.00    +0.000 A 
ATOM      4  N   UNL     1       3.659   2.543  20.242  0.00  0.00    +0.000 NA
ATOM      5  N   UNL     1       4.750   2.741  19.428  0.00  0.00    +0.000 NA
ATOM      6  N   UNL     1       4.802   3.988  18.978  0.00  0.00    +0.000 NA
ATOM      7  N   UNL     1       3.734   4.605  19.510  0.00  0.00    +0.000 N 
ATOM      8  N   UNL     1       3.458   5.910  19.281  0.00  0.00    +0.000 NA
ATOM      9  C   UNL     1       2.393   6.352  19.903  0.00  0.00    +0.000 A 
ATOM     10  N   UNL     1       2.026   7.681  19.748  0.00  0.00    +0.000 N 
ATOM     11  C   UNL     1       1.396   8.482  20.797  0.00  0.00    +0.000 C 
ATOM     12  C   UNL     1       0.126   9.106  20.238  0.00  0.00    +0.000 C 
ATOM     13  C   UNL     1       0.443   9.934  18.992  0.00  0.00    +0.000 C 
ATOM     14  C   UNL     1       1.248   9.133  17.966  0.00  0.00    +0.000 C 
ATOM     15  C   UNL     1       2.472   8.481  18.602  0.00  0.00    +0.000 C 
ATOM     16  O   UNL     1       1.183  11.103  19.390  0.00  0.00    +0.000 OA
ATOM     17  C   UNL     1       0.553  12.188  18.710  0.00  0.00    +0.000 C 
ATOM     18  C   UNL     1      -0.881  11.750  18.608  0.00  0.00    +0.000 C 
ATOM     19  O   UNL     1      -0.790  10.345  18.375  0.00  0.00    +0.000 OA
ENDROOT
TORSDOF 0
ENDMDL
MODEL 5
REMARK VINA RESULT:      -6.9      5.428      7.858
REMARK  Name = 
REMARK  0 active torsions:
REMARK  status: ('A' for Active; 'I' for Inactive)
REMARK                            x       y       z     vdW  Elec       q    Type
REMARK                         _______ _______ _______ _____ _____    ______ ____
ROOT
ATOM      1  C   UNL     1       5.010   3.568  14.589  0.00  0.00    +0.000 A 
ATOM      2  C   UNL     1       5.652   3.737  13.428  0.00  0.00    +0.000 A 
ATOM      3  C   UNL     1       6.805   4.535  13.414  0.00  0.00    +0.000 A 
ATOM      4  N   UNL     1       7.657   4.894  12.479  0.00  0.00    +0.000 NA
ATOM      5  N   UNL     1       8.569   5.708  13.109  0.00  0.00    +0.000 NA
ATOM      6  N   UNL     1       8.285   5.851  14.398  0.00  0.00    +0.000 NA
ATOM      7  N   UNL     1       7.179   5.118  14.604  0.00  0.00    +0.000 N 
ATOM      8  N   UNL     1       6.592   5.009  15.819  0.00  0.00    +0.000 NA
ATOM      9  C   UNL     1       5.540   4.231  15.841  0.00  0.00    +0.000 A 
ATOM     10  N   UNL     1       4.869   4.040  17.041  0.00  0.00    +0.000 N 
ATOM     11  C   UNL     1       4.207   2.790  17.417  0.00  0.00    +0.000 C 
ATOM     12  C   UNL     1       2.772   3.099  17.815  0.00  0.00    +0.000 C 
ATOM     13  C   UNL     1       2.742   4.130  18.944  0.00  0.00    +0.000 C 
ATOM     14  C   UNL     1       3.574   5.368  18.605  0.00  0.00    +0.000 C 
ATOM     15  C   UNL     1       4.982   4.989  18.153  0.00  0.00    +0.000 C 
ATOM     16  O   UNL     1       3.245   3.514  20.145  0.00  0.00    +0.000 OA
ATOM     17  C   UNL     1       2.310   3.873  21.162  0.00  0.00    +0.000 C 
ATOM     18  C   UNL     1       1.009   3.981  20.418  0.00  0.00    +0.000 C 
ATOM     19  O   UNL     1       1.382   4.547  19.162  0.00  0.00    +0.000 OA
ENDROOT
TORSDOF 0
ENDMDL
MODEL 6
REMARK VINA RESULT:      -6.7      2.785      3.622
REMARK  Name = 
REMARK  0 active torsions:
REMARK  status: ('A' for Active; 'I' for Inactive)
REMARK                            x       y       z     vdW  Elec       q    Type
REMARK                         _______ _______ _______ _____ _____    ______ ____
ROOT
ATOM      1  C   UNL     1       1.975   7.529  20.509  0.00  0.00    +0.000 A 
ATOM      2  C   UNL     1       1.077   8.318  21.109  0.00  0.00    +0.000 A 
ATOM      3  C   UNL     1       0.443   9.306  20.342  0.00  0.00    +0.000 A 
ATOM      4  N   UNL     1      -0.467  10.220  20.601  0.00  0.00    +0.000 NA
ATOM      5  N   UNL     1      -0.656  10.893  19.417  0.00  0.00    +0.000 NA
ATOM      6  N   UNL     1       0.120  10.411  18.454  0.00  0.00    +0.000 NA
ATOM      7  N   UNL     1       0.815   9.411  19.021  0.00  0.00    +0.000 N 
ATOM      8  N   UNL     1       1.712   8.666  18.334  0.00  0.00    +0.000 NA
ATOM      9  C   UNL     1       2.274   7.717  19.039  0.00  0.00    +0.000 A 
ATOM     10  N   UNL     1       3.202   6.884  18.427  0.00  0.00    +0.000 N 
ATOM     11  C   UNL     1       3.378   5.471  18.764  0.00  0.00    +0.000 C 
ATOM     12  C   UNL     1       4.847   5.222  19.070  0.00  0.00    +0.000 C 
ATOM     13  C   UNL     1       5.718   5.646  17.886  0.00  0.00    +0.000 C 
ATOM     14  C   UNL     1       5.408   7.076  17.437  0.00  0.00    +0.000 C 
ATOM     15  C   UNL     1       3.914   7.279  17.207  0.00  0.00    +0.000 C 
ATOM     16  O   UNL     1       5.494   4.730  16.798  0.00  0.00    +0.000 OA
ATOM     17  C   UNL     1       6.798   4.391  16.329  0.00  0.00    +0.000 C 
ATOM     18  C   UNL     1       7.647   4.475  17.567  0.00  0.00    +0.000 C 
ATOM     19  O   UNL     1       7.101   5.586  18.276  0.00  0.00    +0.000 OA
ENDROOT
TORSDOF 0
ENDMDL
MODEL 7
REMARK VINA RESULT:      -6.6      3.565      7.097
REMARK  Name = 
REMARK  0 active torsions:
REMARK  status: ('A' for Active; 'I' for Inactive)
REMARK                            x       y       z     vdW  Elec       q    Type
REMARK                         _______ _______ _______ _____ _____    ______ ____
ROOT
ATOM      1  C   UNL     1       2.053   5.475  19.571  0.00  0.00    +0.000 A 
ATOM      2  C   UNL     1       2.500   4.253  19.261  0.00  0.00    +0.000 A 
ATOM      3  C   UNL     1       3.432   4.130  18.220  0.00  0.00    +0.000 A 
ATOM      4  N   UNL     1       4.066   3.115  17.677  0.00  0.00    +0.000 NA
ATOM      5  N   UNL     1       4.837   3.659  16.676  0.00  0.00    +0.000 NA
ATOM      6  N   UNL     1       4.680   4.975  16.602  0.00  0.00    +0.000 NA
ATOM      7  N   UNL     1       3.801   5.285  17.568  0.00  0.00    +0.000 N 
ATOM      8  N   UNL     1       3.400   6.555  17.807  0.00  0.00    +0.000 NA
ATOM      9  C   UNL     1       2.561   6.676  18.805  0.00  0.00    +0.000 A 
ATOM     10  N   UNL     1       2.095   7.939  19.144  0.00  0.00    +0.000 N 
ATOM     11  C   UNL     1       1.782   8.354  20.512  0.00  0.00    +0.000 C 
ATOM     12  C   UNL     1       0.371   8.921  20.538  0.00  0.00    +0.000 C 
ATOM     13  C   UNL     1       0.239  10.073  19.542  0.00  0.00    +0.000 C 
ATOM     14  C   UNL     1       0.725   9.674  18.146  0.00  0.00    +0.000 C 
ATOM     15  C   UNL     1       2.119   9.056  18.194  0.00  0.00    +0.000 C 
ATOM     16  O   UNL     1       1.005  11.192  20.026  0.00  0.00    +0.000 OA
ATOM     17  C   UNL     1       0.139  12.317  19.890  0.00  0.00    +0.000 C 
ATOM     18  C   UNL     1      -1.231  11.729  20.082  0.00  0.00    +0.000 C 
ATOM     19  O   UNL     1      -1.144  10.455  19.445  0.00  0.00    +0.000 OA
ENDROOT
TORSDOF 0
ENDMDL
MODEL 8
REMARK VINA RESULT:      -6.5      5.007      6.348
REMARK  Name = 
REMARK  0 active torsions:
REMARK  status: ('A' for Active; 'I' for Inactive)
REMARK                            x       y       z     vdW  Elec       q    Type
REMARK                         _______ _______ _______ _____ _____    ______ ____
ROOT
ATOM      1  C   UNL     1       2.487   4.691  17.937  0.00  0.00    +0.000 A 
ATOM      2  C   UNL     1       1.542   4.367  18.826  0.00  0.00    +0.000 A 
ATOM      3  C   UNL     1       1.927   3.676  19.984  0.00  0.00    +0.000 A 
ATOM      4  N   UNL     1       1.280   3.223  21.036  0.00  0.00    +0.000 NA
ATOM      5  N   UNL     1       2.234   2.616  21.818  0.00  0.00    +0.000 NA
ATOM      6  N   UNL     1       3.437   2.688  21.262  0.00  0.00    +0.000 NA
ATOM      7  N   UNL     1       3.259   3.354  20.109  0.00  0.00    +0.000 N 
ATOM      8  N   UNL     1       4.279   3.634  19.265  0.00  0.00    +0.000 NA
ATOM      9  C   UNL     1       3.927   4.314  18.203  0.00  0.00    +0.000 A 
ATOM     10  N   UNL     1       4.899   4.666  17.276  0.00  0.00    +0.000 N 
ATOM     11  C   UNL     1       4.875   5.905  16.498  0.00  0.00    +0.000 C 
ATOM     12  C   UNL     1       5.017   5.557  15.024  0.00  0.00    +0.000 C 
ATOM     13  C   UNL     1       6.295   4.751  14.786  0.00  0.00    +0.000 C 
ATOM     14  C   UNL     1       6.387   3.544  15.722  0.00  0.00    +0.000 C 
ATOM     15  C   UNL     1       6.174   3.948  17.178  0.00  0.00    +0.000 C 
ATOM     16  O   UNL     1       7.429   5.615  14.986  0.00  0.00    +0.000 OA
ATOM     17  C   UNL     1       8.279   5.372  13.865  0.00  0.00    +0.000 C 
ATOM     18  C   UNL     1       7.314   5.024  12.766  0.00  0.00    +0.000 C 
ATOM     19  O   UNL     1       6.301   4.271  13.430  0.00  0.00    +0.000 OA
ENDROOT
TORSDOF 0
ENDMDL
MODEL 9
REMARK VINA RESULT:      -6.5      2.798      3.276
REMARK  Name = 
REMARK  0 active torsions:
REMARK  status: ('A' for Active; 'I' for Inactive)
REMARK                            x       y       z     vdW  Elec       q    Type
REMARK                         _______ _______ _______ _____ _____    ______ ____
ROOT
ATOM      1  C   UNL     1       2.218   8.838  17.690  0.00  0.00    +0.000 A 
ATOM      2  C   UNL     1       1.239   9.580  18.221  0.00  0.00    +0.000 A 
ATOM      3  C   UNL     1       0.794   9.269  19.513  0.00  0.00    +0.000 A 
ATOM      4  N   UNL     1      -0.115   9.779  20.315  0.00  0.00    +0.000 NA
ATOM      5  N   UNL     1      -0.078   9.004  21.450  0.00  0.00    +0.000 NA
ATOM      6  N   UNL     1       0.826   8.037  21.350  0.00  0.00    +0.000 NA
ATOM      7  N   UNL     1       1.384   8.193  20.138  0.00  0.00    +0.000 N 
ATOM      8  N   UNL     1       2.370   7.387  19.681  0.00  0.00    +0.000 NA
ATOM      9  C   UNL     1       2.814   7.703  18.490  0.00  0.00    +0.000 A 
ATOM     10  N   UNL     1       3.836   6.947  17.931  0.00  0.00    +0.000 N 
ATOM     11  C   UNL     1       4.870   7.495  17.054  0.00  0.00    +0.000 C 
ATOM     12  C   UNL     1       4.914   6.669  15.777  0.00  0.00    +0.000 C 
ATOM     13  C   UNL     1       5.156   5.195  16.103  0.00  0.00    +0.000 C 
ATOM     14  C   UNL     1       4.167   4.675  17.148  0.00  0.00    +0.000 C 
ATOM     15  C   UNL     1       4.123   5.579  18.376  0.00  0.00    +0.000 C 
ATOM     16  O   UNL     1       6.504   5.044  16.586  0.00  0.00    +0.000 OA
ATOM     17  C   UNL     1       7.027   3.924  15.875  0.00  0.00    +0.000 C 
ATOM     18  C   UNL     1       6.309   3.982  14.555  0.00  0.00    +0.000 C 
ATOM     19  O   UNL     1       4.996   4.416  14.904  0.00  0.00    +0.000 OA
ENDROOT
TORSDOF 0
ENDMDL
