MODEL 1
REMARK VINA RESULT:      -7.6      0.000      0.000
REMARK  Name = 
REMARK  3 active torsions:
REMARK  status: ('A' for Active; 'I' for Inactive)
REMARK    1  A    between atoms: C_1  and  C_2
REMARK    2  A    between atoms: N_5  and  S_6
REMARK    3  A    between atoms: S_6  and  C_9
REMARK                            x       y       z     vdW  Elec       q    Type
REMARK                         _______ _______ _______ _____ _____    ______ ____
ROOT
ATOM      1  C   UNL     1       1.790   7.024  20.146  0.00  0.00    +0.000 A 
ATOM      2  C   UNL     1       1.997   7.888  19.040  0.00  0.00    +0.000 A 
ATOM      3  C   UNL     1       1.569   9.216  19.104  0.00  0.00    +0.000 A 
ATOM      4  C   UNL     1       0.926   9.600  20.265  0.00  0.00    +0.000 A 
ATOM      5  C   UNL     1       0.714   8.775  21.359  0.00  0.00    +0.000 A 
ATOM      6  C   UNL     1       1.169   7.471  21.328  0.00  0.00    +0.000 A 
ATOM      7  C   UNL     1      -0.001   9.561  22.421  0.00  0.00    +0.000 C 
ATOM      8  C   UNL     1      -0.154  10.954  21.771  0.00  0.00    +0.000 C 
ATOM      9  O   UNL     1      -0.702  11.925  22.271  0.00  0.00    +0.000 OA
ATOM     10  N   UNL     1       0.446  10.879  20.518  0.00  0.00    +0.000 N 
ATOM     11  C   UNL     1       0.557  11.911  19.510  0.00  0.00    +0.000 C 
ATOM     12  C   UNL     1       1.762  11.658  18.591  0.00  0.00    +0.000 C 
ATOM     13  C   UNL     1       1.746  10.230  18.011  0.00  0.00    +0.000 C 
ENDROOT
BRANCH   1  14
ATOM     14  S   UNL     1       2.473   5.371  20.102  0.00  0.00    +0.000 S 
ATOM     15  O   UNL     1       2.332   4.815  21.435  0.00  0.00    +0.000 OA
ATOM     16  O   UNL     1       3.776   5.465  19.487  0.00  0.00    +0.000 OA
BRANCH  14  21
ATOM     17  C   UNL     1       3.878   1.151  18.241  0.00  0.00    +0.000 C 
ATOM     18  C   UNL     1       2.609   2.000  18.161  0.00  0.00    +0.000 C 
ATOM     19  C   UNL     1       2.912   3.344  17.474  0.00  0.00    +0.000 C 
ATOM     20  C   UNL     1       1.793   4.367  17.643  0.00  0.00    +0.000 C 
ATOM     21  N   UNL     1       1.407   4.515  19.067  0.00  0.00    +0.000 NA
ATOM     22  C   UNL     1       0.898   3.218  19.590  0.00  0.00    +0.000 C 
ATOM     23  C   UNL     1       1.997   2.162  19.563  0.00  0.00    +0.000 C 
ENDBRANCH  14  21
ENDBRANCH   1  14
TORSDOF 2
ENDMDL
MODEL 2
REMARK VINA RESULT:      -7.5      1.072      2.392
REMARK  Name = 
REMARK  3 active torsions:
REMARK  status: ('A' for Active; 'I' for Inactive)
REMARK    1  A    between atoms: C_1  and  C_2
REMARK    2  A    between atoms: N_5  and  S_6
REMARK    3  A    between atoms: S_6  and  C_9
REMARK                            x       y       z     vdW  Elec       q    Type
REMARK                         _______ _______ _______ _____ _____    ______ ____
ROOT
ATOM      1  C   UNL     1       2.123   7.569  19.528  0.00  0.00    +0.000 A 
ATOM      2  C   UNL     1       1.745   7.694  20.889  0.00  0.00    +0.000 A 
ATOM      3  C   UNL     1       1.052   8.828  21.318  0.00  0.00    +0.000 A 
ATOM      4  C   UNL     1       0.801   9.795  20.364  0.00  0.00    +0.000 A 
ATOM      5  C   UNL     1       1.159   9.695  19.028  0.00  0.00    +0.000 A 
ATOM      6  C   UNL     1       1.807   8.561  18.579  0.00  0.00    +0.000 A 
ATOM      7  C   UNL     1       0.701  10.935  18.314  0.00  0.00    +0.000 C 
ATOM      8  C   UNL     1       0.024  11.748  19.440  0.00  0.00    +0.000 C 
ATOM      9  O   UNL     1      -0.484  12.853  19.325  0.00  0.00    +0.000 OA
ATOM     10  N   UNL     1       0.114  10.979  20.597  0.00  0.00    +0.000 N 
ATOM     11  C   UNL     1      -0.356  11.299  21.929  0.00  0.00    +0.000 C 
ATOM     12  C   UNL     1      -0.629  10.022  22.739  0.00  0.00    +0.000 C 
ATOM     13  C   UNL     1       0.582   9.069  22.724  0.00  0.00    +0.000 C 
ENDROOT
BRANCH   1  14
ATOM     14  S   UNL     1       2.881   6.049  18.969  0.00  0.00    +0.000 S 
ATOM     15  O   UNL     1       3.730   5.573  20.045  0.00  0.00    +0.000 OA
ATOM     16  O   UNL     1       3.439   6.308  17.662  0.00  0.00    +0.000 OA
BRANCH  14  21
ATOM     17  C   UNL     1       3.754   1.324  18.566  0.00  0.00    +0.000 C 
ATOM     18  C   UNL     1       2.496   2.191  18.625  0.00  0.00    +0.000 C 
ATOM     19  C   UNL     1       2.436   3.124  17.402  0.00  0.00    +0.000 C 
ATOM     20  C   UNL     1       1.398   4.233  17.547  0.00  0.00    +0.000 C 
ATOM     21  N   UNL     1       1.563   4.962  18.827  0.00  0.00    +0.000 NA
ATOM     22  C   UNL     1       1.368   4.027  19.969  0.00  0.00    +0.000 C 
ATOM     23  C   UNL     1       2.441   2.946  19.965  0.00  0.00    +0.000 C 
ENDBRANCH  14  21
ENDBRANCH   1  14
TORSDOF 2
ENDMDL
MODEL 3
REMARK VINA RESULT:      -7.5      2.253      7.475
REMARK  Name = 
REMARK  3 active torsions:
REMARK  status: ('A' for Active; 'I' for Inactive)
REMARK    1  A    between atoms: C_1  and  C_2
REMARK    2  A    between atoms: N_5  and  S_6
REMARK    3  A    between atoms: S_6  and  C_9
REMARK                            x       y       z     vdW  Elec       q    Type
REMARK                         _______ _______ _______ _____ _____    ______ ____
ROOT
ATOM      1  C   UNL     1       1.516   7.574  20.341  0.00  0.00    +0.000 A 
ATOM      2  C   UNL     1       1.263   6.328  20.970  0.00  0.00    +0.000 A 
ATOM      3  C   UNL     1       1.868   5.167  20.485  0.00  0.00    +0.000 A 
ATOM      4  C   UNL     1       2.673   5.311  19.371  0.00  0.00    +0.000 A 
ATOM      5  C   UNL     1       2.937   6.517  18.740  0.00  0.00    +0.000 A 
ATOM      6  C   UNL     1       2.379   7.681  19.234  0.00  0.00    +0.000 A 
ATOM      7  C   UNL     1       3.861   6.261  17.583  0.00  0.00    +0.000 C 
ATOM      8  C   UNL     1       4.089   4.735  17.658  0.00  0.00    +0.000 C 
ATOM      9  O   UNL     1       4.769   4.071  16.892  0.00  0.00    +0.000 OA
ATOM     10  N   UNL     1       3.368   4.277  18.758  0.00  0.00    +0.000 N 
ATOM     11  C   UNL     1       3.241   2.922  19.249  0.00  0.00    +0.000 C 
ATOM     12  C   UNL     1       2.911   2.907  20.750  0.00  0.00    +0.000 C 
ATOM     13  C   UNL     1       1.695   3.797  21.074  0.00  0.00    +0.000 C 
ENDROOT
BRANCH   1  14
ATOM     14  S   UNL     1       0.848   9.068  21.062  0.00  0.00    +0.000 S 
ATOM     15  O   UNL     1       1.741   9.459  22.139  0.00  0.00    +0.000 OA
ATOM     16  O   UNL     1      -0.550   8.824  21.330  0.00  0.00    +0.000 OA
BRANCH  14  21
ATOM     17  C   UNL     1      -2.525  12.481  20.590  0.00  0.00    +0.000 C 
ATOM     18  C   UNL     1      -1.223  12.138  19.866  0.00  0.00    +0.000 C 
ATOM     19  C   UNL     1      -1.341  10.764  19.182  0.00  0.00    +0.000 C 
ATOM     20  C   UNL     1       0.002  10.210  18.718  0.00  0.00    +0.000 C 
ATOM     21  N   UNL     1       1.002  10.231  19.812  0.00  0.00    +0.000 NA
ATOM     22  C   UNL     1       1.235  11.633  20.256  0.00  0.00    +0.000 C 
ATOM     23  C   UNL     1      -0.039  12.227  20.844  0.00  0.00    +0.000 C 
ENDBRANCH  14  21
ENDBRANCH   1  14
TORSDOF 2
ENDMDL
MODEL 4
REMARK VINA RESULT:      -7.5      1.713      3.006
REMARK  Name = 
REMARK  3 active torsions:
REMARK  status: ('A' for Active; 'I' for Inactive)
REMARK    1  A    between atoms: C_1  and  C_2
REMARK    2  A    between atoms: N_5  and  S_6
REMARK    3  A    between atoms: S_6  and  C_9
REMARK                            x       y       z     vdW  Elec       q    Type
REMARK                         _______ _______ _______ _____ _____    ______ ____
ROOT
ATOM      1  C   UNL     1       2.070   7.913  19.096  0.00  0.00    +0.000 A 
ATOM      2  C   UNL     1       1.821   7.894  20.493  0.00  0.00    +0.000 A 
ATOM      3  C   UNL     1       1.096   8.930  21.085  0.00  0.00    +0.000 A 
ATOM      4  C   UNL     1       0.682   9.950  20.249  0.00  0.00    +0.000 A 
ATOM      5  C   UNL     1       0.911   9.990  18.882  0.00  0.00    +0.000 A 
ATOM      6  C   UNL     1       1.591   8.951  18.274  0.00  0.00    +0.000 A 
ATOM      7  C   UNL     1       0.298  11.245  18.329  0.00  0.00    +0.000 C 
ATOM      8  C   UNL     1      -0.319  11.905  19.582  0.00  0.00    +0.000 C 
ATOM      9  O   UNL     1      -0.914  12.971  19.615  0.00  0.00    +0.000 OA
ATOM     10  N   UNL     1      -0.060  11.051  20.652  0.00  0.00    +0.000 N 
ATOM     11  C   UNL     1      -0.416  11.221  22.044  0.00  0.00    +0.000 C 
ATOM     12  C   UNL     1      -0.516   9.864  22.758  0.00  0.00    +0.000 C 
ATOM     13  C   UNL     1       0.752   9.015  22.545  0.00  0.00    +0.000 C 
ENDROOT
BRANCH   1  14
ATOM     14  S   UNL     1       2.874   6.509  18.334  0.00  0.00    +0.000 S 
ATOM     15  O   UNL     1       3.944   7.030  17.502  0.00  0.00    +0.000 OA
ATOM     16  O   UNL     1       1.836   5.688  17.754  0.00  0.00    +0.000 OA
BRANCH  14  21
ATOM     17  C   UNL     1       3.495   1.735  18.068  0.00  0.00    +0.000 C 
ATOM     18  C   UNL     1       3.817   2.813  19.104  0.00  0.00    +0.000 C 
ATOM     19  C   UNL     1       2.517   3.445  19.634  0.00  0.00    +0.000 C 
ATOM     20  C   UNL     1       2.755   4.732  20.418  0.00  0.00    +0.000 C 
ATOM     21  N   UNL     1       3.595   5.684  19.652  0.00  0.00    +0.000 NA
ATOM     22  C   UNL     1       4.929   5.079  19.386  0.00  0.00    +0.000 C 
ATOM     23  C   UNL     1       4.791   3.843  18.506  0.00  0.00    +0.000 C 
ENDBRANCH  14  21
ENDBRANCH   1  14
TORSDOF 2
ENDMDL
MODEL 5
REMARK VINA RESULT:      -7.4      1.114      2.385
REMARK  Name = 
REMARK  3 active torsions:
REMARK  status: ('A' for Active; 'I' for Inactive)
REMARK    1  A    between atoms: C_1  and  C_2
REMARK    2  A    between atoms: N_5  and  S_6
REMARK    3  A    between atoms: S_6  and  C_9
REMARK                            x       y       z     vdW  Elec       q    Type
REMARK                         _______ _______ _______ _____ _____    ______ ____
ROOT
ATOM      1  C   UNL     1       2.191   7.155  19.971  0.00  0.00    +0.000 A 
ATOM      2  C   UNL     1       1.681   7.564  21.229  0.00  0.00    +0.000 A 
ATOM      3  C   UNL     1       1.037   8.797  21.352  0.00  0.00    +0.000 A 
ATOM      4  C   UNL     1       0.966   9.572  20.210  0.00  0.00    +0.000 A 
ATOM      5  C   UNL     1       1.456   9.194  18.970  0.00  0.00    +0.000 A 
ATOM      6  C   UNL     1       2.057   7.958  18.822  0.00  0.00    +0.000 A 
ATOM      7  C   UNL     1       1.176  10.295  17.987  0.00  0.00    +0.000 C 
ATOM      8  C   UNL     1       0.449  11.349  18.852  0.00  0.00    +0.000 C 
ATOM      9  O   UNL     1       0.044  12.437  18.471  0.00  0.00    +0.000 OA
ATOM     10  N   UNL     1       0.354  10.816  20.135  0.00  0.00    +0.000 N 
ATOM     11  C   UNL     1      -0.229  11.415  21.316  0.00  0.00    +0.000 C 
ATOM     12  C   UNL     1      -0.687  10.338  22.312  0.00  0.00    +0.000 C 
ATOM     13  C   UNL     1       0.440   9.333  22.622  0.00  0.00    +0.000 C 
ENDROOT
BRANCH   1  14
ATOM     14  S   UNL     1       2.881   5.514  19.800  0.00  0.00    +0.000 S 
ATOM     15  O   UNL     1       2.244   4.676  20.799  0.00  0.00    +0.000 OA
ATOM     16  O   UNL     1       4.319   5.657  19.781  0.00  0.00    +0.000 OA
BRANCH  14  21
ATOM     17  C   UNL     1       3.833   1.015  18.350  0.00  0.00    +0.000 C 
ATOM     18  C   UNL     1       3.087   2.209  17.755  0.00  0.00    +0.000 C 
ATOM     19  C   UNL     1       4.061   3.376  17.510  0.00  0.00    +0.000 C 
ATOM     20  C   UNL     1       3.352   4.697  17.226  0.00  0.00    +0.000 C 
ATOM     21  N   UNL     1       2.333   4.996  18.261  0.00  0.00    +0.000 NA
ATOM     22  C   UNL     1       1.292   3.932  18.268  0.00  0.00    +0.000 C 
ATOM     23  C   UNL     1       1.900   2.591  18.657  0.00  0.00    +0.000 C 
ENDBRANCH  14  21
ENDBRANCH   1  14
TORSDOF 2
ENDMDL
MODEL 6
REMARK VINA RESULT:      -7.4      1.620      2.135
REMARK  Name = 
REMARK  3 active torsions:
REMARK  status: ('A' for Active; 'I' for Inactive)
REMARK    1  A    between atoms: C_1  and  C_2
REMARK    2  A    between atoms: N_5  and  S_6
REMARK    3  A    between atoms: S_6  and  C_9
REMARK                            x       y       z     vdW  Elec       q    Type
REMARK                         _______ _______ _______ _____ _____    ______ ____
ROOT
ATOM      1  C   UNL     1       2.001   7.816  19.115  0.00  0.00    +0.000 A 
ATOM      2  C   UNL     1       1.833   9.028  18.398  0.00  0.00    +0.000 A 
ATOM      3  C   UNL     1       1.255  10.134  19.025  0.00  0.00    +0.000 A 
ATOM      4  C   UNL     1       0.845   9.956  20.333  0.00  0.00    +0.000 A 
ATOM      5  C   UNL     1       0.999   8.783  21.054  0.00  0.00    +0.000 A 
ATOM      6  C   UNL     1       1.608   7.693  20.462  0.00  0.00    +0.000 A 
ATOM      7  C   UNL     1       0.444   8.991  22.435  0.00  0.00    +0.000 C 
ATOM      8  C   UNL     1      -0.040  10.458  22.391  0.00  0.00    +0.000 C 
ATOM      9  O   UNL     1      -0.587  11.062  23.301  0.00  0.00    +0.000 OA
ATOM     10  N   UNL     1       0.266  10.941  21.122  0.00  0.00    +0.000 N 
ATOM     11  C   UNL     1       0.005  12.255  20.573  0.00  0.00    +0.000 C 
ATOM     12  C   UNL     1       0.994  12.588  19.445  0.00  0.00    +0.000 C 
ATOM     13  C   UNL     1       1.041  11.474  18.381  0.00  0.00    +0.000 C 
ENDROOT
BRANCH   1  14
ATOM     14  S   UNL     1       2.872   6.459  18.343  0.00  0.00    +0.000 S 
ATOM     15  O   UNL     1       3.921   7.036  17.522  0.00  0.00    +0.000 OA
ATOM     16  O   UNL     1       1.877   5.595  17.750  0.00  0.00    +0.000 OA
BRANCH  14  21
ATOM     17  C   UNL     1       3.553   1.690  18.109  0.00  0.00    +0.000 C 
ATOM     18  C   UNL     1       3.876   2.782  19.130  0.00  0.00    +0.000 C 
ATOM     19  C   UNL     1       2.576   3.401  19.675  0.00  0.00    +0.000 C 
ATOM     20  C   UNL     1       2.809   4.699  20.444  0.00  0.00    +0.000 C 
ATOM     21  N   UNL     1       3.624   5.654  19.656  0.00  0.00    +0.000 NA
ATOM     22  C   UNL     1       4.962   5.064  19.375  0.00  0.00    +0.000 C 
ATOM     23  C   UNL     1       4.827   3.819  18.508  0.00  0.00    +0.000 C 
ENDBRANCH  14  21
ENDBRANCH   1  14
TORSDOF 2
ENDMDL
MODEL 7
REMARK VINA RESULT:      -7.3      2.199      7.132
REMARK  Name = 
REMARK  3 active torsions:
REMARK  status: ('A' for Active; 'I' for Inactive)
REMARK    1  A    between atoms: C_1  and  C_2
REMARK    2  A    between atoms: N_5  and  S_6
REMARK    3  A    between atoms: S_6  and  C_9
REMARK                            x       y       z     vdW  Elec       q    Type
REMARK                         _______ _______ _______ _____ _____    ______ ____
ROOT
ATOM      1  C   UNL     1       1.591   7.567  20.483  0.00  0.00    +0.000 A 
ATOM      2  C   UNL     1       2.576   7.635  19.465  0.00  0.00    +0.000 A 
ATOM      3  C   UNL     1       3.090   6.460  18.912  0.00  0.00    +0.000 A 
ATOM      4  C   UNL     1       2.610   5.273  19.433  0.00  0.00    +0.000 A 
ATOM      5  C   UNL     1       1.648   5.180  20.427  0.00  0.00    +0.000 A 
ATOM      6  C   UNL     1       1.099   6.334  20.953  0.00  0.00    +0.000 A 
ATOM      7  C   UNL     1       1.386   3.728  20.708  0.00  0.00    +0.000 C 
ATOM      8  C   UNL     1       2.336   3.012  19.722  0.00  0.00    +0.000 C 
ATOM      9  O   UNL     1       2.479   1.804  19.608  0.00  0.00    +0.000 OA
ATOM     10  N   UNL     1       2.990   4.009  19.002  0.00  0.00    +0.000 N 
ATOM     11  C   UNL     1       3.991   3.861  17.967  0.00  0.00    +0.000 C 
ATOM     12  C   UNL     1       4.002   5.081  17.032  0.00  0.00    +0.000 C 
ATOM     13  C   UNL     1       4.118   6.401  17.820  0.00  0.00    +0.000 C 
ENDROOT
BRANCH   1  14
ATOM     14  S   UNL     1       0.841   9.078  21.076  0.00  0.00    +0.000 S 
ATOM     15  O   UNL     1       1.659   9.559  22.175  0.00  0.00    +0.000 OA
ATOM     16  O   UNL     1      -0.563   8.805  21.279  0.00  0.00    +0.000 OA
BRANCH  14  21
ATOM     17  C   UNL     1      -2.560  12.396  20.259  0.00  0.00    +0.000 C 
ATOM     18  C   UNL     1      -1.222  12.037  19.614  0.00  0.00    +0.000 C 
ATOM     19  C   UNL     1      -1.287  10.624  19.006  0.00  0.00    +0.000 C 
ATOM     20  C   UNL     1       0.085  10.069  18.634  0.00  0.00    +0.000 C 
ATOM     21  N   UNL     1       1.033  10.171  19.769  0.00  0.00    +0.000 NA
ATOM     22  C   UNL     1       1.224  11.599  20.141  0.00  0.00    +0.000 C 
ATOM     23  C   UNL     1      -0.084  12.203  20.637  0.00  0.00    +0.000 C 
ENDBRANCH  14  21
ENDBRANCH   1  14
TORSDOF 2
ENDMDL
MODEL 8
REMARK VINA RESULT:      -7.3      2.516      3.847
REMARK  Name = 
REMARK  3 active torsions:
REMARK  status: ('A' for Active; 'I' for Inactive)
REMARK    1  A    between atoms: C_1  and  C_2
REMARK    2  A    between atoms: N_5  and  S_6
REMARK    3  A    between atoms: S_6  and  C_9
REMARK                            x       y       z     vdW  Elec       q    Type
REMARK                         _______ _______ _______ _____ _____    ______ ____
ROOT
ATOM      1  C   UNL     1       2.766   6.757  19.019  0.00  0.00    +0.000 A 
ATOM      2  C   UNL     1       2.213   6.832  20.323  0.00  0.00    +0.000 A 
ATOM      3  C   UNL     1       1.453   7.943  20.694  0.00  0.00    +0.000 A 
ATOM      4  C   UNL     1       1.310   8.937  19.746  0.00  0.00    +0.000 A 
ATOM      5  C   UNL     1       1.839   8.886  18.465  0.00  0.00    +0.000 A 
ATOM      6  C   UNL     1       2.558   7.775  18.069  0.00  0.00    +0.000 A 
ATOM      7  C   UNL     1       1.456  10.143  17.737  0.00  0.00    +0.000 C 
ATOM      8  C   UNL     1       0.627  10.910  18.791  0.00  0.00    +0.000 C 
ATOM      9  O   UNL     1       0.120  12.012  18.645  0.00  0.00    +0.000 OA
ATOM     10  N   UNL     1       0.580  10.104  19.926  0.00  0.00    +0.000 N 
ATOM     11  C   UNL     1      -0.062  10.374  21.194  0.00  0.00    +0.000 C 
ATOM     12  C   UNL     1      -0.417   9.068  21.922  0.00  0.00    +0.000 C 
ATOM     13  C   UNL     1       0.802   8.131  22.035  0.00  0.00    +0.000 C 
ENDROOT
BRANCH   1  14
ATOM     14  S   UNL     1       3.613   5.265  18.515  0.00  0.00    +0.000 S 
ATOM     15  O   UNL     1       3.055   4.868  17.235  0.00  0.00    +0.000 OA
ATOM     16  O   UNL     1       3.579   4.356  19.637  0.00  0.00    +0.000 OA
BRANCH  14  21
ATOM     17  C   UNL     1       5.712   4.302  14.282  0.00  0.00    +0.000 C 
ATOM     18  C   UNL     1       6.134   5.030  15.559  0.00  0.00    +0.000 C 
ATOM     19  C   UNL     1       6.177   4.045  16.741  0.00  0.00    +0.000 C 
ATOM     20  C   UNL     1       6.272   4.742  18.096  0.00  0.00    +0.000 C 
ATOM     21  N   UNL     1       5.225   5.782  18.242  0.00  0.00    +0.000 NA
ATOM     22  C   UNL     1       5.402   6.827  17.197  0.00  0.00    +0.000 C 
ATOM     23  C   UNL     1       5.208   6.233  15.807  0.00  0.00    +0.000 C 
ENDBRANCH  14  21
ENDBRANCH   1  14
TORSDOF 2
ENDMDL
MODEL 9
REMARK VINA RESULT:      -7.2      2.464      3.174
REMARK  Name = 
REMARK  3 active torsions:
REMARK  status: ('A' for Active; 'I' for Inactive)
REMARK    1  A    between atoms: C_1  and  C_2
REMARK    2  A    between atoms: N_5  and  S_6
REMARK    3  A    between atoms: S_6  and  C_9
REMARK                            x       y       z     vdW  Elec       q    Type
REMARK                         _______ _______ _______ _____ _____    ______ ____
ROOT
ATOM      1  C   UNL     1       2.722   6.761  19.001  0.00  0.00    +0.000 A 
ATOM      2  C   UNL     1       2.631   7.884  18.139  0.00  0.00    +0.000 A 
ATOM      3  C   UNL     1       1.926   9.018  18.546  0.00  0.00    +0.000 A 
ATOM      4  C   UNL     1       1.322   8.957  19.787  0.00  0.00    +0.000 A 
ATOM      5  C   UNL     1       1.398   7.872  20.648  0.00  0.00    +0.000 A 
ATOM      6  C   UNL     1       2.127   6.758  20.278  0.00  0.00    +0.000 A 
ATOM      7  C   UNL     1       0.626   8.194  21.896  0.00  0.00    +0.000 C 
ATOM      8  C   UNL     1       0.109   9.623  21.619  0.00  0.00    +0.000 C 
ATOM      9  O   UNL     1      -0.593  10.291  22.363  0.00  0.00    +0.000 OA
ATOM     10  N   UNL     1       0.595   9.988  20.366  0.00  0.00    +0.000 N 
ATOM     11  C   UNL     1       0.382  11.225  19.644  0.00  0.00    +0.000 C 
ATOM     12  C   UNL     1       1.525  11.487  18.651  0.00  0.00    +0.000 C 
ATOM     13  C   UNL     1       1.773  10.273  17.735  0.00  0.00    +0.000 C 
ENDROOT
BRANCH   1  14
ATOM     14  S   UNL     1       3.747   5.375  18.524  0.00  0.00    +0.000 S 
ATOM     15  O   UNL     1       3.200   4.843  17.289  0.00  0.00    +0.000 OA
ATOM     16  O   UNL     1       3.882   4.526  19.685  0.00  0.00    +0.000 OA
BRANCH  14  21
ATOM     17  C   UNL     1       6.172   3.893  14.629  0.00  0.00    +0.000 C 
ATOM     18  C   UNL     1       6.406   4.943  15.715  0.00  0.00    +0.000 C 
ATOM     19  C   UNL     1       6.559   4.263  17.087  0.00  0.00    +0.000 C 
ATOM     20  C   UNL     1       6.472   5.244  18.254  0.00  0.00    +0.000 C 
ATOM     21  N   UNL     1       5.260   6.092  18.156  0.00  0.00    +0.000 NA
ATOM     22  C   UNL     1       5.308   6.900  16.906  0.00  0.00    +0.000 C 
ATOM     23  C   UNL     1       5.281   5.993  15.682  0.00  0.00    +0.000 C 
ENDBRANCH  14  21
ENDBRANCH   1  14
TORSDOF 2
ENDMDL
