MODEL 1
REMARK VINA RESULT:      -8.6      0.000      0.000
REMARK  Name = 
REMARK  9 active torsions:
REMARK  status: ('A' for Active; 'I' for Inactive)
REMARK    1  A    between atoms: C_1  and  C_2
REMARK    2  A    between atoms: C_2  and  C_3
REMARK    3  A    between atoms: C_9  and  N_10
REMARK    4  A    between atoms: N_10  and  S_11
REMARK    5  A    between atoms: S_11  and  C_12
REMARK    6  A    between atoms: C_15  and  C_16
REMARK    7  A    between atoms: C_16  and  O_17
REMARK    8  A    between atoms: O_17  and  C_18
REMARK    9  A    between atoms: C_21  and  C_22
REMARK                            x       y       z     vdW  Elec       q    Type
REMARK                         _______ _______ _______ _____ _____    ______ ____
ROOT
ATOM      1  C   UNL     1       1.615   4.639  19.887  0.00  0.00    +0.000 C 
ATOM      2  O   UNL     1       1.547   5.566  20.696  0.00  0.00    +0.000 OA
ATOM      3  N   UNL     1       2.361   4.721  18.712  0.00  0.00    +0.000 N 
ATOM      4  C   UNL     1       2.339   3.659  17.692  0.00  0.00    +0.000 C 
ATOM      5  C   UNL     1       3.710   3.381  17.088  0.00  0.00    +0.000 C 
ATOM      6  C   UNL     1       4.400   4.654  16.621  0.00  0.00    +0.000 C 
ATOM      7  C   UNL     1       4.441   5.717  17.723  0.00  0.00    +0.000 C 
ATOM      8  C   UNL     1       2.986   5.990  18.244  0.00  0.00    +0.000 C 
ENDROOT
BRANCH   1  10
ATOM      9  C   UNL     1       1.400   2.553  21.353  0.00  0.00    +0.000 C 
ATOM     10  C   UNL     1       0.883   3.321  20.146  0.00  0.00    +0.000 C 
ENDBRANCH   1  10
BRANCH   7  11
ATOM     11  N   UNL     1       5.320   5.301  18.854  0.00  0.00    +0.000 NA
ATOM     12  H   UNL     1       5.006   5.583  19.786  0.00  0.00    +0.000 HD
BRANCH  11  13
ATOM     13  S   UNL     1       6.991   5.379  18.762  0.00  0.00    +0.000 S 
ATOM     14  C   UNL     1       7.270   6.894  17.879  0.00  0.00    +0.000 C 
ATOM     15  O   UNL     1       7.447   5.571  20.117  0.00  0.00    +0.000 OA
ATOM     16  O   UNL     1       7.466   4.284  17.953  0.00  0.00    +0.000 OA
ENDBRANCH  11  13
ENDBRANCH   7  11
BRANCH   8  17
ATOM     17  C   UNL     1       2.984   7.258  19.148  0.00  0.00    +0.000 C 
BRANCH  17  18
ATOM     18  O   UNL     1       1.906   8.084  18.679  0.00  0.00    +0.000 OA
BRANCH  18  19
ATOM     19  C   UNL     1       1.694   9.344  19.325  0.00  0.00    +0.000 C 
ATOM     20  C   UNL     1       1.566  10.480  18.306  0.00  0.00    +0.000 C 
ATOM     21  C   UNL     1       0.868  11.733  18.840  0.00  0.00    +0.000 C 
ATOM     22  C   UNL     1      -0.495  11.451  19.508  0.00  0.00    +0.000 C 
ATOM     23  C   UNL     1      -0.237  10.435  20.641  0.00  0.00    +0.000 C 
ATOM     24  C   UNL     1       0.409   9.146  20.144  0.00  0.00    +0.000 C 
BRANCH  22  25
ATOM     25  C   UNL     1      -1.652  11.084  18.575  0.00  0.00    +0.000 A 
ATOM     26  C   UNL     1      -1.504  10.190  17.503  0.00  0.00    +0.000 A 
ATOM     27  C   UNL     1      -2.577   9.864  16.664  0.00  0.00    +0.000 A 
ATOM     28  C   UNL     1      -3.825  10.434  16.867  0.00  0.00    +0.000 A 
ATOM     29  C   UNL     1      -3.982  11.377  17.873  0.00  0.00    +0.000 A 
ATOM     30  C   UNL     1      -2.906  11.709  18.708  0.00  0.00    +0.000 A 
ENDBRANCH  22  25
ENDBRANCH  18  19
ENDBRANCH  17  18
ENDBRANCH   8  17
TORSDOF 7
ENDMDL
MODEL 2
REMARK VINA RESULT:      -8.5      1.363      2.574
REMARK  Name = 
REMARK  9 active torsions:
REMARK  status: ('A' for Active; 'I' for Inactive)
REMARK    1  A    between atoms: C_1  and  C_2
REMARK    2  A    between atoms: C_2  and  C_3
REMARK    3  A    between atoms: C_9  and  N_10
REMARK    4  A    between atoms: N_10  and  S_11
REMARK    5  A    between atoms: S_11  and  C_12
REMARK    6  A    between atoms: C_15  and  C_16
REMARK    7  A    between atoms: C_16  and  O_17
REMARK    8  A    between atoms: O_17  and  C_18
REMARK    9  A    between atoms: C_21  and  C_22
REMARK                            x       y       z     vdW  Elec       q    Type
REMARK                         _______ _______ _______ _____ _____    ______ ____
ROOT
ATOM      1  C   UNL     1       1.551   4.661  20.012  0.00  0.00    +0.000 C 
ATOM      2  O   UNL     1       1.368   5.677  20.684  0.00  0.00    +0.000 OA
ATOM      3  N   UNL     1       2.306   4.662  18.839  0.00  0.00    +0.000 N 
ATOM      4  C   UNL     1       2.421   3.475  17.976  0.00  0.00    +0.000 C 
ATOM      5  C   UNL     1       3.825   3.270  17.421  0.00  0.00    +0.000 C 
ATOM      6  C   UNL     1       4.380   4.537  16.785  0.00  0.00    +0.000 C 
ATOM      7  C   UNL     1       4.284   5.738  17.729  0.00  0.00    +0.000 C 
ATOM      8  C   UNL     1       2.798   5.918  18.202  0.00  0.00    +0.000 C 
ENDROOT
BRANCH   1  10
ATOM      9  C   UNL     1       1.691   2.676  21.619  0.00  0.00    +0.000 C 
ATOM     10  C   UNL     1       0.963   3.318  20.448  0.00  0.00    +0.000 C 
ENDBRANCH   1  10
BRANCH   7  11
ATOM     11  N   UNL     1       5.181   5.582  18.910  0.00  0.00    +0.000 NA
ATOM     12  H   UNL     1       4.944   6.152  19.725  0.00  0.00    +0.000 HD
BRANCH  11  13
ATOM     13  S   UNL     1       6.845   5.460  18.757  0.00  0.00    +0.000 S 
ATOM     14  C   UNL     1       7.258   6.876  17.770  0.00  0.00    +0.000 C 
ATOM     15  O   UNL     1       7.374   5.678  20.081  0.00  0.00    +0.000 OA
ATOM     16  O   UNL     1       7.159   4.271  18.005  0.00  0.00    +0.000 OA
ENDBRANCH  11  13
ENDBRANCH   7  11
BRANCH   8  17
ATOM     17  C   UNL     1       2.640   7.289  18.922  0.00  0.00    +0.000 C 
BRANCH  17  18
ATOM     18  O   UNL     1       3.004   8.292  17.959  0.00  0.00    +0.000 OA
BRANCH  18  19
ATOM     19  C   UNL     1       2.026   9.279  17.613  0.00  0.00    +0.000 C 
ATOM     20  C   UNL     1       0.603   8.755  17.832  0.00  0.00    +0.000 C 
ATOM     21  C   UNL     1      -0.459   9.849  17.965  0.00  0.00    +0.000 C 
ATOM     22  C   UNL     1      -0.114  10.930  19.012  0.00  0.00    +0.000 C 
ATOM     23  C   UNL     1       1.250  11.528  18.606  0.00  0.00    +0.000 C 
ATOM     24  C   UNL     1       2.353  10.479  18.515  0.00  0.00    +0.000 C 
BRANCH  22  25
ATOM     25  C   UNL     1      -0.214  10.515  20.483  0.00  0.00    +0.000 A 
ATOM     26  C   UNL     1       0.166   9.243  20.937  0.00  0.00    +0.000 A 
ATOM     27  C   UNL     1       0.070   8.885  22.288  0.00  0.00    +0.000 A 
ATOM     28  C   UNL     1      -0.421   9.787  23.220  0.00  0.00    +0.000 A 
ATOM     29  C   UNL     1      -0.873  11.026  22.788  0.00  0.00    +0.000 A 
ATOM     30  C   UNL     1      -0.784  11.381  21.434  0.00  0.00    +0.000 A 
ENDBRANCH  22  25
ENDBRANCH  18  19
ENDBRANCH  17  18
ENDBRANCH   8  17
TORSDOF 7
ENDMDL
MODEL 3
REMARK VINA RESULT:      -8.2      1.540      2.901
REMARK  Name = 
REMARK  9 active torsions:
REMARK  status: ('A' for Active; 'I' for Inactive)
REMARK    1  A    between atoms: C_1  and  C_2
REMARK    2  A    between atoms: C_2  and  C_3
REMARK    3  A    between atoms: C_9  and  N_10
REMARK    4  A    between atoms: N_10  and  S_11
REMARK    5  A    between atoms: S_11  and  C_12
REMARK    6  A    between atoms: C_15  and  C_16
REMARK    7  A    between atoms: C_16  and  O_17
REMARK    8  A    between atoms: O_17  and  C_18
REMARK    9  A    between atoms: C_21  and  C_22
REMARK                            x       y       z     vdW  Elec       q    Type
REMARK                         _______ _______ _______ _____ _____    ______ ____
ROOT
ATOM      1  C   UNL     1       1.540   4.656  19.985  0.00  0.00    +0.000 C 
ATOM      2  O   UNL     1       1.428   5.676  20.666  0.00  0.00    +0.000 OA
ATOM      3  N   UNL     1       2.250   4.630  18.785  0.00  0.00    +0.000 N 
ATOM      4  C   UNL     1       2.279   3.443  17.915  0.00  0.00    +0.000 C 
ATOM      5  C   UNL     1       3.651   3.178  17.307  0.00  0.00    +0.000 C 
ATOM      6  C   UNL     1       4.238   4.421  16.654  0.00  0.00    +0.000 C 
ATOM      7  C   UNL     1       4.231   5.621  17.605  0.00  0.00    +0.000 C 
ATOM      8  C   UNL     1       2.774   5.865  18.134  0.00  0.00    +0.000 C 
ENDROOT
BRANCH   1  10
ATOM      9  C   UNL     1       1.639   2.669  21.592  0.00  0.00    +0.000 C 
ATOM     10  C   UNL     1       0.909   3.339  20.438  0.00  0.00    +0.000 C 
ENDBRANCH   1  10
BRANCH   7  11
ATOM     11  N   UNL     1       5.164   5.419  18.751  0.00  0.00    +0.000 NA
ATOM     12  H   UNL     1       4.799   5.680  19.670  0.00  0.00    +0.000 HD
BRANCH  11  13
ATOM     13  S   UNL     1       6.795   5.792  18.652  0.00  0.00    +0.000 S 
ATOM     14  C   UNL     1       7.434   4.501  17.615  0.00  0.00    +0.000 C 
ATOM     15  O   UNL     1       6.867   7.027  17.911  0.00  0.00    +0.000 OA
ATOM     16  O   UNL     1       7.384   5.661  19.961  0.00  0.00    +0.000 OA
ENDBRANCH  11  13
ENDBRANCH   7  11
BRANCH   8  17
ATOM     17  C   UNL     1       2.704   7.239  18.863  0.00  0.00    +0.000 C 
BRANCH  17  18
ATOM     18  O   UNL     1       3.037   8.232  17.880  0.00  0.00    +0.000 OA
BRANCH  18  19
ATOM     19  C   UNL     1       2.057   9.233  17.577  0.00  0.00    +0.000 C 
ATOM     20  C   UNL     1       0.638   8.721  17.839  0.00  0.00    +0.000 C 
ATOM     21  C   UNL     1      -0.408   9.824  18.019  0.00  0.00    +0.000 C 
ATOM     22  C   UNL     1      -0.016  10.890  19.066  0.00  0.00    +0.000 C 
ATOM     23  C   UNL     1       1.339  11.479  18.619  0.00  0.00    +0.000 C 
ATOM     24  C   UNL     1       2.427  10.420  18.480  0.00  0.00    +0.000 C 
BRANCH  22  25
ATOM     25  C   UNL     1      -0.072  10.460  20.534  0.00  0.00    +0.000 A 
ATOM     26  C   UNL     1      -0.786  11.178  21.506  0.00  0.00    +0.000 A 
ATOM     27  C   UNL     1      -0.828  10.765  22.844  0.00  0.00    +0.000 A 
ATOM     28  C   UNL     1      -0.144   9.628  23.248  0.00  0.00    +0.000 A 
ATOM     29  C   UNL     1       0.630   8.940  22.325  0.00  0.00    +0.000 A 
ATOM     30  C   UNL     1       0.677   9.359  20.987  0.00  0.00    +0.000 A 
ENDBRANCH  22  25
ENDBRANCH  18  19
ENDBRANCH  17  18
ENDBRANCH   8  17
TORSDOF 7
ENDMDL
MODEL 4
REMARK VINA RESULT:      -8.2      1.483      3.003
REMARK  Name = 
REMARK  9 active torsions:
REMARK  status: ('A' for Active; 'I' for Inactive)
REMARK    1  A    between atoms: C_1  and  C_2
REMARK    2  A    between atoms: C_2  and  C_3
REMARK    3  A    between atoms: C_9  and  N_10
REMARK    4  A    between atoms: N_10  and  S_11
REMARK    5  A    between atoms: S_11  and  C_12
REMARK    6  A    between atoms: C_15  and  C_16
REMARK    7  A    between atoms: C_16  and  O_17
REMARK    8  A    between atoms: O_17  and  C_18
REMARK    9  A    between atoms: C_21  and  C_22
REMARK                            x       y       z     vdW  Elec       q    Type
REMARK                         _______ _______ _______ _____ _____    ______ ____
ROOT
ATOM      1  C   UNL     1       1.881   4.550  20.155  0.00  0.00    +0.000 C 
ATOM      2  O   UNL     1       1.981   5.549  20.870  0.00  0.00    +0.000 OA
ATOM      3  N   UNL     1       2.506   4.452  18.912  0.00  0.00    +0.000 N 
ATOM      4  C   UNL     1       2.285   3.310  18.010  0.00  0.00    +0.000 C 
ATOM      5  C   UNL     1       3.556   2.845  17.309  0.00  0.00    +0.000 C 
ATOM      6  C   UNL     1       4.304   3.997  16.654  0.00  0.00    +0.000 C 
ATOM      7  C   UNL     1       4.554   5.145  17.636  0.00  0.00    +0.000 C 
ATOM      8  C   UNL     1       3.191   5.606  18.263  0.00  0.00    +0.000 C 
ENDROOT
BRANCH   1  10
ATOM      9  C   UNL     1       1.725   2.533  21.719  0.00  0.00    +0.000 C 
ATOM     10  C   UNL     1       1.066   3.340  20.611  0.00  0.00    +0.000 C 
ENDBRANCH   1  10
BRANCH   7  11
ATOM     11  N   UNL     1       5.504   4.749  18.715  0.00  0.00    +0.000 NA
ATOM     12  H   UNL     1       5.126   4.764  19.666  0.00  0.00    +0.000 HD
BRANCH  11  13
ATOM     13  S   UNL     1       7.104   5.247  18.723  0.00  0.00    +0.000 S 
ATOM     14  C   UNL     1       7.053   6.762  17.800  0.00  0.00    +0.000 C 
ATOM     15  O   UNL     1       7.401   5.579  20.095  0.00  0.00    +0.000 OA
ATOM     16  O   UNL     1       7.895   4.291  17.990  0.00  0.00    +0.000 OA
ENDBRANCH  11  13
ENDBRANCH   7  11
BRANCH   8  17
ATOM     17  C   UNL     1       3.395   6.945  19.033  0.00  0.00    +0.000 C 
BRANCH  17  18
ATOM     18  O   UNL     1       2.675   7.946  18.295  0.00  0.00    +0.000 OA
BRANCH  18  19
ATOM     19  C   UNL     1       1.409   8.377  18.806  0.00  0.00    +0.000 C 
ATOM     20  C   UNL     1       1.537   8.913  20.235  0.00  0.00    +0.000 C 
ATOM     21  C   UNL     1       0.388   9.824  20.674  0.00  0.00    +0.000 C 
ATOM     22  C   UNL     1       0.094  10.976  19.690  0.00  0.00    +0.000 C 
ATOM     23  C   UNL     1      -0.203  10.330  18.320  0.00  0.00    +0.000 C 
ATOM     24  C   UNL     1       0.941   9.456  17.817  0.00  0.00    +0.000 C 
BRANCH  22  25
ATOM     25  C   UNL     1       1.115  12.118  19.648  0.00  0.00    +0.000 A 
ATOM     26  C   UNL     1       1.661  12.686  20.809  0.00  0.00    +0.000 A 
ATOM     27  C   UNL     1       2.597  13.727  20.749  0.00  0.00    +0.000 A 
ATOM     28  C   UNL     1       3.003  14.235  19.524  0.00  0.00    +0.000 A 
ATOM     29  C   UNL     1       2.425  13.742  18.362  0.00  0.00    +0.000 A 
ATOM     30  C   UNL     1       1.482  12.706  18.424  0.00  0.00    +0.000 A 
ENDBRANCH  22  25
ENDBRANCH  18  19
ENDBRANCH  17  18
ENDBRANCH   8  17
TORSDOF 7
ENDMDL
MODEL 5
REMARK VINA RESULT:      -8.0      0.875      1.043
REMARK  Name = 
REMARK  9 active torsions:
REMARK  status: ('A' for Active; 'I' for Inactive)
REMARK    1  A    between atoms: C_1  and  C_2
REMARK    2  A    between atoms: C_2  and  C_3
REMARK    3  A    between atoms: C_9  and  N_10
REMARK    4  A    between atoms: N_10  and  S_11
REMARK    5  A    between atoms: S_11  and  C_12
REMARK    6  A    between atoms: C_15  and  C_16
REMARK    7  A    between atoms: C_16  and  O_17
REMARK    8  A    between atoms: O_17  and  C_18
REMARK    9  A    between atoms: C_21  and  C_22
REMARK                            x       y       z     vdW  Elec       q    Type
REMARK                         _______ _______ _______ _____ _____    ______ ____
ROOT
ATOM      1  C   UNL     1       1.687   4.549  20.036  0.00  0.00    +0.000 C 
ATOM      2  O   UNL     1       1.637   5.496  20.823  0.00  0.00    +0.000 OA
ATOM      3  N   UNL     1       2.376   4.615  18.825  0.00  0.00    +0.000 N 
ATOM      4  C   UNL     1       2.331   3.526  17.836  0.00  0.00    +0.000 C 
ATOM      5  C   UNL     1       3.678   3.260  17.175  0.00  0.00    +0.000 C 
ATOM      6  C   UNL     1       4.317   4.535  16.643  0.00  0.00    +0.000 C 
ATOM      7  C   UNL     1       4.386   5.627  17.714  0.00  0.00    +0.000 C 
ATOM      8  C   UNL     1       2.951   5.884  18.296  0.00  0.00    +0.000 C 
ENDROOT
BRANCH   1  10
ATOM      9  C   UNL     1       1.484   2.575  21.649  0.00  0.00    +0.000 C 
ATOM     10  C   UNL     1       0.997   3.224  20.363  0.00  0.00    +0.000 C 
ENDBRANCH   1  10
BRANCH   7  11
ATOM     11  N   UNL     1       5.325   5.260  18.813  0.00  0.00    +0.000 NA
ATOM     12  H   UNL     1       4.959   5.367  19.762  0.00  0.00    +0.000 HD
BRANCH  11  13
ATOM     13  S   UNL     1       6.949   5.670  18.774  0.00  0.00    +0.000 S 
ATOM     14  C   UNL     1       7.635   4.469  17.661  0.00  0.00    +0.000 C 
ATOM     15  O   UNL     1       7.010   6.956  18.124  0.00  0.00    +0.000 OA
ATOM     16  O   UNL     1       7.516   5.458  20.082  0.00  0.00    +0.000 OA
ENDBRANCH  11  13
ENDBRANCH   7  11
BRANCH   8  17
ATOM     17  C   UNL     1       2.962   7.176  19.166  0.00  0.00    +0.000 C 
BRANCH  17  18
ATOM     18  O   UNL     1       2.151   8.136  18.470  0.00  0.00    +0.000 OA
BRANCH  18  19
ATOM     19  C   UNL     1       1.825   9.356  19.145  0.00  0.00    +0.000 C 
ATOM     20  C   UNL     1       1.705  10.524  18.162  0.00  0.00    +0.000 C 
ATOM     21  C   UNL     1       0.904  11.716  18.690  0.00  0.00    +0.000 C 
ATOM     22  C   UNL     1      -0.485  11.335  19.249  0.00  0.00    +0.000 C 
ATOM     23  C   UNL     1      -0.250  10.290  20.360  0.00  0.00    +0.000 C 
ATOM     24  C   UNL     1       0.499   9.057  19.863  0.00  0.00    +0.000 C 
BRANCH  22  25
ATOM     25  C   UNL     1      -1.552  10.946  18.222  0.00  0.00    +0.000 A 
ATOM     26  C   UNL     1      -1.731  11.640  17.017  0.00  0.00    +0.000 A 
ATOM     27  C   UNL     1      -2.711  11.264  16.088  0.00  0.00    +0.000 A 
ATOM     28  C   UNL     1      -3.547  10.189  16.348  0.00  0.00    +0.000 A 
ATOM     29  C   UNL     1      -3.442   9.529  17.565  0.00  0.00    +0.000 A 
ATOM     30  C   UNL     1      -2.466   9.911  18.497  0.00  0.00    +0.000 A 
ENDBRANCH  22  25
ENDBRANCH  18  19
ENDBRANCH  17  18
ENDBRANCH   8  17
TORSDOF 7
ENDMDL
MODEL 6
REMARK VINA RESULT:      -7.8      0.857      1.332
REMARK  Name = 
REMARK  9 active torsions:
REMARK  status: ('A' for Active; 'I' for Inactive)
REMARK    1  A    between atoms: C_1  and  C_2
REMARK    2  A    between atoms: C_2  and  C_3
REMARK    3  A    between atoms: C_9  and  N_10
REMARK    4  A    between atoms: N_10  and  S_11
REMARK    5  A    between atoms: S_11  and  C_12
REMARK    6  A    between atoms: C_15  and  C_16
REMARK    7  A    between atoms: C_16  and  O_17
REMARK    8  A    between atoms: O_17  and  C_18
REMARK    9  A    between atoms: C_21  and  C_22
REMARK                            x       y       z     vdW  Elec       q    Type
REMARK                         _______ _______ _______ _____ _____    ______ ____
ROOT
ATOM      1  C   UNL     1       2.126   4.037  18.584  0.00  0.00    +0.000 C 
ATOM      2  O   UNL     1       1.686   4.629  19.570  0.00  0.00    +0.000 OA
ATOM      3  N   UNL     1       3.067   4.604  17.726  0.00  0.00    +0.000 N 
ATOM      4  C   UNL     1       3.498   3.942  16.484  0.00  0.00    +0.000 C 
ATOM      5  C   UNL     1       4.993   4.078  16.220  0.00  0.00    +0.000 C 
ATOM      6  C   UNL     1       5.466   5.520  16.332  0.00  0.00    +0.000 C 
ATOM      7  C   UNL     1       5.037   6.159  17.655  0.00  0.00    +0.000 C 
ATOM      8  C   UNL     1       3.480   6.034  17.819  0.00  0.00    +0.000 C 
ENDROOT
BRANCH   1  10
ATOM      9  C   UNL     1       0.597   2.080  19.195  0.00  0.00    +0.000 C 
ATOM     10  C   UNL     1       1.667   2.615  18.256  0.00  0.00    +0.000 C 
ENDBRANCH   1  10
BRANCH   7  11
ATOM     11  N   UNL     1       5.725   5.529  18.819  0.00  0.00    +0.000 NA
ATOM     12  H   UNL     1       5.303   5.707  19.733  0.00  0.00    +0.000 HD
BRANCH  11  13
ATOM     13  S   UNL     1       7.395   5.490  18.954  0.00  0.00    +0.000 S 
ATOM     14  C   UNL     1       7.884   7.057  18.279  0.00  0.00    +0.000 C 
ATOM     15  O   UNL     1       7.672   5.516  20.369  0.00  0.00    +0.000 OA
ATOM     16  O   UNL     1       7.908   4.446  18.103  0.00  0.00    +0.000 OA
ENDBRANCH  11  13
ENDBRANCH   7  11
BRANCH   8  17
ATOM     17  C   UNL     1       3.006   6.923  19.006  0.00  0.00    +0.000 C 
BRANCH  17  18
ATOM     18  O   UNL     1       2.108   7.895  18.446  0.00  0.00    +0.000 OA
BRANCH  18  19
ATOM     19  C   UNL     1       2.027   9.178  19.076  0.00  0.00    +0.000 C 
ATOM     20  C   UNL     1       1.875  10.299  18.043  0.00  0.00    +0.000 C 
ATOM     21  C   UNL     1       1.302  11.602  18.604  0.00  0.00    +0.000 C 
ATOM     22  C   UNL     1      -0.011  11.416  19.396  0.00  0.00    +0.000 C 
ATOM     23  C   UNL     1       0.287  10.409  20.528  0.00  0.00    +0.000 C 
ATOM     24  C   UNL     1       0.810   9.073  20.009  0.00  0.00    +0.000 C 
BRANCH  22  25
ATOM     25  C   UNL     1      -1.266  11.100  18.577  0.00  0.00    +0.000 A 
ATOM     26  C   UNL     1      -2.500  11.722  18.814  0.00  0.00    +0.000 A 
ATOM     27  C   UNL     1      -3.635  11.422  18.050  0.00  0.00    +0.000 A 
ATOM     28  C   UNL     1      -3.568  10.481  17.034  0.00  0.00    +0.000 A 
ATOM     29  C   UNL     1      -2.379   9.796  16.824  0.00  0.00    +0.000 A 
ATOM     30  C   UNL     1      -1.245  10.092  17.595  0.00  0.00    +0.000 A 
ENDBRANCH  22  25
ENDBRANCH  18  19
ENDBRANCH  17  18
ENDBRANCH   8  17
TORSDOF 7
ENDMDL
MODEL 7
REMARK VINA RESULT:      -7.8      1.599      3.100
REMARK  Name = 
REMARK  9 active torsions:
REMARK  status: ('A' for Active; 'I' for Inactive)
REMARK    1  A    between atoms: C_1  and  C_2
REMARK    2  A    between atoms: C_2  and  C_3
REMARK    3  A    between atoms: C_9  and  N_10
REMARK    4  A    between atoms: N_10  and  S_11
REMARK    5  A    between atoms: S_11  and  C_12
REMARK    6  A    between atoms: C_15  and  C_16
REMARK    7  A    between atoms: C_16  and  O_17
REMARK    8  A    between atoms: O_17  and  C_18
REMARK    9  A    between atoms: C_21  and  C_22
REMARK                            x       y       z     vdW  Elec       q    Type
REMARK                         _______ _______ _______ _____ _____    ______ ____
ROOT
ATOM      1  C   UNL     1       1.712   4.556  20.361  0.00  0.00    +0.000 C 
ATOM      2  O   UNL     1       1.905   5.546  21.068  0.00  0.00    +0.000 OA
ATOM      3  N   UNL     1       2.187   4.464  19.053  0.00  0.00    +0.000 N 
ATOM      4  C   UNL     1       1.850   3.333  18.172  0.00  0.00    +0.000 C 
ATOM      5  C   UNL     1       3.026   2.862  17.325  0.00  0.00    +0.000 C 
ATOM      6  C   UNL     1       3.706   4.014  16.598  0.00  0.00    +0.000 C 
ATOM      7  C   UNL     1       4.081   5.150  17.554  0.00  0.00    +0.000 C 
ATOM      8  C   UNL     1       2.805   5.618  18.340  0.00  0.00    +0.000 C 
ENDROOT
BRANCH   1  10
ATOM      9  C   UNL     1       1.766   2.439  21.795  0.00  0.00    +0.000 C 
ATOM     10  C   UNL     1       0.941   3.349  20.898  0.00  0.00    +0.000 C 
ENDBRANCH   1  10
BRANCH   7  11
ATOM     11  N   UNL     1       5.145   4.732  18.512  0.00  0.00    +0.000 NA
ATOM     12  H   UNL     1       4.823   4.479  19.449  0.00  0.00    +0.000 HD
BRANCH  11  13
ATOM     13  S   UNL     1       6.622   5.519  18.603  0.00  0.00    +0.000 S 
ATOM     14  C   UNL     1       7.674   4.507  17.593  0.00  0.00    +0.000 C 
ATOM     15  O   UNL     1       6.436   6.776  17.921  0.00  0.00    +0.000 OA
ATOM     16  O   UNL     1       7.099   5.460  19.962  0.00  0.00    +0.000 OA
ENDBRANCH  11  13
ENDBRANCH   7  11
BRANCH   8  17
ATOM     17  C   UNL     1       3.111   6.946  19.092  0.00  0.00    +0.000 C 
BRANCH  17  18
ATOM     18  O   UNL     1       2.445   7.986  18.358  0.00  0.00    +0.000 OA
BRANCH  18  19
ATOM     19  C   UNL     1       1.225   8.511  18.894  0.00  0.00    +0.000 C 
ATOM     20  C   UNL     1       1.433   9.085  20.299  0.00  0.00    +0.000 C 
ATOM     21  C   UNL     1       0.356  10.078  20.742  0.00  0.00    +0.000 C 
ATOM     22  C   UNL     1       0.099  11.214  19.727  0.00  0.00    +0.000 C 
ATOM     23  C   UNL     1      -0.282  10.542  18.391  0.00  0.00    +0.000 C 
ATOM     24  C   UNL     1       0.790   9.584  17.883  0.00  0.00    +0.000 C 
BRANCH  22  25
ATOM     25  C   UNL     1       1.185  12.288  19.614  0.00  0.00    +0.000 A 
ATOM     26  C   UNL     1       1.809  12.606  18.398  0.00  0.00    +0.000 A 
ATOM     27  C   UNL     1       2.797  13.597  18.315  0.00  0.00    +0.000 A 
ATOM     28  C   UNL     1       3.195  14.287  19.450  0.00  0.00    +0.000 A 
ATOM     29  C   UNL     1       2.647  13.943  20.678  0.00  0.00    +0.000 A 
ATOM     30  C   UNL     1       1.664  12.946  20.761  0.00  0.00    +0.000 A 
ENDBRANCH  22  25
ENDBRANCH  18  19
ENDBRANCH  17  18
ENDBRANCH   8  17
TORSDOF 7
ENDMDL
MODEL 8
REMARK VINA RESULT:      -7.6      1.033      1.161
REMARK  Name = 
REMARK  9 active torsions:
REMARK  status: ('A' for Active; 'I' for Inactive)
REMARK    1  A    between atoms: C_1  and  C_2
REMARK    2  A    between atoms: C_2  and  C_3
REMARK    3  A    between atoms: C_9  and  N_10
REMARK    4  A    between atoms: N_10  and  S_11
REMARK    5  A    between atoms: S_11  and  C_12
REMARK    6  A    between atoms: C_15  and  C_16
REMARK    7  A    between atoms: C_16  and  O_17
REMARK    8  A    between atoms: O_17  and  C_18
REMARK    9  A    between atoms: C_21  and  C_22
REMARK                            x       y       z     vdW  Elec       q    Type
REMARK                         _______ _______ _______ _____ _____    ______ ____
ROOT
ATOM      1  C   UNL     1       1.924   3.946  19.010  0.00  0.00    +0.000 C 
ATOM      2  O   UNL     1       1.576   4.570  20.014  0.00  0.00    +0.000 OA
ATOM      3  N   UNL     1       2.754   4.496  18.034  0.00  0.00    +0.000 N 
ATOM      4  C   UNL     1       3.067   3.791  16.781  0.00  0.00    +0.000 C 
ATOM      5  C   UNL     1       4.522   3.946  16.353  0.00  0.00    +0.000 C 
ATOM      6  C   UNL     1       4.968   5.401  16.356  0.00  0.00    +0.000 C 
ATOM      7  C   UNL     1       4.666   6.086  17.692  0.00  0.00    +0.000 C 
ATOM      8  C   UNL     1       3.140   5.936  18.027  0.00  0.00    +0.000 C 
ENDROOT
BRANCH   1  10
ATOM      9  C   UNL     1       2.556   1.468  19.027  0.00  0.00    +0.000 C 
ATOM     10  C   UNL     1       1.467   2.503  18.789  0.00  0.00    +0.000 C 
ENDBRANCH   1  10
BRANCH   7  11
ATOM     11  N   UNL     1       5.490   5.519  18.799  0.00  0.00    +0.000 NA
ATOM     12  H   UNL     1       5.084   5.592  19.735  0.00  0.00    +0.000 HD
BRANCH  11  13
ATOM     13  S   UNL     1       7.151   5.728  18.873  0.00  0.00    +0.000 S 
ATOM     14  C   UNL     1       7.760   4.447  17.807  0.00  0.00    +0.000 C 
ATOM     15  O   UNL     1       7.412   6.993  18.233  0.00  0.00    +0.000 OA
ATOM     16  O   UNL     1       7.596   5.456  20.217  0.00  0.00    +0.000 OA
ENDBRANCH  11  13
ENDBRANCH   7  11
BRANCH   8  17
ATOM     17  C   UNL     1       2.772   6.865  19.221  0.00  0.00    +0.000 C 
BRANCH  17  18
ATOM     18  O   UNL     1       1.791   7.789  18.725  0.00  0.00    +0.000 OA
BRANCH  18  19
ATOM     19  C   UNL     1       1.791   9.119  19.254  0.00  0.00    +0.000 C 
ATOM     20  C   UNL     1       1.635  10.162  18.144  0.00  0.00    +0.000 C 
ATOM     21  C   UNL     1       1.140  11.529  18.625  0.00  0.00    +0.000 C 
ATOM     22  C   UNL     1      -0.139  11.461  19.487  0.00  0.00    +0.000 C 
ATOM     23  C   UNL     1       0.173  10.533  20.680  0.00  0.00    +0.000 C 
ATOM     24  C   UNL     1       0.617   9.140  20.246  0.00  0.00    +0.000 C 
BRANCH  22  25
ATOM     25  C   UNL     1      -1.443  11.137  18.752  0.00  0.00    +0.000 A 
ATOM     26  C   UNL     1      -1.509  10.206  17.704  0.00  0.00    +0.000 A 
ATOM     27  C   UNL     1      -2.714   9.920  17.048  0.00  0.00    +0.000 A 
ATOM     28  C   UNL     1      -3.883  10.569  17.414  0.00  0.00    +0.000 A 
ATOM     29  C   UNL     1      -3.834  11.548  18.397  0.00  0.00    +0.000 A 
ATOM     30  C   UNL     1      -2.626  11.839  19.049  0.00  0.00    +0.000 A 
ENDBRANCH  22  25
ENDBRANCH  18  19
ENDBRANCH  17  18
ENDBRANCH   8  17
TORSDOF 7
ENDMDL
MODEL 9
REMARK VINA RESULT:      -7.6      0.735      1.244
REMARK  Name = 
REMARK  9 active torsions:
REMARK  status: ('A' for Active; 'I' for Inactive)
REMARK    1  A    between atoms: C_1  and  C_2
REMARK    2  A    between atoms: C_2  and  C_3
REMARK    3  A    between atoms: C_9  and  N_10
REMARK    4  A    between atoms: N_10  and  S_11
REMARK    5  A    between atoms: S_11  and  C_12
REMARK    6  A    between atoms: C_15  and  C_16
REMARK    7  A    between atoms: C_16  and  O_17
REMARK    8  A    between atoms: O_17  and  C_18
REMARK    9  A    between atoms: C_21  and  C_22
REMARK                            x       y       z     vdW  Elec       q    Type
REMARK                         _______ _______ _______ _____ _____    ______ ____
ROOT
ATOM      1  C   UNL     1       1.862   4.343  20.072  0.00  0.00    +0.000 C 
ATOM      2  O   UNL     1       1.728   5.231  20.915  0.00  0.00    +0.000 OA
ATOM      3  N   UNL     1       2.462   4.568  18.834  0.00  0.00    +0.000 N 
ATOM      4  C   UNL     1       2.509   3.538  17.784  0.00  0.00    +0.000 C 
ATOM      5  C   UNL     1       3.839   3.499  17.041  0.00  0.00    +0.000 C 
ATOM      6  C   UNL     1       4.264   4.877  16.554  0.00  0.00    +0.000 C 
ATOM      7  C   UNL     1       4.245   5.910  17.684  0.00  0.00    +0.000 C 
ATOM      8  C   UNL     1       2.825   5.932  18.353  0.00  0.00    +0.000 C 
ENDROOT
BRANCH   1  10
ATOM      9  C   UNL     1       1.569   2.477  21.796  0.00  0.00    +0.000 C 
ATOM     10  C   UNL     1       1.381   2.919  20.353  0.00  0.00    +0.000 C 
ENDBRANCH   1  10
BRANCH   7  11
ATOM     11  N   UNL     1       5.289   5.622  18.710  0.00  0.00    +0.000 NA
ATOM     12  H   UNL     1       5.142   6.054  19.626  0.00  0.00    +0.000 HD
BRANCH  11  13
ATOM     13  S   UNL     1       6.923   5.600  18.340  0.00  0.00    +0.000 S 
ATOM     14  C   UNL     1       7.693   5.718  19.934  0.00  0.00    +0.000 C 
ATOM     15  O   UNL     1       7.187   4.281  17.821  0.00  0.00    +0.000 OA
ATOM     16  O   UNL     1       7.246   6.786  17.587  0.00  0.00    +0.000 OA
ENDBRANCH  11  13
ENDBRANCH   7  11
BRANCH   8  17
ATOM     17  C   UNL     1       2.711   7.165  19.297  0.00  0.00    +0.000 C 
BRANCH  17  18
ATOM     18  O   UNL     1       2.129   8.219  18.513  0.00  0.00    +0.000 OA
BRANCH  18  19
ATOM     19  C   UNL     1       1.939   9.494  19.136  0.00  0.00    +0.000 C 
ATOM     20  C   UNL     1       1.738  10.600  18.095  0.00  0.00    +0.000 C 
ATOM     21  C   UNL     1       1.056  11.859  18.635  0.00  0.00    +0.000 C 
ATOM     22  C   UNL     1      -0.263  11.581  19.389  0.00  0.00    +0.000 C 
ATOM     23  C   UNL     1       0.073  10.600  20.532  0.00  0.00    +0.000 C 
ATOM     24  C   UNL     1       0.705   9.304  20.033  0.00  0.00    +0.000 C 
BRANCH  22  25
ATOM     25  C   UNL     1      -1.467  11.175  18.534  0.00  0.00    +0.000 A 
ATOM     26  C   UNL     1      -2.753  11.696  18.743  0.00  0.00    +0.000 A 
ATOM     27  C   UNL     1      -3.840  11.315  17.947  0.00  0.00    +0.000 A 
ATOM     28  C   UNL     1      -3.673  10.391  16.926  0.00  0.00    +0.000 A 
ATOM     29  C   UNL     1      -2.428   9.804  16.744  0.00  0.00    +0.000 A 
ATOM     30  C   UNL     1      -1.342  10.180  17.547  0.00  0.00    +0.000 A 
ENDBRANCH  22  25
ENDBRANCH  18  19
ENDBRANCH  17  18
ENDBRANCH   8  17
TORSDOF 7
ENDMDL
