MODEL 1
REMARK VINA RESULT:      -8.7      0.000      0.000
REMARK  Name = 
REMARK  3 active torsions:
REMARK  status: ('A' for Active; 'I' for Inactive)
REMARK    1  A    between atoms: C_1  and  O_2
REMARK    2  A    between atoms: O_2  and  C_3
REMARK    3  A    between atoms: C_7  and  N_8
REMARK                            x       y       z     vdW  Elec       q    Type
REMARK                         _______ _______ _______ _____ _____    ______ ____
ROOT
ATOM      1  C   UNL     1       2.880   3.347  19.598  0.00  0.00    +0.000 C 
ATOM      2  C   UNL     1       4.407   3.308  19.797  0.00  0.00    +0.000 C 
ATOM      3  C   UNL     1       5.169   4.490  19.203  0.00  0.00    +0.000 C 
ATOM      4  C   UNL     1       4.508   5.842  19.474  0.00  0.00    +0.000 C 
ATOM      5  C   UNL     1       2.971   5.868  19.317  0.00  0.00    +0.000 C 
ATOM      6  C   UNL     1       2.542   5.677  17.833  0.00  0.00    +0.000 C 
ATOM      7  C   UNL     1       2.935   4.330  17.207  0.00  0.00    +0.000 C 
ATOM      8  C   UNL     1       2.538   3.151  18.107  0.00  0.00    +0.000 C 
ATOM      9  C   UNL     1       4.393   4.303  16.788  0.00  0.00    +0.000 A 
ATOM     10  C   UNL     1       4.720   4.280  15.421  0.00  0.00    +0.000 A 
ATOM     11  C   UNL     1       6.050   4.285  14.996  0.00  0.00    +0.000 A 
ATOM     12  C   UNL     1       7.079   4.294  15.928  0.00  0.00    +0.000 A 
ATOM     13  C   UNL     1       6.774   4.322  17.285  0.00  0.00    +0.000 A 
ATOM     14  C   UNL     1       5.437   4.340  17.725  0.00  0.00    +0.000 A 
ATOM     15  C   UNL     1       2.343   4.703  20.117  0.00  0.00    +0.000 C 
ENDROOT
BRANCH   5  16
ATOM     16  N   UNL     1       2.490   7.220  19.727  0.00  0.00    +0.000 N 
ATOM     17  C   UNL     1       2.322   8.266  18.848  0.00  0.00    +0.000 C 
ATOM     18  O   UNL     1       2.823   8.271  17.727  0.00  0.00    +0.000 OA
ATOM     19  N   UNL     1       1.482   9.281  19.289  0.00  0.00    +0.000 N 
ATOM     20  C   UNL     1       0.971  10.246  18.314  0.00  0.00    +0.000 C 
ATOM     21  C   UNL     1      -0.559  10.183  18.248  0.00  0.00    +0.000 C 
ATOM     22  C   UNL     1      -1.197  10.312  19.633  0.00  0.00    +0.000 C 
ATOM     23  C   UNL     1      -0.563   9.345  20.638  0.00  0.00    +0.000 C 
ATOM     24  C   UNL     1       0.958   9.482  20.639  0.00  0.00    +0.000 C 
ATOM     25  H   UNL     1       1.744   7.172  20.399  0.00  0.00    +0.000 HD
ENDBRANCH   5  16
BRANCH   1  27
ATOM     26  C   UNL     1       1.728   2.473  21.580  0.00  0.00    +0.000 C 
ATOM     27  O   UNL     1       2.419   2.221  20.369  0.00  0.00    +0.000 OA
ENDBRANCH   1  27
TORSDOF 2
ENDMDL
MODEL 2
REMARK VINA RESULT:      -7.5      3.743      7.654
REMARK  Name = 
REMARK  3 active torsions:
REMARK  status: ('A' for Active; 'I' for Inactive)
REMARK    1  A    between atoms: C_1  and  O_2
REMARK    2  A    between atoms: O_2  and  C_3
REMARK    3  A    between atoms: C_7  and  N_8
REMARK                            x       y       z     vdW  Elec       q    Type
REMARK                         _______ _______ _______ _____ _____    ______ ____
ROOT
ATOM      1  C   UNL     1       6.854   4.978  17.704  0.00  0.00    +0.000 C 
ATOM      2  C   UNL     1       5.773   4.199  18.478  0.00  0.00    +0.000 C 
ATOM      3  C   UNL     1       4.375   4.250  17.868  0.00  0.00    +0.000 C 
ATOM      4  C   UNL     1       4.362   4.055  16.352  0.00  0.00    +0.000 C 
ATOM      5  C   UNL     1       5.474   4.802  15.581  0.00  0.00    +0.000 C 
ATOM      6  C   UNL     1       5.272   6.344  15.633  0.00  0.00    +0.000 C 
ATOM      7  C   UNL     1       5.341   6.966  17.036  0.00  0.00    +0.000 C 
ATOM      8  C   UNL     1       6.584   6.493  17.804  0.00  0.00    +0.000 C 
ATOM      9  C   UNL     1       4.048   6.772  17.807  0.00  0.00    +0.000 A 
ATOM     10  C   UNL     1       3.230   7.883  18.078  0.00  0.00    +0.000 A 
ATOM     11  C   UNL     1       2.020   7.740  18.758  0.00  0.00    +0.000 A 
ATOM     12  C   UNL     1       1.611   6.488  19.196  0.00  0.00    +0.000 A 
ATOM     13  C   UNL     1       2.404   5.377  18.932  0.00  0.00    +0.000 A 
ATOM     14  C   UNL     1       3.616   5.505  18.228  0.00  0.00    +0.000 A 
ATOM     15  C   UNL     1       6.847   4.509  16.229  0.00  0.00    +0.000 C 
ENDROOT
BRANCH   5  16
ATOM     16  N   UNL     1       5.379   4.410  14.145  0.00  0.00    +0.000 N 
ATOM     17  C   UNL     1       6.433   4.496  13.261  0.00  0.00    +0.000 C 
ATOM     18  O   UNL     1       7.435   5.165  13.495  0.00  0.00    +0.000 OA
ATOM     19  N   UNL     1       6.315   3.708  12.123  0.00  0.00    +0.000 N 
ATOM     20  C   UNL     1       7.509   3.465  11.310  0.00  0.00    +0.000 C 
ATOM     21  C   UNL     1       7.829   1.967  11.264  0.00  0.00    +0.000 C 
ATOM     22  C   UNL     1       6.617   1.134  10.842  0.00  0.00    +0.000 C 
ATOM     23  C   UNL     1       5.373   1.494  11.660  0.00  0.00    +0.000 C 
ATOM     24  C   UNL     1       5.129   3.002  11.644  0.00  0.00    +0.000 C 
ATOM     25  H   UNL     1       4.850   3.565  14.014  0.00  0.00    +0.000 HD
ENDBRANCH   5  16
BRANCH   1  27
ATOM     26  C   UNL     1       8.341   5.291  19.630  0.00  0.00    +0.000 C 
ATOM     27  O   UNL     1       8.067   4.639  18.402  0.00  0.00    +0.000 OA
ENDBRANCH   1  27
TORSDOF 2
ENDMDL
MODEL 3
REMARK VINA RESULT:      -7.2      6.411      8.667
REMARK  Name = 
REMARK  3 active torsions:
REMARK  status: ('A' for Active; 'I' for Inactive)
REMARK    1  A    between atoms: C_1  and  O_2
REMARK    2  A    between atoms: O_2  and  C_3
REMARK    3  A    between atoms: C_7  and  N_8
REMARK                            x       y       z     vdW  Elec       q    Type
REMARK                         _______ _______ _______ _____ _____    ______ ____
ROOT
ATOM      1  C   UNL     1       0.316  11.039  21.156  0.00  0.00    +0.000 C 
ATOM      2  C   UNL     1       0.364   9.910  20.108  0.00  0.00    +0.000 C 
ATOM      3  C   UNL     1       0.171  10.360  18.662  0.00  0.00    +0.000 C 
ATOM      4  C   UNL     1       0.959  11.620  18.303  0.00  0.00    +0.000 C 
ATOM      5  C   UNL     1       0.946  12.733  19.375  0.00  0.00    +0.000 C 
ATOM      6  C   UNL     1      -0.468  13.363  19.532  0.00  0.00    +0.000 C 
ATOM      7  C   UNL     1      -1.563  12.400  20.016  0.00  0.00    +0.000 C 
ATOM      8  C   UNL     1      -1.113  11.608  21.252  0.00  0.00    +0.000 C 
ATOM      9  C   UNL     1      -2.081  11.520  18.893  0.00  0.00    +0.000 A 
ATOM     10  C   UNL     1      -3.388  11.710  18.412  0.00  0.00    +0.000 A 
ATOM     11  C   UNL     1      -3.890  10.940  17.361  0.00  0.00    +0.000 A 
ATOM     12  C   UNL     1      -3.102   9.954  16.782  0.00  0.00    +0.000 A 
ATOM     13  C   UNL     1      -1.805   9.756  17.242  0.00  0.00    +0.000 A 
ATOM     14  C   UNL     1      -1.280  10.540  18.287  0.00  0.00    +0.000 A 
ATOM     15  C   UNL     1       1.326  12.140  20.751  0.00  0.00    +0.000 C 
ENDROOT
BRANCH   5  16
ATOM     16  N   UNL     1       1.849  13.827  18.910  0.00  0.00    +0.000 N 
ATOM     17  C   UNL     1       2.403  14.766  19.752  0.00  0.00    +0.000 C 
ATOM     18  O   UNL     1       1.979  14.963  20.887  0.00  0.00    +0.000 OA
ATOM     19  N   UNL     1       3.525  15.417  19.255  0.00  0.00    +0.000 N 
ATOM     20  C   UNL     1       4.376  16.161  20.185  0.00  0.00    +0.000 C 
ATOM     21  C   UNL     1       5.791  15.573  20.206  0.00  0.00    +0.000 C 
ATOM     22  C   UNL     1       6.380  15.447  18.800  0.00  0.00    +0.000 C 
ATOM     23  C   UNL     1       5.411  14.744  17.843  0.00  0.00    +0.000 C 
ATOM     24  C   UNL     1       4.033  15.400  17.885  0.00  0.00    +0.000 C 
ATOM     25  H   UNL     1       2.506  13.511  18.218  0.00  0.00    +0.000 HD
ENDBRANCH   5  16
BRANCH   1  27
ATOM     26  C   UNL     1      -0.354   9.714  23.109  0.00  0.00    +0.000 C 
ATOM     27  O   UNL     1       0.670  10.366  22.379  0.00  0.00    +0.000 OA
ENDBRANCH   1  27
TORSDOF 2
ENDMDL
MODEL 4
REMARK VINA RESULT:      -7.2      9.089     10.508
REMARK  Name = 
REMARK  3 active torsions:
REMARK  status: ('A' for Active; 'I' for Inactive)
REMARK    1  A    between atoms: C_1  and  O_2
REMARK    2  A    between atoms: O_2  and  C_3
REMARK    3  A    between atoms: C_7  and  N_8
REMARK                            x       y       z     vdW  Elec       q    Type
REMARK                         _______ _______ _______ _____ _____    ______ ____
ROOT
ATOM      1  C   UNL     1       9.372  11.222  18.257  0.00  0.00    +0.000 C 
ATOM      2  C   UNL     1      10.872  11.475  18.009  0.00  0.00    +0.000 C 
ATOM      3  C   UNL     1      11.474  12.632  18.802  0.00  0.00    +0.000 C 
ATOM      4  C   UNL     1      11.039  12.661  20.268  0.00  0.00    +0.000 C 
ATOM      5  C   UNL     1       9.543  12.363  20.518  0.00  0.00    +0.000 C 
ATOM      6  C   UNL     1       8.632  13.498  19.968  0.00  0.00    +0.000 C 
ATOM      7  C   UNL     1       8.696  13.711  18.448  0.00  0.00    +0.000 C 
ATOM      8  C   UNL     1       8.540  12.387  17.685  0.00  0.00    +0.000 C 
ATOM      9  C   UNL     1       9.926  14.500  18.037  0.00  0.00    +0.000 A 
ATOM     10  C   UNL     1       9.776  15.808  17.545  0.00  0.00    +0.000 A 
ATOM     11  C   UNL     1      10.885  16.576  17.185  0.00  0.00    +0.000 A 
ATOM     12  C   UNL     1      12.163  16.046  17.292  0.00  0.00    +0.000 A 
ATOM     13  C   UNL     1      12.331  14.755  17.781  0.00  0.00    +0.000 A 
ATOM     14  C   UNL     1      11.222  13.979  18.169  0.00  0.00    +0.000 A 
ATOM     15  C   UNL     1       9.137  11.067  19.779  0.00  0.00    +0.000 C 
ENDROOT
BRANCH   5  16
ATOM     16  N   UNL     1       9.325  12.320  21.993  0.00  0.00    +0.000 N 
ATOM     17  C   UNL     1       9.079  13.438  22.759  0.00  0.00    +0.000 C 
ATOM     18  O   UNL     1       9.307  14.575  22.355  0.00  0.00    +0.000 OA
ATOM     19  N   UNL     1       8.481  13.193  23.989  0.00  0.00    +0.000 N 
ATOM     20  C   UNL     1       7.872  14.312  24.710  0.00  0.00    +0.000 C 
ATOM     21  C   UNL     1       6.371  14.072  24.904  0.00  0.00    +0.000 C 
ATOM     22  C   UNL     1       6.085  12.707  25.532  0.00  0.00    +0.000 C 
ATOM     23  C   UNL     1       6.820  11.583  24.796  0.00  0.00    +0.000 C 
ATOM     24  C   UNL     1       8.307  11.904  24.655  0.00  0.00    +0.000 C 
ATOM     25  H   UNL     1       8.751  11.543  22.271  0.00  0.00    +0.000 HD
ENDBRANCH   5  16
BRANCH   1  27
ATOM     26  C   UNL     1       8.331   9.005  18.127  0.00  0.00    +0.000 C 
ATOM     27  O   UNL     1       9.116  10.013  17.517  0.00  0.00    +0.000 OA
ENDBRANCH   1  27
TORSDOF 2
ENDMDL
MODEL 5
REMARK VINA RESULT:      -7.2      7.255      9.206
REMARK  Name = 
REMARK  3 active torsions:
REMARK  status: ('A' for Active; 'I' for Inactive)
REMARK    1  A    between atoms: C_1  and  O_2
REMARK    2  A    between atoms: O_2  and  C_3
REMARK    3  A    between atoms: C_7  and  N_8
REMARK                            x       y       z     vdW  Elec       q    Type
REMARK                         _______ _______ _______ _____ _____    ______ ____
ROOT
ATOM      1  C   UNL     1      -0.691  11.824  21.842  0.00  0.00    +0.000 C 
ATOM      2  C   UNL     1      -0.075  10.853  20.815  0.00  0.00    +0.000 C 
ATOM      3  C   UNL     1      -0.136  11.320  19.363  0.00  0.00    +0.000 C 
ATOM      4  C   UNL     1       0.239  12.792  19.178  0.00  0.00    +0.000 C 
ATOM      5  C   UNL     1      -0.344  13.758  20.235  0.00  0.00    +0.000 C 
ATOM      6  C   UNL     1      -1.890  13.880  20.112  0.00  0.00    +0.000 C 
ATOM      7  C   UNL     1      -2.670  12.580  20.360  0.00  0.00    +0.000 C 
ATOM      8  C   UNL     1      -2.219  11.888  21.655  0.00  0.00    +0.000 C 
ATOM      9  C   UNL     1      -2.647  11.664  19.149  0.00  0.00    +0.000 A 
ATOM     10  C   UNL     1      -3.829  11.453  18.419  0.00  0.00    +0.000 A 
ATOM     11  C   UNL     1      -3.841  10.641  17.283  0.00  0.00    +0.000 A 
ATOM     12  C   UNL     1      -2.677  10.011  16.865  0.00  0.00    +0.000 A 
ATOM     13  C   UNL     1      -1.497  10.213  17.573  0.00  0.00    +0.000 A 
ATOM     14  C   UNL     1      -1.467  11.046  18.707  0.00  0.00    +0.000 A 
ATOM     15  C   UNL     1      -0.049  13.221  21.654  0.00  0.00    +0.000 C 
ENDROOT
BRANCH   5  16
ATOM     16  N   UNL     1       0.212  15.117  19.968  0.00  0.00    +0.000 N 
ATOM     17  C   UNL     1       1.511  15.344  19.571  0.00  0.00    +0.000 C 
ATOM     18  O   UNL     1       2.391  14.496  19.686  0.00  0.00    +0.000 OA
ATOM     19  N   UNL     1       1.737  16.571  18.959  0.00  0.00    +0.000 N 
ATOM     20  C   UNL     1       2.976  16.762  18.204  0.00  0.00    +0.000 C 
ATOM     21  C   UNL     1       2.667  17.059  16.732  0.00  0.00    +0.000 C 
ATOM     22  C   UNL     1       1.668  18.207  16.577  0.00  0.00    +0.000 C 
ATOM     23  C   UNL     1       0.433  18.003  17.459  0.00  0.00    +0.000 C 
ATOM     24  C   UNL     1       0.836  17.720  18.905  0.00  0.00    +0.000 C 
ATOM     25  H   UNL     1      -0.438  15.704  19.475  0.00  0.00    +0.000 HD
ENDBRANCH   5  16
BRANCH   1  27
ATOM     26  C   UNL     1      -0.320   9.801  23.178  0.00  0.00    +0.000 C 
ATOM     27  O   UNL     1      -0.366  11.215  23.105  0.00  0.00    +0.000 OA
ENDBRANCH   1  27
TORSDOF 2
ENDMDL
MODEL 6
REMARK VINA RESULT:      -7.1      1.986      4.365
REMARK  Name = 
REMARK  3 active torsions:
REMARK  status: ('A' for Active; 'I' for Inactive)
REMARK    1  A    between atoms: C_1  and  O_2
REMARK    2  A    between atoms: O_2  and  C_3
REMARK    3  A    between atoms: C_7  and  N_8
REMARK                            x       y       z     vdW  Elec       q    Type
REMARK                         _______ _______ _______ _____ _____    ______ ____
ROOT
ATOM      1  C   UNL     1       4.636   5.668  17.737  0.00  0.00    +0.000 C 
ATOM      2  C   UNL     1       3.687   4.624  17.116  0.00  0.00    +0.000 C 
ATOM      3  C   UNL     1       2.239   4.699  17.594  0.00  0.00    +0.000 C 
ATOM      4  C   UNL     1       1.690   6.125  17.660  0.00  0.00    +0.000 C 
ATOM      5  C   UNL     1       2.660   7.178  18.242  0.00  0.00    +0.000 C 
ATOM      6  C   UNL     1       2.921   6.944  19.758  0.00  0.00    +0.000 C 
ATOM      7  C   UNL     1       3.602   5.612  20.106  0.00  0.00    +0.000 C 
ATOM      8  C   UNL     1       4.843   5.367  19.234  0.00  0.00    +0.000 C 
ATOM      9  C   UNL     1       2.622   4.453  20.096  0.00  0.00    +0.000 A 
ATOM     10  C   UNL     1       2.275   3.830  21.308  0.00  0.00    +0.000 A 
ATOM     11  C   UNL     1       1.355   2.781  21.343  0.00  0.00    +0.000 A 
ATOM     12  C   UNL     1       0.777   2.322  20.167  0.00  0.00    +0.000 A 
ATOM     13  C   UNL     1       1.104   2.930  18.960  0.00  0.00    +0.000 A 
ATOM     14  C   UNL     1       2.014   4.004  18.914  0.00  0.00    +0.000 A 
ATOM     15  C   UNL     1       4.029   7.077  17.532  0.00  0.00    +0.000 C 
ENDROOT
BRANCH   5  16
ATOM     16  N   UNL     1       2.008   8.515  18.125  0.00  0.00    +0.000 N 
ATOM     17  C   UNL     1       1.294   9.105  19.144  0.00  0.00    +0.000 C 
ATOM     18  O   UNL     1       0.887   8.473  20.115  0.00  0.00    +0.000 OA
ATOM     19  N   UNL     1       1.135  10.481  19.036  0.00  0.00    +0.000 N 
ATOM     20  C   UNL     1       0.705  11.235  20.215  0.00  0.00    +0.000 C 
ATOM     21  C   UNL     1       1.774  12.258  20.617  0.00  0.00    +0.000 C 
ATOM     22  C   UNL     1       2.191  13.142  19.440  0.00  0.00    +0.000 C 
ATOM     23  C   UNL     1       2.540  12.308  18.204  0.00  0.00    +0.000 C 
ATOM     24  C   UNL     1       1.419  11.324  17.876  0.00  0.00    +0.000 C 
ATOM     25  H   UNL     1       2.585   9.180  17.639  0.00  0.00    +0.000 HD
ENDBRANCH   5  16
BRANCH   1  27
ATOM     26  C   UNL     1       6.972   4.920  17.704  0.00  0.00    +0.000 C 
ATOM     27  O   UNL     1       5.864   5.467  17.011  0.00  0.00    +0.000 OA
ENDBRANCH   1  27
TORSDOF 2
ENDMDL
MODEL 7
REMARK VINA RESULT:      -7.1      6.320      9.015
REMARK  Name = 
REMARK  3 active torsions:
REMARK  status: ('A' for Active; 'I' for Inactive)
REMARK    1  A    between atoms: C_1  and  O_2
REMARK    2  A    between atoms: O_2  and  C_3
REMARK    3  A    between atoms: C_7  and  N_8
REMARK                            x       y       z     vdW  Elec       q    Type
REMARK                         _______ _______ _______ _____ _____    ______ ____
ROOT
ATOM      1  C   UNL     1       0.554  12.942  18.769  0.00  0.00    +0.000 C 
ATOM      2  C   UNL     1       1.100  11.506  18.646  0.00  0.00    +0.000 C 
ATOM      3  C   UNL     1       0.114  10.403  19.023  0.00  0.00    +0.000 C 
ATOM      4  C   UNL     1      -1.290  10.619  18.458  0.00  0.00    +0.000 C 
ATOM      5  C   UNL     1      -1.818  12.069  18.542  0.00  0.00    +0.000 C 
ATOM      6  C   UNL     1      -2.075  12.503  20.014  0.00  0.00    +0.000 C 
ATOM      7  C   UNL     1      -0.830  12.531  20.914  0.00  0.00    +0.000 C 
ATOM      8  C   UNL     1       0.328  13.293  20.253  0.00  0.00    +0.000 C 
ATOM      9  C   UNL     1      -0.443  11.144  21.391  0.00  0.00    +0.000 A 
ATOM     10  C   UNL     1      -0.600  10.809  22.748  0.00  0.00    +0.000 A 
ATOM     11  C   UNL     1      -0.282   9.534  23.218  0.00  0.00    +0.000 A 
ATOM     12  C   UNL     1       0.215   8.574  22.348  0.00  0.00    +0.000 A 
ATOM     13  C   UNL     1       0.372   8.886  21.001  0.00  0.00    +0.000 A 
ATOM     14  C   UNL     1       0.034  10.161  20.510  0.00  0.00    +0.000 A 
ATOM     15  C   UNL     1      -0.765  13.044  17.967  0.00  0.00    +0.000 C 
ENDROOT
BRANCH   5  16
ATOM     16  N   UNL     1      -3.139  12.117  17.849  0.00  0.00    +0.000 N 
ATOM     17  C   UNL     1      -4.157  11.222  18.090  0.00  0.00    +0.000 C 
ATOM     18  O   UNL     1      -3.971  10.152  18.663  0.00  0.00    +0.000 OA
ATOM     19  N   UNL     1      -5.423  11.650  17.709  0.00  0.00    +0.000 N 
ATOM     20  C   UNL     1      -6.592  10.937  18.228  0.00  0.00    +0.000 C 
ATOM     21  C   UNL     1      -7.468  11.879  19.062  0.00  0.00    +0.000 C 
ATOM     22  C   UNL     1      -7.816  13.161  18.302  0.00  0.00    +0.000 C 
ATOM     23  C   UNL     1      -6.569  13.816  17.700  0.00  0.00    +0.000 C 
ATOM     24  C   UNL     1      -5.764  12.807  16.884  0.00  0.00    +0.000 C 
ATOM     25  H   UNL     1      -3.483  13.057  17.748  0.00  0.00    +0.000 HD
ENDBRANCH   5  16
BRANCH   1  27
ATOM     26  C   UNL     1       2.897  13.668  18.823  0.00  0.00    +0.000 C 
ATOM     27  O   UNL     1       1.616  13.745  18.221  0.00  0.00    +0.000 OA
ENDBRANCH   1  27
TORSDOF 2
ENDMDL
MODEL 8
REMARK VINA RESULT:      -7.1      6.345      8.974
REMARK  Name = 
REMARK  3 active torsions:
REMARK  status: ('A' for Active; 'I' for Inactive)
REMARK    1  A    between atoms: C_1  and  O_2
REMARK    2  A    between atoms: O_2  and  C_3
REMARK    3  A    between atoms: C_7  and  N_8
REMARK                            x       y       z     vdW  Elec       q    Type
REMARK                         _______ _______ _______ _____ _____    ______ ____
ROOT
ATOM      1  C   UNL     1      -1.671  11.674  18.207  0.00  0.00    +0.000 C 
ATOM      2  C   UNL     1      -2.309  11.900  19.592  0.00  0.00    +0.000 C 
ATOM      3  C   UNL     1      -1.326  12.227  20.713  0.00  0.00    +0.000 C 
ATOM      4  C   UNL     1      -0.257  13.244  20.312  0.00  0.00    +0.000 C 
ATOM      5  C   UNL     1       0.350  13.042  18.904  0.00  0.00    +0.000 C 
ATOM      6  C   UNL     1       1.204  11.744  18.828  0.00  0.00    +0.000 C 
ATOM      7  C   UNL     1       0.431  10.437  19.067  0.00  0.00    +0.000 C 
ATOM      8  C   UNL     1      -0.845  10.372  18.214  0.00  0.00    +0.000 C 
ATOM      9  C   UNL     1       0.182  10.186  20.543  0.00  0.00    +0.000 A 
ATOM     10  C   UNL     1       0.851   9.131  21.187  0.00  0.00    +0.000 A 
ATOM     11  C   UNL     1       0.670   8.887  22.550  0.00  0.00    +0.000 A 
ATOM     12  C   UNL     1      -0.194   9.681  23.291  0.00  0.00    +0.000 A 
ATOM     13  C   UNL     1      -0.860  10.733  22.671  0.00  0.00    +0.000 A 
ATOM     14  C   UNL     1      -0.670  11.003  21.302  0.00  0.00    +0.000 A 
ATOM     15  C   UNL     1      -0.782  12.894  17.862  0.00  0.00    +0.000 C 
ENDROOT
BRANCH   5  16
ATOM     16  N   UNL     1       1.280  14.178  18.639  0.00  0.00    +0.000 N 
ATOM     17  C   UNL     1       0.933  15.500  18.805  0.00  0.00    +0.000 C 
ATOM     18  O   UNL     1      -0.235  15.868  18.898  0.00  0.00    +0.000 OA
ATOM     19  N   UNL     1       2.001  16.380  18.940  0.00  0.00    +0.000 N 
ATOM     20  C   UNL     1       1.744  17.724  19.460  0.00  0.00    +0.000 C 
ATOM     21  C   UNL     1       2.511  17.949  20.767  0.00  0.00    +0.000 C 
ATOM     22  C   UNL     1       3.999  17.620  20.622  0.00  0.00    +0.000 C 
ATOM     23  C   UNL     1       4.212  16.242  19.987  0.00  0.00    +0.000 C 
ATOM     24  C   UNL     1       3.416  16.111  18.690  0.00  0.00    +0.000 C 
ATOM     25  H   UNL     1       2.213  13.992  18.966  0.00  0.00    +0.000 HD
ENDBRANCH   5  16
BRANCH   1  27
ATOM     26  C   UNL     1      -2.666  10.779  16.151  0.00  0.00    +0.000 C 
ATOM     27  O   UNL     1      -2.812  11.538  17.339  0.00  0.00    +0.000 OA
ENDBRANCH   1  27
TORSDOF 2
ENDMDL
MODEL 9
REMARK VINA RESULT:      -7.0      2.115      3.110
REMARK  Name = 
REMARK  3 active torsions:
REMARK  status: ('A' for Active; 'I' for Inactive)
REMARK    1  A    between atoms: C_1  and  O_2
REMARK    2  A    between atoms: O_2  and  C_3
REMARK    3  A    between atoms: C_7  and  N_8
REMARK                            x       y       z     vdW  Elec       q    Type
REMARK                         _______ _______ _______ _____ _____    ______ ____
ROOT
ATOM      1  C   UNL     1       6.117   5.303  18.924  0.00  0.00    +0.000 C 
ATOM      2  C   UNL     1       7.107   6.009  17.977  0.00  0.00    +0.000 C 
ATOM      3  C   UNL     1       6.509   6.494  16.659  0.00  0.00    +0.000 C 
ATOM      4  C   UNL     1       5.153   7.183  16.819  0.00  0.00    +0.000 C 
ATOM      5  C   UNL     1       4.178   6.498  17.803  0.00  0.00    +0.000 C 
ATOM      6  C   UNL     1       3.693   5.121  17.266  0.00  0.00    +0.000 C 
ATOM      7  C   UNL     1       4.795   4.068  17.076  0.00  0.00    +0.000 C 
ATOM      8  C   UNL     1       5.686   3.951  18.322  0.00  0.00    +0.000 C 
ATOM      9  C   UNL     1       5.578   4.290  15.796  0.00  0.00    +0.000 A 
ATOM     10  C   UNL     1       5.445   3.377  14.735  0.00  0.00    +0.000 A 
ATOM     11  C   UNL     1       6.126   3.564  13.531  0.00  0.00    +0.000 A 
ATOM     12  C   UNL     1       6.967   4.656  13.369  0.00  0.00    +0.000 A 
ATOM     13  C   UNL     1       7.107   5.573  14.406  0.00  0.00    +0.000 A 
ATOM     14  C   UNL     1       6.409   5.407  15.617  0.00  0.00    +0.000 A 
ATOM     15  C   UNL     1       4.895   6.227  19.146  0.00  0.00    +0.000 C 
ENDROOT
BRANCH   5  16
ATOM     16  N   UNL     1       2.965   7.360  17.921  0.00  0.00    +0.000 N 
ATOM     17  C   UNL     1       2.200   7.445  19.063  0.00  0.00    +0.000 C 
ATOM     18  O   UNL     1       2.271   6.616  19.966  0.00  0.00    +0.000 OA
ATOM     19  N   UNL     1       1.401   8.577  19.156  0.00  0.00    +0.000 N 
ATOM     20  C   UNL     1       0.828   8.929  20.456  0.00  0.00    +0.000 C 
ATOM     21  C   UNL     1       1.334  10.303  20.911  0.00  0.00    +0.000 C 
ATOM     22  C   UNL     1       1.126  11.373  19.837  0.00  0.00    +0.000 C 
ATOM     23  C   UNL     1       1.658  10.917  18.476  0.00  0.00    +0.000 C 
ATOM     24  C   UNL     1       1.098   9.546  18.103  0.00  0.00    +0.000 C 
ATOM     25  H   UNL     1       3.092   8.258  17.487  0.00  0.00    +0.000 HD
ENDBRANCH   5  16
BRANCH   1  27
ATOM     26  C   UNL     1       8.258   5.483  20.107  0.00  0.00    +0.000 C 
ATOM     27  O   UNL     1       6.896   5.094  20.117  0.00  0.00    +0.000 OA
ENDBRANCH   1  27
TORSDOF 2
ENDMDL
