MODEL 1
REMARK VINA RESULT:      -7.7      0.000      0.000
REMARK  Name = 
REMARK  4 active torsions:
REMARK  status: ('A' for Active; 'I' for Inactive)
REMARK    1  A    between atoms: C_1  and  O_2
REMARK    2  A    between atoms: O_2  and  C_3
REMARK    3  A    between atoms: C_6  and  N_7
REMARK    4  A    between atoms: C_13  and  C_14
REMARK                            x       y       z     vdW  Elec       q    Type
REMARK                         _______ _______ _______ _____ _____    ______ ____
ROOT
ATOM      1  N   UNL     1       3.060   5.473  18.739  0.00  0.00    +0.000 N 
ATOM      2  C   UNL     1       2.197   4.306  18.664  0.00  0.00    +0.000 C 
ATOM      3  C   UNL     1       2.484   3.185  17.656  0.00  0.00    +0.000 C 
ATOM      4  O   UNL     1       1.776   2.174  17.644  0.00  0.00    +0.000 OA
ATOM      5  N   UNL     1       3.408   3.350  16.668  0.00  0.00    +0.000 N 
ATOM      6  C   UNL     1       4.633   3.969  16.825  0.00  0.00    +0.000 A 
ATOM      7  C   UNL     1       5.601   4.232  15.788  0.00  0.00    +0.000 A 
ATOM      8  C   UNL     1       6.577   4.957  16.430  0.00  0.00    +0.000 A 
ATOM      9  N   UNL     1       6.453   4.681  17.778  0.00  0.00    +0.000 N 
ATOM     10  C   UNL     1       5.105   4.568  17.991  0.00  0.00    +0.000 A 
ATOM     11  C   UNL     1       4.391   5.221  19.060  0.00  0.00    +0.000 C 
ATOM     12  O   UNL     1       4.948   5.688  20.051  0.00  0.00    +0.000 OA
ATOM     13  C   UNL     1       7.494   5.389  18.528  0.00  0.00    +0.000 C 
ATOM     14  C   UNL     1       7.605   6.640  17.664  0.00  0.00    +0.000 C 
ATOM     15  C   UNL     1       7.550   6.056  16.221  0.00  0.00    +0.000 C 
ATOM     16  H   UNL     1       3.329   2.692  15.898  0.00  0.00    +0.000 HD
ENDROOT
BRANCH   1  20
ATOM     17  C   UNL     1       1.169   9.207  19.535  0.00  0.00    +0.000 A 
ATOM     18  C   UNL     1       1.760   8.957  18.297  0.00  0.00    +0.000 A 
ATOM     19  C   UNL     1       2.423   7.746  18.057  0.00  0.00    +0.000 A 
ATOM     20  C   UNL     1       2.503   6.759  19.054  0.00  0.00    +0.000 A 
ATOM     21  C   UNL     1       1.951   7.046  20.306  0.00  0.00    +0.000 A 
ATOM     22  C   UNL     1       1.298   8.262  20.548  0.00  0.00    +0.000 A 
BRANCH  17  24
ATOM     23  C   UNL     1      -0.613  10.574  18.808  0.00  0.00    +0.000 C 
ATOM     24  O   UNL     1       0.519  10.404  19.656  0.00  0.00    +0.000 OA
ENDBRANCH  17  24
ENDBRANCH   1  20
BRANCH   7  25
ATOM     25  C   UNL     1       5.453   4.060  14.367  0.00  0.00    +0.000 C 
ATOM     26  N   UNL     1       5.346   3.907  13.227  0.00  0.00    +0.000 NA
ENDBRANCH   7  25
TORSDOF 3
ENDMDL
MODEL 2
REMARK VINA RESULT:      -7.6      0.542      1.130
REMARK  Name = 
REMARK  4 active torsions:
REMARK  status: ('A' for Active; 'I' for Inactive)
REMARK    1  A    between atoms: C_1  and  O_2
REMARK    2  A    between atoms: O_2  and  C_3
REMARK    3  A    between atoms: C_6  and  N_7
REMARK    4  A    between atoms: C_13  and  C_14
REMARK                            x       y       z     vdW  Elec       q    Type
REMARK                         _______ _______ _______ _____ _____    ______ ____
ROOT
ATOM      1  N   UNL     1       3.019   5.404  18.643  0.00  0.00    +0.000 N 
ATOM      2  C   UNL     1       2.218   4.195  18.542  0.00  0.00    +0.000 C 
ATOM      3  C   UNL     1       2.612   3.074  17.570  0.00  0.00    +0.000 C 
ATOM      4  O   UNL     1       1.955   2.030  17.538  0.00  0.00    +0.000 OA
ATOM      5  N   UNL     1       3.578   3.271  16.629  0.00  0.00    +0.000 N 
ATOM      6  C   UNL     1       4.762   3.951  16.840  0.00  0.00    +0.000 A 
ATOM      7  C   UNL     1       5.771   4.246  15.851  0.00  0.00    +0.000 A 
ATOM      8  C   UNL     1       6.675   5.027  16.532  0.00  0.00    +0.000 A 
ATOM      9  N   UNL     1       6.492   4.765  17.875  0.00  0.00    +0.000 N 
ATOM     10  C   UNL     1       5.142   4.589  18.019  0.00  0.00    +0.000 A 
ATOM     11  C   UNL     1       4.341   5.222  19.038  0.00  0.00    +0.000 C 
ATOM     12  O   UNL     1       4.821   5.731  20.049  0.00  0.00    +0.000 OA
ATOM     13  C   UNL     1       7.457   5.534  18.667  0.00  0.00    +0.000 C 
ATOM     14  C   UNL     1       7.553   6.777  17.789  0.00  0.00    +0.000 C 
ATOM     15  C   UNL     1       7.604   6.169  16.355  0.00  0.00    +0.000 C 
ATOM     16  H   UNL     1       3.573   2.598  15.868  0.00  0.00    +0.000 HD
ENDROOT
BRANCH   1  20
ATOM     17  C   UNL     1       1.376   9.226  19.558  0.00  0.00    +0.000 A 
ATOM     18  C   UNL     1       1.386   8.209  20.511  0.00  0.00    +0.000 A 
ATOM     19  C   UNL     1       1.884   6.938  20.190  0.00  0.00    +0.000 A 
ATOM     20  C   UNL     1       2.384   6.665  18.906  0.00  0.00    +0.000 A 
ATOM     21  C   UNL     1       2.319   7.681  17.947  0.00  0.00    +0.000 A 
ATOM     22  C   UNL     1       1.811   8.947  18.267  0.00  0.00    +0.000 A 
BRANCH  17  24
ATOM     23  C   UNL     1       0.546  10.506  21.361  0.00  0.00    +0.000 C 
ATOM     24  O   UNL     1       0.901  10.437  19.983  0.00  0.00    +0.000 OA
ENDBRANCH  17  24
ENDBRANCH   1  20
BRANCH   7  25
ATOM     25  C   UNL     1       5.707   4.047  14.427  0.00  0.00    +0.000 C 
ATOM     26  N   UNL     1       5.666   3.870  13.287  0.00  0.00    +0.000 NA
ENDBRANCH   7  25
TORSDOF 3
ENDMDL
MODEL 3
REMARK VINA RESULT:      -7.4      2.204      4.523
REMARK  Name = 
REMARK  4 active torsions:
REMARK  status: ('A' for Active; 'I' for Inactive)
REMARK    1  A    between atoms: C_1  and  O_2
REMARK    2  A    between atoms: O_2  and  C_3
REMARK    3  A    between atoms: C_6  and  N_7
REMARK    4  A    between atoms: C_13  and  C_14
REMARK                            x       y       z     vdW  Elec       q    Type
REMARK                         _______ _______ _______ _____ _____    ______ ____
ROOT
ATOM      1  N   UNL     1       3.364   5.859  18.035  0.00  0.00    +0.000 N 
ATOM      2  C   UNL     1       4.621   5.857  17.306  0.00  0.00    +0.000 C 
ATOM      3  C   UNL     1       5.609   4.691  17.453  0.00  0.00    +0.000 C 
ATOM      4  O   UNL     1       6.645   4.677  16.783  0.00  0.00    +0.000 OA
ATOM      5  N   UNL     1       5.441   3.748  18.422  0.00  0.00    +0.000 N 
ATOM      6  C   UNL     1       4.228   3.197  18.789  0.00  0.00    +0.000 A 
ATOM      7  C   UNL     1       4.001   2.257  19.861  0.00  0.00    +0.000 A 
ATOM      8  C   UNL     1       2.634   2.115  19.885  0.00  0.00    +0.000 A 
ATOM      9  N   UNL     1       2.174   2.500  18.641  0.00  0.00    +0.000 N 
ATOM     10  C   UNL     1       2.981   3.545  18.275  0.00  0.00    +0.000 A 
ATOM     11  C   UNL     1       2.502   4.802  17.756  0.00  0.00    +0.000 C 
ATOM     12  O   UNL     1       1.367   4.955  17.309  0.00  0.00    +0.000 OA
ATOM     13  C   UNL     1       0.719   2.333  18.575  0.00  0.00    +0.000 C 
ATOM     14  C   UNL     1       0.374   2.653  20.025  0.00  0.00    +0.000 C 
ATOM     15  C   UNL     1       1.493   1.901  20.808  0.00  0.00    +0.000 C 
ATOM     16  H   UNL     1       6.269   3.196  18.625  0.00  0.00    +0.000 HD
ENDROOT
BRANCH   1  20
ATOM     17  C   UNL     1       1.486   9.468  19.301  0.00  0.00    +0.000 A 
ATOM     18  C   UNL     1       2.071   9.374  18.039  0.00  0.00    +0.000 A 
ATOM     19  C   UNL     1       2.729   8.200  17.646  0.00  0.00    +0.000 A 
ATOM     20  C   UNL     1       2.811   7.097  18.511  0.00  0.00    +0.000 A 
ATOM     21  C   UNL     1       2.264   7.226  19.792  0.00  0.00    +0.000 A 
ATOM     22  C   UNL     1       1.615   8.403  20.187  0.00  0.00    +0.000 A 
BRANCH  17  24
ATOM     23  C   UNL     1      -0.319  10.899  18.785  0.00  0.00    +0.000 C 
ATOM     24  O   UNL     1       0.839  10.642  19.573  0.00  0.00    +0.000 OA
ENDBRANCH  17  24
ENDBRANCH   1  20
BRANCH   7  25
ATOM     25  C   UNL     1       4.929   1.813  20.866  0.00  0.00    +0.000 C 
ATOM     26  N   UNL     1       5.679   1.440  21.662  0.00  0.00    +0.000 NA
ENDBRANCH   7  25
TORSDOF 3
ENDMDL
MODEL 4
REMARK VINA RESULT:      -6.7      2.251      4.663
REMARK  Name = 
REMARK  4 active torsions:
REMARK  status: ('A' for Active; 'I' for Inactive)
REMARK    1  A    between atoms: C_1  and  O_2
REMARK    2  A    between atoms: O_2  and  C_3
REMARK    3  A    between atoms: C_6  and  N_7
REMARK    4  A    between atoms: C_13  and  C_14
REMARK                            x       y       z     vdW  Elec       q    Type
REMARK                         _______ _______ _______ _____ _____    ______ ____
ROOT
ATOM      1  N   UNL     1       3.170   5.785  17.851  0.00  0.00    +0.000 N 
ATOM      2  C   UNL     1       4.412   5.791  17.096  0.00  0.00    +0.000 C 
ATOM      3  C   UNL     1       5.434   4.658  17.263  0.00  0.00    +0.000 C 
ATOM      4  O   UNL     1       6.456   4.648  16.572  0.00  0.00    +0.000 OA
ATOM      5  N   UNL     1       5.312   3.746  18.268  0.00  0.00    +0.000 N 
ATOM      6  C   UNL     1       4.123   3.177  18.680  0.00  0.00    +0.000 A 
ATOM      7  C   UNL     1       3.944   2.270  19.789  0.00  0.00    +0.000 A 
ATOM      8  C   UNL     1       2.582   2.092  19.847  0.00  0.00    +0.000 A 
ATOM      9  N   UNL     1       2.086   2.420  18.600  0.00  0.00    +0.000 N 
ATOM     10  C   UNL     1       2.856   3.472  18.181  0.00  0.00    +0.000 A 
ATOM     11  C   UNL     1       2.332   4.697  17.629  0.00  0.00    +0.000 C 
ATOM     12  O   UNL     1       1.185   4.803  17.200  0.00  0.00    +0.000 OA
ATOM     13  C   UNL     1       0.635   2.212  18.572  0.00  0.00    +0.000 C 
ATOM     14  C   UNL     1       0.311   2.574  20.017  0.00  0.00    +0.000 C 
ATOM     15  C   UNL     1       1.467   1.881  20.802  0.00  0.00    +0.000 C 
ATOM     16  H   UNL     1       6.159   3.224  18.472  0.00  0.00    +0.000 HD
ENDROOT
BRANCH   1  20
ATOM     17  C   UNL     1       1.708   9.516  19.299  0.00  0.00    +0.000 A 
ATOM     18  C   UNL     1       1.725   8.390  20.122  0.00  0.00    +0.000 A 
ATOM     19  C   UNL     1       2.162   7.154  19.626  0.00  0.00    +0.000 A 
ATOM     20  C   UNL     1       2.593   7.024  18.295  0.00  0.00    +0.000 A 
ATOM     21  C   UNL     1       2.521   8.151  17.470  0.00  0.00    +0.000 A 
ATOM     22  C   UNL     1       2.074   9.383  17.964  0.00  0.00    +0.000 A 
BRANCH  17  24
ATOM     23  C   UNL     1       0.578  10.526  21.110  0.00  0.00    +0.000 C 
ATOM     24  O   UNL     1       1.296  10.679  19.889  0.00  0.00    +0.000 OA
ENDBRANCH  17  24
ENDBRANCH   1  20
BRANCH   7  25
ATOM     25  C   UNL     1       4.904   1.887  20.789  0.00  0.00    +0.000 C 
ATOM     26  N   UNL     1       5.662   1.566  21.600  0.00  0.00    +0.000 NA
ENDBRANCH   7  25
TORSDOF 3
ENDMDL
MODEL 5
REMARK VINA RESULT:      -6.5      5.092      9.793
REMARK  Name = 
REMARK  4 active torsions:
REMARK  status: ('A' for Active; 'I' for Inactive)
REMARK    1  A    between atoms: C_1  and  O_2
REMARK    2  A    between atoms: O_2  and  C_3
REMARK    3  A    between atoms: C_6  and  N_7
REMARK    4  A    between atoms: C_13  and  C_14
REMARK                            x       y       z     vdW  Elec       q    Type
REMARK                         _______ _______ _______ _____ _____    ______ ____
ROOT
ATOM      1  N   UNL     1      -0.579  10.993  18.575  0.00  0.00    +0.000 N 
ATOM      2  C   UNL     1      -1.573  10.792  17.534  0.00  0.00    +0.000 C 
ATOM      3  C   UNL     1      -2.990  11.364  17.686  0.00  0.00    +0.000 C 
ATOM      4  O   UNL     1      -3.805  11.235  16.769  0.00  0.00    +0.000 OA
ATOM      5  N   UNL     1      -3.416  11.874  18.876  0.00  0.00    +0.000 N 
ATOM      6  C   UNL     1      -2.655  12.661  19.718  0.00  0.00    +0.000 A 
ATOM      7  C   UNL     1      -3.043  13.152  21.018  0.00  0.00    +0.000 A 
ATOM      8  C   UNL     1      -1.908  13.775  21.483  0.00  0.00    +0.000 A 
ATOM      9  N   UNL     1      -1.140  14.075  20.375  0.00  0.00    +0.000 N 
ATOM     10  C   UNL     1      -1.322  13.019  19.523  0.00  0.00    +0.000 A 
ATOM     11  C   UNL     1      -0.254  12.317  18.855  0.00  0.00    +0.000 C 
ATOM     12  O   UNL     1       0.880  12.775  18.740  0.00  0.00    +0.000 OA
ATOM     13  C   UNL     1       0.074  14.784  20.791  0.00  0.00    +0.000 C 
ATOM     14  C   UNL     1       0.299  14.108  22.138  0.00  0.00    +0.000 C 
ATOM     15  C   UNL     1      -1.143  14.043  22.725  0.00  0.00    +0.000 C 
ATOM     16  H   UNL     1      -4.424  11.961  18.964  0.00  0.00    +0.000 HD
ENDROOT
BRANCH   1  20
ATOM     17  C   UNL     1       2.087   7.770  19.387  0.00  0.00    +0.000 A 
ATOM     18  C   UNL     1       1.369   8.377  20.417  0.00  0.00    +0.000 A 
ATOM     19  C   UNL     1       0.530   9.468  20.151  0.00  0.00    +0.000 A 
ATOM     20  C   UNL     1       0.393   9.969  18.846  0.00  0.00    +0.000 A 
ATOM     21  C   UNL     1       1.159   9.382  17.835  0.00  0.00    +0.000 A 
ATOM     22  C   UNL     1       2.005   8.298  18.103  0.00  0.00    +0.000 A 
BRANCH  17  24
ATOM     23  C   UNL     1       2.133   5.593  20.301  0.00  0.00    +0.000 C 
ATOM     24  O   UNL     1       2.850   6.692  19.747  0.00  0.00    +0.000 OA
ENDBRANCH  17  24
ENDBRANCH   1  20
BRANCH   7  25
ATOM     25  C   UNL     1      -4.213  12.815  21.785  0.00  0.00    +0.000 C 
ATOM     26  N   UNL     1      -5.146  12.527  22.401  0.00  0.00    +0.000 NA
ENDBRANCH   7  25
TORSDOF 3
ENDMDL
MODEL 6
REMARK VINA RESULT:      -6.4      7.583     12.953
REMARK  Name = 
REMARK  4 active torsions:
REMARK  status: ('A' for Active; 'I' for Inactive)
REMARK    1  A    between atoms: C_1  and  O_2
REMARK    2  A    between atoms: O_2  and  C_3
REMARK    3  A    between atoms: C_6  and  N_7
REMARK    4  A    between atoms: C_13  and  C_14
REMARK                            x       y       z     vdW  Elec       q    Type
REMARK                         _______ _______ _______ _____ _____    ______ ____
ROOT
ATOM      1  N   UNL     1      -5.566  10.892  18.802  0.00  0.00    +0.000 N 
ATOM      2  C   UNL     1      -6.212   9.617  19.067  0.00  0.00    +0.000 C 
ATOM      3  C   UNL     1      -7.330   9.509  20.113  0.00  0.00    +0.000 C 
ATOM      4  O   UNL     1      -7.908   8.433  20.285  0.00  0.00    +0.000 OA
ATOM      5  N   UNL     1      -7.592  10.539  20.967  0.00  0.00    +0.000 N 
ATOM      6  C   UNL     1      -7.600  11.875  20.617  0.00  0.00    +0.000 A 
ATOM      7  C   UNL     1      -7.795  12.995  21.506  0.00  0.00    +0.000 A 
ATOM      8  C   UNL     1      -7.600  14.090  20.698  0.00  0.00    +0.000 A 
ATOM      9  N   UNL     1      -7.804  13.666  19.400  0.00  0.00    +0.000 N 
ATOM     10  C   UNL     1      -7.294  12.395  19.361  0.00  0.00    +0.000 A 
ATOM     11  C   UNL     1      -6.399  11.907  18.341  0.00  0.00    +0.000 C 
ATOM     12  O   UNL     1      -6.246  12.468  17.258  0.00  0.00    +0.000 OA
ATOM     13  C   UNL     1      -7.655  14.796  18.479  0.00  0.00    +0.000 C 
ATOM     14  C   UNL     1      -6.581  15.578  19.228  0.00  0.00    +0.000 C 
ATOM     15  C   UNL     1      -7.062  15.472  20.707  0.00  0.00    +0.000 C 
ATOM     16  H   UNL     1      -8.135  10.283  21.787  0.00  0.00    +0.000 HD
ENDROOT
BRANCH   1  20
ATOM     17  C   UNL     1      -1.373  10.887  18.047  0.00  0.00    +0.000 A 
ATOM     18  C   UNL     1      -1.950  11.863  18.859  0.00  0.00    +0.000 A 
ATOM     19  C   UNL     1      -3.336  11.889  19.065  0.00  0.00    +0.000 A 
ATOM     20  C   UNL     1      -4.171  10.932  18.462  0.00  0.00    +0.000 A 
ATOM     21  C   UNL     1      -3.582   9.993  17.611  0.00  0.00    +0.000 A 
ATOM     22  C   UNL     1      -2.198   9.974  17.397  0.00  0.00    +0.000 A 
BRANCH  17  24
ATOM     23  C   UNL     1       0.694   9.934  18.675  0.00  0.00    +0.000 C 
ATOM     24  O   UNL     1      -0.010  10.930  17.939  0.00  0.00    +0.000 OA
ENDBRANCH  17  24
ENDBRANCH   1  20
BRANCH   7  25
ATOM     25  C   UNL     1      -7.865  12.988  22.943  0.00  0.00    +0.000 C 
ATOM     26  N   UNL     1      -7.916  12.964  24.097  0.00  0.00    +0.000 NA
ENDBRANCH   7  25
TORSDOF 3
ENDMDL
MODEL 7
REMARK VINA RESULT:      -6.3      5.367     10.606
REMARK  Name = 
REMARK  4 active torsions:
REMARK  status: ('A' for Active; 'I' for Inactive)
REMARK    1  A    between atoms: C_1  and  O_2
REMARK    2  A    between atoms: O_2  and  C_3
REMARK    3  A    between atoms: C_6  and  N_7
REMARK    4  A    between atoms: C_13  and  C_14
REMARK                            x       y       z     vdW  Elec       q    Type
REMARK                         _______ _______ _______ _____ _____    ______ ____
ROOT
ATOM      1  N   UNL     1      -1.665  11.331  18.836  0.00  0.00    +0.000 N 
ATOM      2  C   UNL     1      -2.226  11.242  17.498  0.00  0.00    +0.000 C 
ATOM      3  C   UNL     1      -3.721  11.493  17.257  0.00  0.00    +0.000 C 
ATOM      4  O   UNL     1      -4.170  11.471  16.108  0.00  0.00    +0.000 OA
ATOM      5  N   UNL     1      -4.592  11.587  18.301  0.00  0.00    +0.000 N 
ATOM      6  C   UNL     1      -4.337  12.245  19.489  0.00  0.00    +0.000 A 
ATOM      7  C   UNL     1      -5.202  12.298  20.643  0.00  0.00    +0.000 A 
ATOM      8  C   UNL     1      -4.450  12.966  21.582  0.00  0.00    +0.000 A 
ATOM      9  N   UNL     1      -3.493  13.679  20.888  0.00  0.00    +0.000 N 
ATOM     10  C   UNL     1      -3.143  12.871  19.839  0.00  0.00    +0.000 A 
ATOM     11  C   UNL     1      -1.784  12.570  19.460  0.00  0.00    +0.000 C 
ATOM     12  O   UNL     1      -0.820  13.234  19.834  0.00  0.00    +0.000 OA
ATOM     13  C   UNL     1      -2.675  14.455  21.825  0.00  0.00    +0.000 C 
ATOM     14  C   UNL     1      -2.693  13.497  23.011  0.00  0.00    +0.000 C 
ATOM     15  C   UNL     1      -4.178  13.026  23.038  0.00  0.00    +0.000 C 
ATOM     16  H   UNL     1      -5.569  11.469  18.050  0.00  0.00    +0.000 HD
ENDROOT
BRANCH   1  20
ATOM     17  C   UNL     1       1.339   8.530  19.968  0.00  0.00    +0.000 A 
ATOM     18  C   UNL     1       0.414   8.998  20.900  0.00  0.00    +0.000 A 
ATOM     19  C   UNL     1      -0.542   9.956  20.535  0.00  0.00    +0.000 A 
ATOM     20  C   UNL     1      -0.590  10.461  19.224  0.00  0.00    +0.000 A 
ATOM     21  C   UNL     1       0.377  10.019  18.316  0.00  0.00    +0.000 A 
ATOM     22  C   UNL     1       1.338   9.069  18.685  0.00  0.00    +0.000 A 
BRANCH  17  24
ATOM     23  C   UNL     1       2.585   6.591  19.456  0.00  0.00    +0.000 C 
ATOM     24  O   UNL     1       2.206   7.572  20.417  0.00  0.00    +0.000 OA
ENDBRANCH  17  24
ENDBRANCH   1  20
BRANCH   7  25
ATOM     25  C   UNL     1      -6.420  11.570  20.878  0.00  0.00    +0.000 C 
ATOM     26  N   UNL     1      -7.388  10.969  21.065  0.00  0.00    +0.000 NA
ENDBRANCH   7  25
TORSDOF 3
ENDMDL
MODEL 8
REMARK VINA RESULT:      -6.2      2.609      5.523
REMARK  Name = 
REMARK  4 active torsions:
REMARK  status: ('A' for Active; 'I' for Inactive)
REMARK    1  A    between atoms: C_1  and  O_2
REMARK    2  A    between atoms: O_2  and  C_3
REMARK    3  A    between atoms: C_6  and  N_7
REMARK    4  A    between atoms: C_13  and  C_14
REMARK                            x       y       z     vdW  Elec       q    Type
REMARK                         _______ _______ _______ _____ _____    ______ ____
ROOT
ATOM      1  N   UNL     1       6.122   6.093  16.774  0.00  0.00    +0.000 N 
ATOM      2  C   UNL     1       6.516   5.381  15.570  0.00  0.00    +0.000 C 
ATOM      3  C   UNL     1       5.974   3.974  15.281  0.00  0.00    +0.000 C 
ATOM      4  O   UNL     1       6.272   3.406  14.226  0.00  0.00    +0.000 OA
ATOM      5  N   UNL     1       5.295   3.275  16.234  0.00  0.00    +0.000 N 
ATOM      6  C   UNL     1       4.361   3.814  17.096  0.00  0.00    +0.000 A 
ATOM      7  C   UNL     1       3.682   3.124  18.167  0.00  0.00    +0.000 A 
ATOM      8  C   UNL     1       2.958   4.115  18.785  0.00  0.00    +0.000 A 
ATOM      9  N   UNL     1       2.812   5.133  17.863  0.00  0.00    +0.000 N 
ATOM     10  C   UNL     1       3.995   5.156  17.174  0.00  0.00    +0.000 A 
ATOM     11  C   UNL     1       4.760   6.349  16.907  0.00  0.00    +0.000 C 
ATOM     12  O   UNL     1       4.290   7.482  16.997  0.00  0.00    +0.000 OA
ATOM     13  C   UNL     1       2.008   6.215  18.440  0.00  0.00    +0.000 C 
ATOM     14  C   UNL     1       2.454   6.099  19.893  0.00  0.00    +0.000 C 
ATOM     15  C   UNL     1       2.472   4.557  20.115  0.00  0.00    +0.000 C 
ATOM     16  H   UNL     1       5.227   2.276  16.060  0.00  0.00    +0.000 HD
ENDROOT
BRANCH   1  20
ATOM     17  C   UNL     1       8.675   8.787  18.866  0.00  0.00    +0.000 A 
ATOM     18  C   UNL     1       7.981   9.201  17.729  0.00  0.00    +0.000 A 
ATOM     19  C   UNL     1       7.181   8.297  17.017  0.00  0.00    +0.000 A 
ATOM     20  C   UNL     1       7.057   6.961  17.434  0.00  0.00    +0.000 A 
ATOM     21  C   UNL     1       7.800   6.551  18.546  0.00  0.00    +0.000 A 
ATOM     22  C   UNL     1       8.608   7.452  19.250  0.00  0.00    +0.000 A 
BRANCH  17  24
ATOM     23  C   UNL     1       9.650  10.935  18.749  0.00  0.00    +0.000 C 
ATOM     24  O   UNL     1       9.400   9.754  19.506  0.00  0.00    +0.000 OA
ENDBRANCH  17  24
ENDBRANCH   1  20
BRANCH   7  25
ATOM     25  C   UNL     1       3.930   1.799  18.671  0.00  0.00    +0.000 C 
ATOM     26  N   UNL     1       4.145   0.743  19.086  0.00  0.00    +0.000 NA
ENDBRANCH   7  25
TORSDOF 3
ENDMDL
MODEL 9
REMARK VINA RESULT:      -6.2      2.777      7.196
REMARK  Name = 
REMARK  4 active torsions:
REMARK  status: ('A' for Active; 'I' for Inactive)
REMARK    1  A    between atoms: C_1  and  O_2
REMARK    2  A    between atoms: O_2  and  C_3
REMARK    3  A    between atoms: C_6  and  N_7
REMARK    4  A    between atoms: C_13  and  C_14
REMARK                            x       y       z     vdW  Elec       q    Type
REMARK                         _______ _______ _______ _____ _____    ______ ____
ROOT
ATOM      1  N   UNL     1       6.174   5.268  15.916  0.00  0.00    +0.000 N 
ATOM      2  C   UNL     1       7.151   6.263  16.327  0.00  0.00    +0.000 C 
ATOM      3  C   UNL     1       6.756   7.399  17.280  0.00  0.00    +0.000 C 
ATOM      4  O   UNL     1       7.610   8.202  17.666  0.00  0.00    +0.000 OA
ATOM      5  N   UNL     1       5.449   7.633  17.588  0.00  0.00    +0.000 N 
ATOM      6  C   UNL     1       4.506   6.655  17.838  0.00  0.00    +0.000 A 
ATOM      7  C   UNL     1       3.100   6.861  18.088  0.00  0.00    +0.000 A 
ATOM      8  C   UNL     1       2.592   5.586  18.158  0.00  0.00    +0.000 A 
ATOM      9  N   UNL     1       3.653   4.752  18.453  0.00  0.00    +0.000 N 
ATOM     10  C   UNL     1       4.715   5.279  17.768  0.00  0.00    +0.000 A 
ATOM     11  C   UNL     1       5.613   4.511  16.941  0.00  0.00    +0.000 C 
ATOM     12  O   UNL     1       5.706   3.288  17.007  0.00  0.00    +0.000 OA
ATOM     13  C   UNL     1       3.178   3.372  18.588  0.00  0.00    +0.000 C 
ATOM     14  C   UNL     1       2.052   3.403  17.560  0.00  0.00    +0.000 C 
ATOM     15  C   UNL     1       1.386   4.785  17.835  0.00  0.00    +0.000 C 
ATOM     16  H   UNL     1       5.263   8.551  17.981  0.00  0.00    +0.000 HD
ENDROOT
BRANCH   1  20
ATOM     17  C   UNL     1       6.502   3.393  12.104  0.00  0.00    +0.000 A 
ATOM     18  C   UNL     1       7.545   4.170  12.608  0.00  0.00    +0.000 A 
ATOM     19  C   UNL     1       7.413   4.824  13.841  0.00  0.00    +0.000 A 
ATOM     20  C   UNL     1       6.232   4.708  14.594  0.00  0.00    +0.000 A 
ATOM     21  C   UNL     1       5.178   3.968  14.050  0.00  0.00    +0.000 A 
ATOM     22  C   UNL     1       5.307   3.323  12.813  0.00  0.00    +0.000 A 
BRANCH  17  24
ATOM     23  C   UNL     1       6.796   1.348  10.961  0.00  0.00    +0.000 C 
ATOM     24  O   UNL     1       6.745   2.771  10.910  0.00  0.00    +0.000 OA
ENDBRANCH  17  24
ENDBRANCH   1  20
BRANCH   7  25
ATOM     25  C   UNL     1       2.346   8.082  17.980  0.00  0.00    +0.000 C 
ATOM     26  N   UNL     1       1.743   9.061  17.874  0.00  0.00    +0.000 NA
ENDBRANCH   7  25
TORSDOF 3
ENDMDL
