MODEL 1
REMARK VINA RESULT:      -7.9      0.000      0.000
REMARK  Name = 
REMARK  10 active torsions:
REMARK  status: ('A' for Active; 'I' for Inactive)
REMARK    1  A    between atoms: C_1  and  C_2
REMARK    2  A    between atoms: N_4  and  C_5
REMARK    3  A    between atoms: C_5  and  C_6
REMARK    4  A    between atoms: C_5  and  C_13
REMARK    5  A    between atoms: C_6  and  C_7
REMARK    6  A    between atoms: N_15  and  C_16
REMARK    7  A    between atoms: C_16  and  C_17
REMARK    8  A    between atoms: C_16  and  C_25
REMARK    9  A    between atoms: C_17  and  C_18
REMARK   10  A    between atoms: C_21  and  O_22
REMARK                            x       y       z     vdW  Elec       q    Type
REMARK                         _______ _______ _______ _____ _____    ______ ____
ROOT
ATOM      1  C   UNL     1       4.650   4.699  18.654  0.00  0.00    +0.000 C 
ATOM      2  O   UNL     1       5.148   3.702  19.180  0.00  0.00    +0.000 OA
ATOM      3  N   UNL     1       5.382   5.556  17.854  0.00  0.00    +0.000 N 
ATOM      4  H   UNL     1       4.895   6.211  17.257  0.00  0.00    +0.000 HD
ENDROOT
BRANCH   1   5
ATOM      5  C   UNL     1       3.155   5.072  18.874  0.00  0.00    +0.000 C 
BRANCH   5   9
ATOM      6  C   UNL     1       0.881   1.995  18.838  0.00  0.00    +0.000 C 
ATOM      7  C   UNL     1       1.698   3.123  18.263  0.00  0.00    +0.000 C 
ATOM      8  O   UNL     1       1.692   3.382  17.063  0.00  0.00    +0.000 OA
ATOM      9  N   UNL     1       2.410   3.844  19.188  0.00  0.00    +0.000 N 
ATOM     10  H   UNL     1       2.444   3.540  20.157  0.00  0.00    +0.000 HD
ENDBRANCH   5   9
BRANCH   5  11
ATOM     11  C   UNL     1       3.022   6.179  19.952  0.00  0.00    +0.000 C 
BRANCH  11  12
ATOM     12  C   UNL     1       2.352   7.471  19.528  0.00  0.00    +0.000 A 
ATOM     13  C   UNL     1       1.614   8.204  20.473  0.00  0.00    +0.000 A 
ATOM     14  C   UNL     1       0.866   9.316  20.086  0.00  0.00    +0.000 A 
ATOM     15  C   UNL     1       0.870   9.734  18.756  0.00  0.00    +0.000 A 
ATOM     16  C   UNL     1       1.666   9.075  17.829  0.00  0.00    +0.000 A 
ATOM     17  C   UNL     1       2.416   7.968  18.219  0.00  0.00    +0.000 A 
ENDBRANCH  11  12
ENDBRANCH   5  11
ENDBRANCH   1   5
BRANCH   3  18
ATOM     18  C   UNL     1       6.828   5.350  17.610  0.00  0.00    +0.000 C 
BRANCH  18  19
ATOM     19  C   UNL     1       7.693   6.036  18.685  0.00  0.00    +0.000 C 
ATOM     20  N   UNL     1       7.777   5.395  19.889  0.00  0.00    +0.000 N 
ATOM     21  O   UNL     1       8.124   7.181  18.572  0.00  0.00    +0.000 OA
ATOM     22  H   UNL     1       7.757   4.385  19.870  0.00  0.00    +0.000 HD
ATOM     23  H   UNL     1       8.429   5.807  20.544  0.00  0.00    +0.000 HD
ENDBRANCH  18  19
BRANCH  18  24
ATOM     24  C   UNL     1       7.279   5.922  16.249  0.00  0.00    +0.000 C 
BRANCH  24  25
ATOM     25  C   UNL     1       6.839   5.138  15.033  0.00  0.00    +0.000 A 
ATOM     26  C   UNL     1       5.669   4.365  15.100  0.00  0.00    +0.000 A 
ATOM     27  C   UNL     1       5.290   3.553  14.030  0.00  0.00    +0.000 A 
ATOM     28  C   UNL     1       6.069   3.534  12.879  0.00  0.00    +0.000 A 
ATOM     29  C   UNL     1       7.177   4.360  12.758  0.00  0.00    +0.000 A 
ATOM     30  C   UNL     1       7.556   5.170  13.829  0.00  0.00    +0.000 A 
BRANCH  28  31
ATOM     31  O   UNL     1       5.781   2.702  11.839  0.00  0.00    +0.000 OA
ATOM     32  H   UNL     1       6.471   2.806  11.163  0.00  0.00    +0.000 HD
ENDBRANCH  28  31
ENDBRANCH  24  25
ENDBRANCH  18  24
ENDBRANCH   3  18
TORSDOF 9
ENDMDL
MODEL 2
REMARK VINA RESULT:      -7.8      0.315      1.346
REMARK  Name = 
REMARK  10 active torsions:
REMARK  status: ('A' for Active; 'I' for Inactive)
REMARK    1  A    between atoms: C_1  and  C_2
REMARK    2  A    between atoms: N_4  and  C_5
REMARK    3  A    between atoms: C_5  and  C_6
REMARK    4  A    between atoms: C_5  and  C_13
REMARK    5  A    between atoms: C_6  and  C_7
REMARK    6  A    between atoms: N_15  and  C_16
REMARK    7  A    between atoms: C_16  and  C_17
REMARK    8  A    between atoms: C_16  and  C_25
REMARK    9  A    between atoms: C_17  and  C_18
REMARK   10  A    between atoms: C_21  and  O_22
REMARK                            x       y       z     vdW  Elec       q    Type
REMARK                         _______ _______ _______ _____ _____    ______ ____
ROOT
ATOM      1  C   UNL     1       4.518   4.803  18.401  0.00  0.00    +0.000 C 
ATOM      2  O   UNL     1       4.884   3.635  18.547  0.00  0.00    +0.000 OA
ATOM      3  N   UNL     1       5.369   5.793  17.947  0.00  0.00    +0.000 N 
ATOM      4  H   UNL     1       4.980   6.666  17.617  0.00  0.00    +0.000 HD
ENDROOT
BRANCH   1   5
ATOM      5  C   UNL     1       3.066   5.247  18.742  0.00  0.00    +0.000 C 
BRANCH   5   9
ATOM      6  C   UNL     1       0.569   2.365  19.049  0.00  0.00    +0.000 C 
ATOM      7  C   UNL     1       1.339   3.466  18.368  0.00  0.00    +0.000 C 
ATOM      8  O   UNL     1       1.095   3.811  17.216  0.00  0.00    +0.000 OA
ATOM      9  N   UNL     1       2.299   4.061  19.147  0.00  0.00    +0.000 N 
ATOM     10  H   UNL     1       2.516   3.685  20.067  0.00  0.00    +0.000 HD
ENDBRANCH   5   9
BRANCH   5  11
ATOM     11  C   UNL     1       3.075   6.380  19.801  0.00  0.00    +0.000 C 
BRANCH  11  12
ATOM     12  C   UNL     1       2.229   7.603  19.505  0.00  0.00    +0.000 A 
ATOM     13  C   UNL     1       2.212   8.126  18.202  0.00  0.00    +0.000 A 
ATOM     14  C   UNL     1       1.564   9.331  17.927  0.00  0.00    +0.000 A 
ATOM     15  C   UNL     1       0.892  10.013  18.941  0.00  0.00    +0.000 A 
ATOM     16  C   UNL     1       0.823   9.461  20.212  0.00  0.00    +0.000 A 
ATOM     17  C   UNL     1       1.467   8.256  20.484  0.00  0.00    +0.000 A 
ENDBRANCH  11  12
ENDBRANCH   5  11
ENDBRANCH   1   5
BRANCH   3  18
ATOM     18  C   UNL     1       6.792   5.518  17.644  0.00  0.00    +0.000 C 
BRANCH  18  19
ATOM     19  C   UNL     1       7.735   6.190  18.661  0.00  0.00    +0.000 C 
ATOM     20  N   UNL     1       7.892   5.542  19.854  0.00  0.00    +0.000 N 
ATOM     21  O   UNL     1       8.170   7.330  18.523  0.00  0.00    +0.000 OA
ATOM     22  H   UNL     1       7.860   4.533  19.832  0.00  0.00    +0.000 HD
ATOM     23  H   UNL     1       8.590   5.944  20.466  0.00  0.00    +0.000 HD
ENDBRANCH  18  19
BRANCH  18  24
ATOM     24  C   UNL     1       7.204   6.038  16.249  0.00  0.00    +0.000 C 
BRANCH  24  25
ATOM     25  C   UNL     1       6.868   5.130  15.088  0.00  0.00    +0.000 A 
ATOM     26  C   UNL     1       7.592   5.248  13.891  0.00  0.00    +0.000 A 
ATOM     27  C   UNL     1       7.242   4.495  12.769  0.00  0.00    +0.000 A 
ATOM     28  C   UNL     1       6.181   3.601  12.853  0.00  0.00    +0.000 A 
ATOM     29  C   UNL     1       5.513   3.402  14.052  0.00  0.00    +0.000 A 
ATOM     30  C   UNL     1       5.862   4.156  15.172  0.00  0.00    +0.000 A 
BRANCH  28  31
ATOM     31  O   UNL     1       5.755   2.900  11.764  0.00  0.00    +0.000 OA
ATOM     32  H   UNL     1       5.361   3.524  11.133  0.00  0.00    +0.000 HD
ENDBRANCH  28  31
ENDBRANCH  24  25
ENDBRANCH  18  24
ENDBRANCH   3  18
TORSDOF 9
ENDMDL
MODEL 3
REMARK VINA RESULT:      -7.8      4.054      8.124
REMARK  Name = 
REMARK  10 active torsions:
REMARK  status: ('A' for Active; 'I' for Inactive)
REMARK    1  A    between atoms: C_1  and  C_2
REMARK    2  A    between atoms: N_4  and  C_5
REMARK    3  A    between atoms: C_5  and  C_6
REMARK    4  A    between atoms: C_5  and  C_13
REMARK    5  A    between atoms: C_6  and  C_7
REMARK    6  A    between atoms: N_15  and  C_16
REMARK    7  A    between atoms: C_16  and  C_17
REMARK    8  A    between atoms: C_16  and  C_25
REMARK    9  A    between atoms: C_17  and  C_18
REMARK   10  A    between atoms: C_21  and  O_22
REMARK                            x       y       z     vdW  Elec       q    Type
REMARK                         _______ _______ _______ _____ _____    ______ ____
ROOT
ATOM      1  C   UNL     1       1.989   8.621  18.249  0.00  0.00    +0.000 C 
ATOM      2  O   UNL     1       1.991   9.365  17.266  0.00  0.00    +0.000 OA
ATOM      3  N   UNL     1       1.326   8.943  19.418  0.00  0.00    +0.000 N 
ATOM      4  H   UNL     1       1.149   8.217  20.100  0.00  0.00    +0.000 HD
ENDROOT
BRANCH   1   5
ATOM      5  C   UNL     1       2.758   7.267  18.243  0.00  0.00    +0.000 C 
BRANCH   5   9
ATOM      6  C   UNL     1       6.369   7.012  17.007  0.00  0.00    +0.000 C 
ATOM      7  C   UNL     1       4.937   6.589  17.199  0.00  0.00    +0.000 C 
ATOM      8  O   UNL     1       4.533   5.485  16.848  0.00  0.00    +0.000 OA
ATOM      9  N   UNL     1       4.143   7.520  17.822  0.00  0.00    +0.000 N 
ATOM     10  H   UNL     1       4.505   8.449  18.021  0.00  0.00    +0.000 HD
ENDBRANCH   5   9
BRANCH   5  11
ATOM     11  C   UNL     1       2.639   6.566  19.622  0.00  0.00    +0.000 C 
BRANCH  11  12
ATOM     12  C   UNL     1       2.096   5.151  19.626  0.00  0.00    +0.000 A 
ATOM     13  C   UNL     1       1.861   4.502  18.403  0.00  0.00    +0.000 A 
ATOM     14  C   UNL     1       1.226   3.260  18.366  0.00  0.00    +0.000 A 
ATOM     15  C   UNL     1       0.849   2.630  19.551  0.00  0.00    +0.000 A 
ATOM     16  C   UNL     1       1.157   3.217  20.771  0.00  0.00    +0.000 A 
ATOM     17  C   UNL     1       1.794   4.455  20.806  0.00  0.00    +0.000 A 
ENDBRANCH  11  12
ENDBRANCH   5  11
ENDBRANCH   1   5
BRANCH   3  18
ATOM     18  C   UNL     1       0.607  10.227  19.578  0.00  0.00    +0.000 C 
BRANCH  18  19
ATOM     19  C   UNL     1       1.093  11.006  20.815  0.00  0.00    +0.000 C 
ATOM     20  N   UNL     1       1.467  12.302  20.600  0.00  0.00    +0.000 N 
ATOM     21  O   UNL     1       1.335  10.471  21.894  0.00  0.00    +0.000 OA
ATOM     22  H   UNL     1       0.962  12.811  19.888  0.00  0.00    +0.000 HD
ATOM     23  H   UNL     1       1.686  12.825  21.438  0.00  0.00    +0.000 HD
ENDBRANCH  18  19
BRANCH  18  24
ATOM     24  C   UNL     1      -0.914  10.027  19.751  0.00  0.00    +0.000 C 
BRANCH  24  25
ATOM     25  C   UNL     1      -1.761  10.378  18.549  0.00  0.00    +0.000 A 
ATOM     26  C   UNL     1      -1.545   9.706  17.336  0.00  0.00    +0.000 A 
ATOM     27  C   UNL     1      -2.240  10.074  16.183  0.00  0.00    +0.000 A 
ATOM     28  C   UNL     1      -3.173  11.101  16.250  0.00  0.00    +0.000 A 
ATOM     29  C   UNL     1      -3.468  11.716  17.458  0.00  0.00    +0.000 A 
ATOM     30  C   UNL     1      -2.772  11.348  18.609  0.00  0.00    +0.000 A 
BRANCH  28  31
ATOM     31  O   UNL     1      -3.821  11.547  15.136  0.00  0.00    +0.000 OA
ATOM     32  H   UNL     1      -4.116  12.458  15.298  0.00  0.00    +0.000 HD
ENDBRANCH  28  31
ENDBRANCH  24  25
ENDBRANCH  18  24
ENDBRANCH   3  18
TORSDOF 9
ENDMDL
MODEL 4
REMARK VINA RESULT:      -7.7      1.428      1.912
REMARK  Name = 
REMARK  10 active torsions:
REMARK  status: ('A' for Active; 'I' for Inactive)
REMARK    1  A    between atoms: C_1  and  C_2
REMARK    2  A    between atoms: N_4  and  C_5
REMARK    3  A    between atoms: C_5  and  C_6
REMARK    4  A    between atoms: C_5  and  C_13
REMARK    5  A    between atoms: C_6  and  C_7
REMARK    6  A    between atoms: N_15  and  C_16
REMARK    7  A    between atoms: C_16  and  C_17
REMARK    8  A    between atoms: C_16  and  C_25
REMARK    9  A    between atoms: C_17  and  C_18
REMARK   10  A    between atoms: C_21  and  O_22
REMARK                            x       y       z     vdW  Elec       q    Type
REMARK                         _______ _______ _______ _____ _____    ______ ____
ROOT
ATOM      1  C   UNL     1       3.606   4.545  17.801  0.00  0.00    +0.000 C 
ATOM      2  O   UNL     1       3.297   3.515  17.198  0.00  0.00    +0.000 OA
ATOM      3  N   UNL     1       4.747   5.264  17.499  0.00  0.00    +0.000 N 
ATOM      4  H   UNL     1       4.839   6.211  17.842  0.00  0.00    +0.000 HD
ENDROOT
BRANCH   1   5
ATOM      5  C   UNL     1       2.735   5.095  18.967  0.00  0.00    +0.000 C 
BRANCH   5   9
ATOM      6  C   UNL     1       1.791   2.507  21.622  0.00  0.00    +0.000 C 
ATOM      7  C   UNL     1       1.626   3.342  20.380  0.00  0.00    +0.000 C 
ATOM      8  O   UNL     1       0.578   3.354  19.741  0.00  0.00    +0.000 OA
ATOM      9  N   UNL     1       2.722   4.100  20.049  0.00  0.00    +0.000 N 
ATOM     10  H   UNL     1       3.591   3.992  20.564  0.00  0.00    +0.000 HD
ENDBRANCH   5   9
BRANCH   5  11
ATOM     11  C   UNL     1       3.235   6.495  19.409  0.00  0.00    +0.000 C 
BRANCH  11  12
ATOM     12  C   UNL     1       2.252   7.643  19.289  0.00  0.00    +0.000 A 
ATOM     13  C   UNL     1       2.062   8.255  18.039  0.00  0.00    +0.000 A 
ATOM     14  C   UNL     1       1.279   9.404  17.920  0.00  0.00    +0.000 A 
ATOM     15  C   UNL     1       0.646   9.939  19.042  0.00  0.00    +0.000 A 
ATOM     16  C   UNL     1       0.750   9.293  20.265  0.00  0.00    +0.000 A 
ATOM     17  C   UNL     1       1.528   8.144  20.381  0.00  0.00    +0.000 A 
ENDBRANCH  11  12
ENDBRANCH   5  11
ENDBRANCH   1   5
BRANCH   3  18
ATOM     18  C   UNL     1       5.695   4.818  16.452  0.00  0.00    +0.000 C 
BRANCH  18  19
ATOM     19  C   UNL     1       7.142   5.235  16.775  0.00  0.00    +0.000 C 
ATOM     20  N   UNL     1       7.912   4.298  17.404  0.00  0.00    +0.000 N 
ATOM     21  O   UNL     1       7.548   6.391  16.674  0.00  0.00    +0.000 OA
ATOM     22  H   UNL     1       7.739   3.332  17.166  0.00  0.00    +0.000 HD
ATOM     23  H   UNL     1       8.885   4.553  17.516  0.00  0.00    +0.000 HD
ENDBRANCH  18  19
BRANCH  18  24
ATOM     24  C   UNL     1       5.361   5.416  15.068  0.00  0.00    +0.000 C 
BRANCH  24  25
ATOM     25  C   UNL     1       5.878   4.638  13.879  0.00  0.00    +0.000 A 
ATOM     26  C   UNL     1       5.063   3.656  13.293  0.00  0.00    +0.000 A 
ATOM     27  C   UNL     1       5.546   2.853  12.259  0.00  0.00    +0.000 A 
ATOM     28  C   UNL     1       6.839   3.051  11.791  0.00  0.00    +0.000 A 
ATOM     29  C   UNL     1       7.628   4.076  12.293  0.00  0.00    +0.000 A 
ATOM     30  C   UNL     1       7.144   4.877  13.327  0.00  0.00    +0.000 A 
BRANCH  28  31
ATOM     31  O   UNL     1       7.381   2.243  10.836  0.00  0.00    +0.000 OA
ATOM     32  H   UNL     1       8.342   2.385  10.824  0.00  0.00    +0.000 HD
ENDBRANCH  28  31
ENDBRANCH  24  25
ENDBRANCH  18  24
ENDBRANCH   3  18
TORSDOF 9
ENDMDL
MODEL 5
REMARK VINA RESULT:      -7.6      4.144      8.143
REMARK  Name = 
REMARK  10 active torsions:
REMARK  status: ('A' for Active; 'I' for Inactive)
REMARK    1  A    between atoms: C_1  and  C_2
REMARK    2  A    between atoms: N_4  and  C_5
REMARK    3  A    between atoms: C_5  and  C_6
REMARK    4  A    between atoms: C_5  and  C_13
REMARK    5  A    between atoms: C_6  and  C_7
REMARK    6  A    between atoms: N_15  and  C_16
REMARK    7  A    between atoms: C_16  and  C_17
REMARK    8  A    between atoms: C_16  and  C_25
REMARK    9  A    between atoms: C_17  and  C_18
REMARK   10  A    between atoms: C_21  and  O_22
REMARK                            x       y       z     vdW  Elec       q    Type
REMARK                         _______ _______ _______ _____ _____    ______ ____
ROOT
ATOM      1  C   UNL     1       1.877   8.663  18.261  0.00  0.00    +0.000 C 
ATOM      2  O   UNL     1       1.910   9.267  17.187  0.00  0.00    +0.000 OA
ATOM      3  N   UNL     1       1.218   9.162  19.369  0.00  0.00    +0.000 N 
ATOM      4  H   UNL     1       1.011   8.542  20.141  0.00  0.00    +0.000 HD
ENDROOT
BRANCH   1   5
ATOM      5  C   UNL     1       2.598   7.296  18.447  0.00  0.00    +0.000 C 
BRANCH   5   9
ATOM      6  C   UNL     1       6.122   6.767  17.055  0.00  0.00    +0.000 C 
ATOM      7  C   UNL     1       4.660   6.479  17.274  0.00  0.00    +0.000 C 
ATOM      8  O   UNL     1       4.133   5.450  16.862  0.00  0.00    +0.000 OA
ATOM      9  N   UNL     1       3.988   7.438  17.990  0.00  0.00    +0.000 N 
ATOM     10  H   UNL     1       4.451   8.308  18.239  0.00  0.00    +0.000 HD
ENDBRANCH   5   9
BRANCH   5  11
ATOM     11  C   UNL     1       2.466   6.804  19.912  0.00  0.00    +0.000 C 
BRANCH  11  12
ATOM     12  C   UNL     1       2.286   5.313  20.120  0.00  0.00    +0.000 A 
ATOM     13  C   UNL     1       3.400   4.465  20.003  0.00  0.00    +0.000 A 
ATOM     14  C   UNL     1       3.247   3.079  20.043  0.00  0.00    +0.000 A 
ATOM     15  C   UNL     1       1.985   2.518  20.236  0.00  0.00    +0.000 A 
ATOM     16  C   UNL     1       0.890   3.345  20.444  0.00  0.00    +0.000 A 
ATOM     17  C   UNL     1       1.045   4.728  20.409  0.00  0.00    +0.000 A 
ENDBRANCH  11  12
ENDBRANCH   5  11
ENDBRANCH   1   5
BRANCH   3  18
ATOM     18  C   UNL     1       0.542  10.479  19.346  0.00  0.00    +0.000 C 
BRANCH  18  19
ATOM     19  C   UNL     1       1.101  11.429  20.423  0.00  0.00    +0.000 C 
ATOM     20  N   UNL     1       1.812  12.503  19.967  0.00  0.00    +0.000 N 
ATOM     21  O   UNL     1       1.102  11.160  21.622  0.00  0.00    +0.000 OA
ATOM     22  H   UNL     1       1.518  12.905  19.088  0.00  0.00    +0.000 HD
ATOM     23  H   UNL     1       2.082  13.167  20.682  0.00  0.00    +0.000 HD
ENDBRANCH  18  19
BRANCH  18  24
ATOM     24  C   UNL     1      -0.975  10.362  19.605  0.00  0.00    +0.000 C 
BRANCH  24  25
ATOM     25  C   UNL     1      -1.859  10.507  18.386  0.00  0.00    +0.000 A 
ATOM     26  C   UNL     1      -2.959  11.378  18.434  0.00  0.00    +0.000 A 
ATOM     27  C   UNL     1      -3.850  11.461  17.363  0.00  0.00    +0.000 A 
ATOM     28  C   UNL     1      -3.626  10.689  16.230  0.00  0.00    +0.000 A 
ATOM     29  C   UNL     1      -2.495   9.891  16.126  0.00  0.00    +0.000 A 
ATOM     30  C   UNL     1      -1.606   9.809  17.197  0.00  0.00    +0.000 A 
BRANCH  28  31
ATOM     31  O   UNL     1      -4.508  10.678  15.191  0.00  0.00    +0.000 OA
ATOM     32  H   UNL     1      -4.642  11.593  14.893  0.00  0.00    +0.000 HD
ENDBRANCH  28  31
ENDBRANCH  24  25
ENDBRANCH  18  24
ENDBRANCH   3  18
TORSDOF 9
ENDMDL
MODEL 6
REMARK VINA RESULT:      -7.5      1.418      1.812
REMARK  Name = 
REMARK  10 active torsions:
REMARK  status: ('A' for Active; 'I' for Inactive)
REMARK    1  A    between atoms: C_1  and  C_2
REMARK    2  A    between atoms: N_4  and  C_5
REMARK    3  A    between atoms: C_5  and  C_6
REMARK    4  A    between atoms: C_5  and  C_13
REMARK    5  A    between atoms: C_6  and  C_7
REMARK    6  A    between atoms: N_15  and  C_16
REMARK    7  A    between atoms: C_16  and  C_17
REMARK    8  A    between atoms: C_16  and  C_25
REMARK    9  A    between atoms: C_17  and  C_18
REMARK   10  A    between atoms: C_21  and  O_22
REMARK                            x       y       z     vdW  Elec       q    Type
REMARK                         _______ _______ _______ _____ _____    ______ ____
ROOT
ATOM      1  C   UNL     1       3.230   5.123  18.624  0.00  0.00    +0.000 C 
ATOM      2  O   UNL     1       2.875   4.607  17.562  0.00  0.00    +0.000 OA
ATOM      3  N   UNL     1       4.558   5.365  18.920  0.00  0.00    +0.000 N 
ATOM      4  H   UNL     1       4.788   5.995  19.677  0.00  0.00    +0.000 HD
ENDROOT
BRANCH   1   5
ATOM      5  C   UNL     1       2.197   5.520  19.718  0.00  0.00    +0.000 C 
BRANCH   5   9
ATOM      6  C   UNL     1       1.321   2.465  21.848  0.00  0.00    +0.000 C 
ATOM      7  C   UNL     1       1.326   3.350  20.630  0.00  0.00    +0.000 C 
ATOM      8  O   UNL     1       0.625   3.112  19.651  0.00  0.00    +0.000 OA
ATOM      9  N   UNL     1       2.146   4.447  20.722  0.00  0.00    +0.000 N 
ATOM     10  H   UNL     1       2.766   4.556  21.520  0.00  0.00    +0.000 HD
ENDBRANCH   5   9
BRANCH   5  11
ATOM     11  C   UNL     1       2.535   6.914  20.308  0.00  0.00    +0.000 C 
BRANCH  11  12
ATOM     12  C   UNL     1       1.801   8.103  19.719  0.00  0.00    +0.000 A 
ATOM     13  C   UNL     1       2.028   8.455  18.378  0.00  0.00    +0.000 A 
ATOM     14  C   UNL     1       1.485   9.625  17.848  0.00  0.00    +0.000 A 
ATOM     15  C   UNL     1       0.677  10.444  18.636  0.00  0.00    +0.000 A 
ATOM     16  C   UNL     1       0.370  10.062  19.935  0.00  0.00    +0.000 A 
ATOM     17  C   UNL     1       0.910   8.891  20.462  0.00  0.00    +0.000 A 
ENDBRANCH  11  12
ENDBRANCH   5  11
ENDBRANCH   1   5
BRANCH   3  18
ATOM     18  C   UNL     1       5.646   4.980  17.992  0.00  0.00    +0.000 C 
BRANCH  18  19
ATOM     19  C   UNL     1       7.026   5.026  18.678  0.00  0.00    +0.000 C 
ATOM     20  N   UNL     1       8.042   4.388  18.024  0.00  0.00    +0.000 N 
ATOM     21  O   UNL     1       7.192   5.422  19.828  0.00  0.00    +0.000 OA
ATOM     22  H   UNL     1       8.014   4.399  17.015  0.00  0.00    +0.000 HD
ATOM     23  H   UNL     1       8.958   4.515  18.438  0.00  0.00    +0.000 HD
ENDBRANCH  18  19
BRANCH  18  24
ATOM     24  C   UNL     1       5.730   5.917  16.768  0.00  0.00    +0.000 C 
BRANCH  24  25
ATOM     25  C   UNL     1       5.977   5.237  15.441  0.00  0.00    +0.000 A 
ATOM     26  C   UNL     1       4.980   4.413  14.894  0.00  0.00    +0.000 A 
ATOM     27  C   UNL     1       5.214   3.694  13.721  0.00  0.00    +0.000 A 
ATOM     28  C   UNL     1       6.440   3.819  13.079  0.00  0.00    +0.000 A 
ATOM     29  C   UNL     1       7.404   4.699  13.552  0.00  0.00    +0.000 A 
ATOM     30  C   UNL     1       7.169   5.416  14.725  0.00  0.00    +0.000 A 
BRANCH  28  31
ATOM     31  O   UNL     1       6.743   3.080  11.974  0.00  0.00    +0.000 OA
ATOM     32  H   UNL     1       6.598   2.143  12.183  0.00  0.00    +0.000 HD
ENDBRANCH  28  31
ENDBRANCH  24  25
ENDBRANCH  18  24
ENDBRANCH   3  18
TORSDOF 9
ENDMDL
MODEL 7
REMARK VINA RESULT:      -7.5      0.997      1.445
REMARK  Name = 
REMARK  10 active torsions:
REMARK  status: ('A' for Active; 'I' for Inactive)
REMARK    1  A    between atoms: C_1  and  C_2
REMARK    2  A    between atoms: N_4  and  C_5
REMARK    3  A    between atoms: C_5  and  C_6
REMARK    4  A    between atoms: C_5  and  C_13
REMARK    5  A    between atoms: C_6  and  C_7
REMARK    6  A    between atoms: N_15  and  C_16
REMARK    7  A    between atoms: C_16  and  C_17
REMARK    8  A    between atoms: C_16  and  C_25
REMARK    9  A    between atoms: C_17  and  C_18
REMARK   10  A    between atoms: C_21  and  O_22
REMARK                            x       y       z     vdW  Elec       q    Type
REMARK                         _______ _______ _______ _____ _____    ______ ____
ROOT
ATOM      1  C   UNL     1       4.756   5.026  19.246  0.00  0.00    +0.000 C 
ATOM      2  O   UNL     1       5.242   4.217  20.039  0.00  0.00    +0.000 OA
ATOM      3  N   UNL     1       5.539   5.838  18.447  0.00  0.00    +0.000 N 
ATOM      4  H   UNL     1       5.118   6.304  17.654  0.00  0.00    +0.000 HD
ENDROOT
BRANCH   1   5
ATOM      5  C   UNL     1       3.216   5.200  19.105  0.00  0.00    +0.000 C 
BRANCH   5   9
ATOM      6  C   UNL     1       1.127   2.021  18.700  0.00  0.00    +0.000 C 
ATOM      7  C   UNL     1       1.804   3.298  18.278  0.00  0.00    +0.000 C 
ATOM      8  O   UNL     1       1.638   3.781  17.162  0.00  0.00    +0.000 OA
ATOM      9  N   UNL     1       2.583   3.881  19.245  0.00  0.00    +0.000 N 
ATOM     10  H   UNL     1       2.751   3.399  20.125  0.00  0.00    +0.000 HD
ENDBRANCH   5   9
BRANCH   5  11
ATOM     11  C   UNL     1       2.692   6.258  20.111  0.00  0.00    +0.000 C 
BRANCH  11  12
ATOM     12  C   UNL     1       2.164   7.555  19.529  0.00  0.00    +0.000 A 
ATOM     13  C   UNL     1       1.427   8.425  20.350  0.00  0.00    +0.000 A 
ATOM     14  C   UNL     1       0.804   9.552  19.814  0.00  0.00    +0.000 A 
ATOM     15  C   UNL     1       0.936   9.847  18.457  0.00  0.00    +0.000 A 
ATOM     16  C   UNL     1       1.736   9.047  17.653  0.00  0.00    +0.000 A 
ATOM     17  C   UNL     1       2.362   7.925  18.191  0.00  0.00    +0.000 A 
ENDBRANCH  11  12
ENDBRANCH   5  11
ENDBRANCH   1   5
BRANCH   3  18
ATOM     18  C   UNL     1       7.017   5.816  18.525  0.00  0.00    +0.000 C 
BRANCH  18  19
ATOM     19  C   UNL     1       7.637   7.134  18.022  0.00  0.00    +0.000 C 
ATOM     20  N   UNL     1       8.559   7.717  18.844  0.00  0.00    +0.000 N 
ATOM     21  O   UNL     1       7.207   7.752  17.051  0.00  0.00    +0.000 OA
ATOM     22  H   UNL     1       9.142   7.097  19.388  0.00  0.00    +0.000 HD
ATOM     23  H   UNL     1       9.028   8.524  18.452  0.00  0.00    +0.000 HD
ENDBRANCH  18  19
BRANCH  18  24
ATOM     24  C   UNL     1       7.631   4.685  17.672  0.00  0.00    +0.000 C 
BRANCH  24  25
ATOM     25  C   UNL     1       6.942   4.413  16.354  0.00  0.00    +0.000 A 
ATOM     26  C   UNL     1       7.502   4.915  15.169  0.00  0.00    +0.000 A 
ATOM     27  C   UNL     1       6.840   4.767  13.949  0.00  0.00    +0.000 A 
ATOM     28  C   UNL     1       5.626   4.090  13.911  0.00  0.00    +0.000 A 
ATOM     29  C   UNL     1       5.102   3.506  15.055  0.00  0.00    +0.000 A 
ATOM     30  C   UNL     1       5.764   3.656  16.273  0.00  0.00    +0.000 A 
BRANCH  28  31
ATOM     31  O   UNL     1       4.907   3.986  12.758  0.00  0.00    +0.000 OA
ATOM     32  H   UNL     1       5.284   4.597  12.104  0.00  0.00    +0.000 HD
ENDBRANCH  28  31
ENDBRANCH  24  25
ENDBRANCH  18  24
ENDBRANCH   3  18
TORSDOF 9
ENDMDL
MODEL 8
REMARK VINA RESULT:      -7.5      3.751      8.121
REMARK  Name = 
REMARK  10 active torsions:
REMARK  status: ('A' for Active; 'I' for Inactive)
REMARK    1  A    between atoms: C_1  and  C_2
REMARK    2  A    between atoms: N_4  and  C_5
REMARK    3  A    between atoms: C_5  and  C_6
REMARK    4  A    between atoms: C_5  and  C_13
REMARK    5  A    between atoms: C_6  and  C_7
REMARK    6  A    between atoms: N_15  and  C_16
REMARK    7  A    between atoms: C_16  and  C_17
REMARK    8  A    between atoms: C_16  and  C_25
REMARK    9  A    between atoms: C_17  and  C_18
REMARK   10  A    between atoms: C_21  and  O_22
REMARK                            x       y       z     vdW  Elec       q    Type
REMARK                         _______ _______ _______ _____ _____    ______ ____
ROOT
ATOM      1  C   UNL     1       2.282   7.334  19.723  0.00  0.00    +0.000 C 
ATOM      2  O   UNL     1       2.384   8.150  18.805  0.00  0.00    +0.000 OA
ATOM      3  N   UNL     1       1.646   7.636  20.912  0.00  0.00    +0.000 N 
ATOM      4  H   UNL     1       1.375   6.883  21.532  0.00  0.00    +0.000 HD
ENDROOT
BRANCH   1   5
ATOM      5  C   UNL     1       2.887   5.905  19.609  0.00  0.00    +0.000 C 
BRANCH   5   9
ATOM      6  C   UNL     1       1.236   2.851  21.217  0.00  0.00    +0.000 C 
ATOM      7  C   UNL     1       2.351   3.675  20.628  0.00  0.00    +0.000 C 
ATOM      8  O   UNL     1       3.464   3.204  20.417  0.00  0.00    +0.000 OA
ATOM      9  N   UNL     1       2.007   4.969  20.324  0.00  0.00    +0.000 N 
ATOM     10  H   UNL     1       1.097   5.332  20.592  0.00  0.00    +0.000 HD
ENDBRANCH   5   9
BRANCH   5  11
ATOM     11  C   UNL     1       3.126   5.530  18.123  0.00  0.00    +0.000 C 
BRANCH  11  12
ATOM     12  C   UNL     1       4.563   5.300  17.697  0.00  0.00    +0.000 A 
ATOM     13  C   UNL     1       4.844   5.025  16.348  0.00  0.00    +0.000 A 
ATOM     14  C   UNL     1       6.131   4.666  15.948  0.00  0.00    +0.000 A 
ATOM     15  C   UNL     1       7.165   4.610  16.881  0.00  0.00    +0.000 A 
ATOM     16  C   UNL     1       6.923   4.968  18.199  0.00  0.00    +0.000 A 
ATOM     17  C   UNL     1       5.638   5.331  18.597  0.00  0.00    +0.000 A 
ENDBRANCH  11  12
ENDBRANCH   5  11
ENDBRANCH   1   5
BRANCH   3  18
ATOM     18  C   UNL     1       1.079   8.978  21.174  0.00  0.00    +0.000 C 
BRANCH  18  19
ATOM     19  C   UNL     1       0.679   9.152  22.652  0.00  0.00    +0.000 C 
ATOM     20  N   UNL     1      -0.660   9.114  22.921  0.00  0.00    +0.000 N 
ATOM     21  O   UNL     1       1.468   9.506  23.525  0.00  0.00    +0.000 OA
ATOM     22  H   UNL     1      -1.224   8.504  22.347  0.00  0.00    +0.000 HD
ATOM     23  H   UNL     1      -0.896   9.128  23.905  0.00  0.00    +0.000 HD
ENDBRANCH  18  19
BRANCH  18  24
ATOM     24  C   UNL     1      -0.189   9.251  20.338  0.00  0.00    +0.000 C 
BRANCH  24  25
ATOM     25  C   UNL     1      -0.278  10.627  19.716  0.00  0.00    +0.000 A 
ATOM     26  C   UNL     1       0.822  11.494  19.806  0.00  0.00    +0.000 A 
ATOM     27  C   UNL     1       0.738  12.804  19.329  0.00  0.00    +0.000 A 
ATOM     28  C   UNL     1      -0.441  13.238  18.738  0.00  0.00    +0.000 A 
ATOM     29  C   UNL     1      -1.508  12.370  18.557  0.00  0.00    +0.000 A 
ATOM     30  C   UNL     1      -1.423  11.062  19.034  0.00  0.00    +0.000 A 
BRANCH  28  31
ATOM     31  O   UNL     1      -0.597  14.529  18.327  0.00  0.00    +0.000 OA
ATOM     32  H   UNL     1      -1.394  14.891  18.749  0.00  0.00    +0.000 HD
ENDBRANCH  28  31
ENDBRANCH  24  25
ENDBRANCH  18  24
ENDBRANCH   3  18
TORSDOF 9
ENDMDL
MODEL 9
REMARK VINA RESULT:      -7.5      1.857      3.866
REMARK  Name = 
REMARK  10 active torsions:
REMARK  status: ('A' for Active; 'I' for Inactive)
REMARK    1  A    between atoms: C_1  and  C_2
REMARK    2  A    between atoms: N_4  and  C_5
REMARK    3  A    between atoms: C_5  and  C_6
REMARK    4  A    between atoms: C_5  and  C_13
REMARK    5  A    between atoms: C_6  and  C_7
REMARK    6  A    between atoms: N_15  and  C_16
REMARK    7  A    between atoms: C_16  and  C_17
REMARK    8  A    between atoms: C_16  and  C_25
REMARK    9  A    between atoms: C_17  and  C_18
REMARK   10  A    between atoms: C_21  and  O_22
REMARK                            x       y       z     vdW  Elec       q    Type
REMARK                         _______ _______ _______ _____ _____    ______ ____
ROOT
ATOM      1  C   UNL     1       4.578   6.652  17.875  0.00  0.00    +0.000 C 
ATOM      2  O   UNL     1       4.979   7.504  17.080  0.00  0.00    +0.000 OA
ATOM      3  N   UNL     1       5.377   5.612  18.308  0.00  0.00    +0.000 N 
ATOM      4  H   UNL     1       5.101   5.084  19.126  0.00  0.00    +0.000 HD
ENDROOT
BRANCH   1   5
ATOM      5  C   UNL     1       3.125   6.682  18.432  0.00  0.00    +0.000 C 
BRANCH   5   9
ATOM      6  C   UNL     1       0.997   9.839  18.050  0.00  0.00    +0.000 C 
ATOM      7  C   UNL     1       1.690   8.713  18.771  0.00  0.00    +0.000 C 
ATOM      8  O   UNL     1       1.531   8.517  19.972  0.00  0.00    +0.000 OA
ATOM      9  N   UNL     1       2.476   7.919  17.974  0.00  0.00    +0.000 N 
ATOM     10  H   UNL     1       2.637   8.172  17.002  0.00  0.00    +0.000 HD
ENDBRANCH   5   9
BRANCH   5  11
ATOM     11  C   UNL     1       2.362   5.391  18.039  0.00  0.00    +0.000 C 
BRANCH  11  12
ATOM     12  C   UNL     1       2.090   4.391  19.146  0.00  0.00    +0.000 A 
ATOM     13  C   UNL     1       1.451   3.179  18.835  0.00  0.00    +0.000 A 
ATOM     14  C   UNL     1       1.054   2.304  19.846  0.00  0.00    +0.000 A 
ATOM     15  C   UNL     1       1.320   2.608  21.181  0.00  0.00    +0.000 A 
ATOM     16  C   UNL     1       2.031   3.757  21.497  0.00  0.00    +0.000 A 
ATOM     17  C   UNL     1       2.431   4.628  20.486  0.00  0.00    +0.000 A 
ENDBRANCH  11  12
ENDBRANCH   5  11
ENDBRANCH   1   5
BRANCH   3  18
ATOM     18  C   UNL     1       6.760   5.431  17.810  0.00  0.00    +0.000 C 
BRANCH  18  19
ATOM     19  C   UNL     1       7.795   6.093  18.740  0.00  0.00    +0.000 C 
ATOM     20  N   UNL     1       8.068   5.429  19.903  0.00  0.00    +0.000 N 
ATOM     21  O   UNL     1       8.212   7.236  18.576  0.00  0.00    +0.000 OA
ATOM     22  H   UNL     1       8.037   4.420  19.871  0.00  0.00    +0.000 HD
ATOM     23  H   UNL     1       8.823   5.826  20.450  0.00  0.00    +0.000 HD
ENDBRANCH  18  19
BRANCH  18  24
ATOM     24  C   UNL     1       6.963   6.051  16.410  0.00  0.00    +0.000 C 
BRANCH  24  25
ATOM     25  C   UNL     1       6.651   5.143  15.242  0.00  0.00    +0.000 A 
ATOM     26  C   UNL     1       7.481   5.171  14.110  0.00  0.00    +0.000 A 
ATOM     27  C   UNL     1       7.166   4.419  12.976  0.00  0.00    +0.000 A 
ATOM     28  C   UNL     1       6.031   3.618  12.985  0.00  0.00    +0.000 A 
ATOM     29  C   UNL     1       5.249   3.506  14.126  0.00  0.00    +0.000 A 
ATOM     30  C   UNL     1       5.564   4.258  15.258  0.00  0.00    +0.000 A 
BRANCH  28  31
ATOM     31  O   UNL     1       5.641   2.926  11.878  0.00  0.00    +0.000 OA
ATOM     32  H   UNL     1       4.960   3.444  11.417  0.00  0.00    +0.000 HD
ENDBRANCH  28  31
ENDBRANCH  24  25
ENDBRANCH  18  24
ENDBRANCH   3  18
TORSDOF 9
ENDMDL
