MODEL 1
REMARK VINA RESULT:      -7.2      0.000      0.000
REMARK  Name = 
REMARK  10 active torsions:
REMARK  status: ('A' for Active; 'I' for Inactive)
REMARK    1  A    between atoms: C_1  and  C_2
REMARK    2  A    between atoms: C_2  and  N_3
REMARK    3  A    between atoms: N_3  and  C_4
REMARK    4  A    between atoms: N_3  and  S_6
REMARK    5  A    between atoms: C_4  and  C_5
REMARK    6  A    between atoms: S_6  and  C_9
REMARK    7  A    between atoms: C_12  and  N_13
REMARK    8  A    between atoms: N_13  and  S_14
REMARK    9  A    between atoms: S_14  and  C_17
REMARK   10  A    between atoms: C_17  and  C_18
REMARK                            x       y       z     vdW  Elec       q    Type
REMARK                         _______ _______ _______ _____ _____    ______ ____
ROOT
ATOM      1  C   UNL     1       2.294   7.062  19.298  0.00  0.00    +0.000 A 
ATOM      2  C   UNL     1       1.760   7.875  20.304  0.00  0.00    +0.000 A 
ATOM      3  C   UNL     1       1.372   9.188  20.001  0.00  0.00    +0.000 A 
ATOM      4  C   UNL     1       1.524   9.678  18.701  0.00  0.00    +0.000 A 
ATOM      5  C   UNL     1       2.065   8.866  17.704  0.00  0.00    +0.000 A 
ATOM      6  C   UNL     1       2.453   7.557  17.999  0.00  0.00    +0.000 A 
ENDROOT
BRANCH   1   7
ATOM      7  S   UNL     1       2.874   5.420  19.686  0.00  0.00    +0.000 S 
ATOM      8  O   UNL     1       2.041   4.920  20.759  0.00  0.00    +0.000 OA
ATOM      9  O   UNL     1       4.313   5.486  19.827  0.00  0.00    +0.000 OA
BRANCH   7  10
ATOM     10  N   UNL     1       2.542   4.503  18.268  0.00  0.00    +0.000 NA
BRANCH  10  12
ATOM     11  C   UNL     1       4.462   4.304  16.650  0.00  0.00    +0.000 C 
ATOM     12  C   UNL     1       3.690   3.670  17.798  0.00  0.00    +0.000 C 
ENDBRANCH  10  12
BRANCH  10  13
ATOM     13  C   UNL     1       1.220   3.797  18.308  0.00  0.00    +0.000 C 
ATOM     14  C   UNL     1       1.320   2.320  18.654  0.00  0.00    +0.000 C 
ENDBRANCH  10  13
ENDBRANCH   7  10
ENDBRANCH   1   7
BRANCH   4  15
ATOM     15  N   UNL     1       1.156  11.011  18.349  0.00  0.00    +0.000 N 
ATOM     16  H   UNL     1       1.115  11.179  17.340  0.00  0.00    +0.000 HD
BRANCH  15  17
ATOM     17  S   UNL     1      -0.271  11.650  19.019  0.00  0.00    +0.000 S 
ATOM     18  O   UNL     1       0.074  11.903  20.403  0.00  0.00    +0.000 OA
ATOM     19  O   UNL     1      -0.714  12.724  18.156  0.00  0.00    +0.000 OA
BRANCH  17  20
ATOM     20  C   UNL     1      -1.419  10.255  18.938  0.00  0.00    +0.000 C 
BRANCH  20  21
ATOM     21  C   UNL     1      -2.301  10.436  17.728  0.00  0.00    +0.000 A 
ATOM     22  C   UNL     1      -3.496  11.165  17.823  0.00  0.00    +0.000 A 
ATOM     23  C   UNL     1      -4.354  11.266  16.727  0.00  0.00    +0.000 A 
ATOM     24  C   UNL     1      -4.027  10.647  15.523  0.00  0.00    +0.000 A 
ATOM     25  C   UNL     1      -2.832   9.938  15.409  0.00  0.00    +0.000 A 
ATOM     26  C   UNL     1      -1.972   9.835  16.504  0.00  0.00    +0.000 A 
ENDBRANCH  20  21
ENDBRANCH  17  20
ENDBRANCH  15  17
ENDBRANCH   4  15
TORSDOF 8
ENDMDL
MODEL 2
REMARK VINA RESULT:      -7.0      4.525      6.724
REMARK  Name = 
REMARK  10 active torsions:
REMARK  status: ('A' for Active; 'I' for Inactive)
REMARK    1  A    between atoms: C_1  and  C_2
REMARK    2  A    between atoms: C_2  and  N_3
REMARK    3  A    between atoms: N_3  and  C_4
REMARK    4  A    between atoms: N_3  and  S_6
REMARK    5  A    between atoms: C_4  and  C_5
REMARK    6  A    between atoms: S_6  and  C_9
REMARK    7  A    between atoms: C_12  and  N_13
REMARK    8  A    between atoms: N_13  and  S_14
REMARK    9  A    between atoms: S_14  and  C_17
REMARK   10  A    between atoms: C_17  and  C_18
REMARK                            x       y       z     vdW  Elec       q    Type
REMARK                         _______ _______ _______ _____ _____    ______ ____
ROOT
ATOM      1  C   UNL     1       5.569   4.029  17.393  0.00  0.00    +0.000 A 
ATOM      2  C   UNL     1       5.611   3.872  18.783  0.00  0.00    +0.000 A 
ATOM      3  C   UNL     1       4.468   3.429  19.465  0.00  0.00    +0.000 A 
ATOM      4  C   UNL     1       3.296   3.152  18.756  0.00  0.00    +0.000 A 
ATOM      5  C   UNL     1       3.258   3.318  17.372  0.00  0.00    +0.000 A 
ATOM      6  C   UNL     1       4.392   3.758  16.686  0.00  0.00    +0.000 A 
ENDROOT
BRANCH   1   7
ATOM      7  S   UNL     1       6.985   4.674  16.521  0.00  0.00    +0.000 S 
ATOM      8  O   UNL     1       6.791   4.374  15.118  0.00  0.00    +0.000 OA
ATOM      9  O   UNL     1       8.171   4.230  17.222  0.00  0.00    +0.000 OA
BRANCH   7  10
ATOM     10  N   UNL     1       6.877   6.379  16.731  0.00  0.00    +0.000 NA
BRANCH  10  12
ATOM     11  C   UNL     1       4.850   7.063  15.402  0.00  0.00    +0.000 C 
ATOM     12  C   UNL     1       5.476   6.900  16.779  0.00  0.00    +0.000 C 
ENDBRANCH  10  12
BRANCH  10  13
ATOM     13  C   UNL     1       7.787   6.910  17.797  0.00  0.00    +0.000 C 
ATOM     14  C   UNL     1       7.913   8.425  17.804  0.00  0.00    +0.000 C 
ENDBRANCH  10  13
ENDBRANCH   7  10
ENDBRANCH   1   7
BRANCH   4  15
ATOM     15  N   UNL     1       2.105   2.712  19.409  0.00  0.00    +0.000 N 
ATOM     16  H   UNL     1       2.184   1.786  19.837  0.00  0.00    +0.000 HD
BRANCH  15  17
ATOM     17  S   UNL     1       1.402   3.740  20.566  0.00  0.00    +0.000 S 
ATOM     18  O   UNL     1       0.283   4.340  19.870  0.00  0.00    +0.000 OA
ATOM     19  O   UNL     1       1.198   2.963  21.771  0.00  0.00    +0.000 OA
BRANCH  17  20
ATOM     20  C   UNL     1       2.680   4.992  20.828  0.00  0.00    +0.000 C 
BRANCH  20  21
ATOM     21  C   UNL     1       2.224   6.279  20.187  0.00  0.00    +0.000 A 
ATOM     22  C   UNL     1       2.535   6.554  18.847  0.00  0.00    +0.000 A 
ATOM     23  C   UNL     1       2.185   7.777  18.273  0.00  0.00    +0.000 A 
ATOM     24  C   UNL     1       1.514   8.736  19.028  0.00  0.00    +0.000 A 
ATOM     25  C   UNL     1       1.179   8.467  20.355  0.00  0.00    +0.000 A 
ATOM     26  C   UNL     1       1.529   7.244  20.931  0.00  0.00    +0.000 A 
ENDBRANCH  20  21
ENDBRANCH  17  20
ENDBRANCH  15  17
ENDBRANCH   4  15
TORSDOF 8
ENDMDL
MODEL 3
REMARK VINA RESULT:      -6.9      3.123      8.138
REMARK  Name = 
REMARK  10 active torsions:
REMARK  status: ('A' for Active; 'I' for Inactive)
REMARK    1  A    between atoms: C_1  and  C_2
REMARK    2  A    between atoms: C_2  and  N_3
REMARK    3  A    between atoms: N_3  and  C_4
REMARK    4  A    between atoms: N_3  and  S_6
REMARK    5  A    between atoms: C_4  and  C_5
REMARK    6  A    between atoms: S_6  and  C_9
REMARK    7  A    between atoms: C_12  and  N_13
REMARK    8  A    between atoms: N_13  and  S_14
REMARK    9  A    between atoms: S_14  and  C_17
REMARK   10  A    between atoms: C_17  and  C_18
REMARK                            x       y       z     vdW  Elec       q    Type
REMARK                         _______ _______ _______ _____ _____    ______ ____
ROOT
ATOM      1  C   UNL     1       1.147   9.251  19.393  0.00  0.00    +0.000 A 
ATOM      2  C   UNL     1       1.203   8.402  20.505  0.00  0.00    +0.000 A 
ATOM      3  C   UNL     1       1.995   7.246  20.454  0.00  0.00    +0.000 A 
ATOM      4  C   UNL     1       2.719   6.946  19.296  0.00  0.00    +0.000 A 
ATOM      5  C   UNL     1       2.652   7.791  18.189  0.00  0.00    +0.000 A 
ATOM      6  C   UNL     1       1.865   8.945  18.233  0.00  0.00    +0.000 A 
ENDROOT
BRANCH   1   7
ATOM      7  S   UNL     1       0.076  10.678  19.409  0.00  0.00    +0.000 S 
ATOM      8  O   UNL     1      -1.281  10.190  19.284  0.00  0.00    +0.000 OA
ATOM      9  O   UNL     1       0.613  11.639  18.469  0.00  0.00    +0.000 OA
BRANCH   7  10
ATOM     10  N   UNL     1       0.271  11.343  20.985  0.00  0.00    +0.000 NA
BRANCH  10  12
ATOM     11  C   UNL     1       0.095  13.788  21.563  0.00  0.00    +0.000 C 
ATOM     12  C   UNL     1       0.962  12.668  21.006  0.00  0.00    +0.000 C 
ENDBRANCH  10  12
BRANCH  10  13
ATOM     13  C   UNL     1      -0.966  11.258  21.827  0.00  0.00    +0.000 C 
ATOM     14  C   UNL     1      -0.825  10.357  23.043  0.00  0.00    +0.000 C 
ENDBRANCH  10  13
ENDBRANCH   7  10
ENDBRANCH   1   7
BRANCH   4  15
ATOM     15  N   UNL     1       3.528   5.775  19.194  0.00  0.00    +0.000 N 
ATOM     16  H   UNL     1       3.790   5.370  20.097  0.00  0.00    +0.000 HD
BRANCH  15  17
ATOM     17  S   UNL     1       2.967   4.499  18.219  0.00  0.00    +0.000 S 
ATOM     18  O   UNL     1       3.072   3.333  19.071  0.00  0.00    +0.000 OA
ATOM     19  O   UNL     1       1.692   4.903  17.666  0.00  0.00    +0.000 OA
BRANCH  17  20
ATOM     20  C   UNL     1       4.220   4.400  16.919  0.00  0.00    +0.000 C 
BRANCH  20  21
ATOM     21  C   UNL     1       5.421   5.203  17.353  0.00  0.00    +0.000 A 
ATOM     22  C   UNL     1       5.604   6.514  16.887  0.00  0.00    +0.000 A 
ATOM     23  C   UNL     1       6.753   7.231  17.221  0.00  0.00    +0.000 A 
ATOM     24  C   UNL     1       7.729   6.652  18.029  0.00  0.00    +0.000 A 
ATOM     25  C   UNL     1       7.549   5.358  18.516  0.00  0.00    +0.000 A 
ATOM     26  C   UNL     1       6.400   4.638  18.183  0.00  0.00    +0.000 A 
ENDBRANCH  20  21
ENDBRANCH  17  20
ENDBRANCH  15  17
ENDBRANCH   4  15
TORSDOF 8
ENDMDL
MODEL 4
REMARK VINA RESULT:      -6.9      1.127      1.435
REMARK  Name = 
REMARK  10 active torsions:
REMARK  status: ('A' for Active; 'I' for Inactive)
REMARK    1  A    between atoms: C_1  and  C_2
REMARK    2  A    between atoms: C_2  and  N_3
REMARK    3  A    between atoms: N_3  and  C_4
REMARK    4  A    between atoms: N_3  and  S_6
REMARK    5  A    between atoms: C_4  and  C_5
REMARK    6  A    between atoms: S_6  and  C_9
REMARK    7  A    between atoms: C_12  and  N_13
REMARK    8  A    between atoms: N_13  and  S_14
REMARK    9  A    between atoms: S_14  and  C_17
REMARK   10  A    between atoms: C_17  and  C_18
REMARK                            x       y       z     vdW  Elec       q    Type
REMARK                         _______ _______ _______ _____ _____    ______ ____
ROOT
ATOM      1  C   UNL     1       2.468   7.254  18.903  0.00  0.00    +0.000 A 
ATOM      2  C   UNL     1       1.917   7.624  20.135  0.00  0.00    +0.000 A 
ATOM      3  C   UNL     1       1.365   8.904  20.291  0.00  0.00    +0.000 A 
ATOM      4  C   UNL     1       1.372   9.802  19.220  0.00  0.00    +0.000 A 
ATOM      5  C   UNL     1       1.930   9.431  17.997  0.00  0.00    +0.000 A 
ATOM      6  C   UNL     1       2.481   8.157  17.834  0.00  0.00    +0.000 A 
ENDROOT
BRANCH   1   7
ATOM      7  S   UNL     1       3.252   5.663  18.713  0.00  0.00    +0.000 S 
ATOM      8  O   UNL     1       4.354   5.620  19.651  0.00  0.00    +0.000 OA
ATOM      9  O   UNL     1       3.468   5.447  17.298  0.00  0.00    +0.000 OA
BRANCH   7  10
ATOM     10  N   UNL     1       2.058   4.533  19.225  0.00  0.00    +0.000 NA
BRANCH  10  12
ATOM     11  C   UNL     1       2.284   2.460  17.813  0.00  0.00    +0.000 C 
ATOM     12  C   UNL     1       1.479   3.715  18.116  0.00  0.00    +0.000 C 
ENDBRANCH  10  12
BRANCH  10  13
ATOM     13  C   UNL     1       2.452   3.759  20.446  0.00  0.00    +0.000 C 
ATOM     14  C   UNL     1       1.277   3.164  21.205  0.00  0.00    +0.000 C 
ENDBRANCH  10  13
ENDBRANCH   7  10
ENDBRANCH   1   7
BRANCH   4  15
ATOM     15  N   UNL     1       0.834  11.119  19.336  0.00  0.00    +0.000 N 
ATOM     16  H   UNL     1       1.072  11.735  18.555  0.00  0.00    +0.000 HD
BRANCH  15  17
ATOM     17  S   UNL     1      -0.837  11.279  19.608  0.00  0.00    +0.000 S 
ATOM     18  O   UNL     1      -0.970  11.181  21.046  0.00  0.00    +0.000 OA
ATOM     19  O   UNL     1      -1.282  12.460  18.899  0.00  0.00    +0.000 OA
BRANCH  17  20
ATOM     20  C   UNL     1      -1.518   9.787  18.845  0.00  0.00    +0.000 C 
BRANCH  20  21
ATOM     21  C   UNL     1      -2.391  10.201  17.687  0.00  0.00    +0.000 A 
ATOM     22  C   UNL     1      -3.643  10.790  17.917  0.00  0.00    +0.000 A 
ATOM     23  C   UNL     1      -4.488  11.101  16.851  0.00  0.00    +0.000 A 
ATOM     24  C   UNL     1      -4.090  10.833  15.543  0.00  0.00    +0.000 A 
ATOM     25  C   UNL     1      -2.840  10.267  15.300  0.00  0.00    +0.000 A 
ATOM     26  C   UNL     1      -1.993   9.955  16.365  0.00  0.00    +0.000 A 
ENDBRANCH  20  21
ENDBRANCH  17  20
ENDBRANCH  15  17
ENDBRANCH   4  15
TORSDOF 8
ENDMDL
MODEL 5
REMARK VINA RESULT:      -6.9      2.055      8.023
REMARK  Name = 
REMARK  10 active torsions:
REMARK  status: ('A' for Active; 'I' for Inactive)
REMARK    1  A    between atoms: C_1  and  C_2
REMARK    2  A    between atoms: C_2  and  N_3
REMARK    3  A    between atoms: N_3  and  C_4
REMARK    4  A    between atoms: N_3  and  S_6
REMARK    5  A    between atoms: C_4  and  C_5
REMARK    6  A    between atoms: S_6  and  C_9
REMARK    7  A    between atoms: C_12  and  N_13
REMARK    8  A    between atoms: N_13  and  S_14
REMARK    9  A    between atoms: S_14  and  C_17
REMARK   10  A    between atoms: C_17  and  C_18
REMARK                            x       y       z     vdW  Elec       q    Type
REMARK                         _______ _______ _______ _____ _____    ______ ____
ROOT
ATOM      1  C   UNL     1       1.226   8.909  19.954  0.00  0.00    +0.000 A 
ATOM      2  C   UNL     1       1.906   8.792  18.737  0.00  0.00    +0.000 A 
ATOM      3  C   UNL     1       2.628   7.623  18.457  0.00  0.00    +0.000 A 
ATOM      4  C   UNL     1       2.667   6.585  19.393  0.00  0.00    +0.000 A 
ATOM      5  C   UNL     1       1.994   6.712  20.608  0.00  0.00    +0.000 A 
ATOM      6  C   UNL     1       1.273   7.874  20.894  0.00  0.00    +0.000 A 
ENDROOT
BRANCH   1   7
ATOM      7  S   UNL     1       0.376  10.424  20.364  0.00  0.00    +0.000 S 
ATOM      8  O   UNL     1       1.318  11.257  21.079  0.00  0.00    +0.000 OA
ATOM      9  O   UNL     1      -0.899  10.066  20.950  0.00  0.00    +0.000 OA
BRANCH   7  10
ATOM     10  N   UNL     1       0.049  11.157  18.841  0.00  0.00    +0.000 NA
BRANCH  10  12
ATOM     11  C   UNL     1      -1.609   9.977  17.357  0.00  0.00    +0.000 C 
ATOM     12  C   UNL     1      -1.377  11.054  18.408  0.00  0.00    +0.000 C 
ENDBRANCH  10  12
BRANCH  10  13
ATOM     13  C   UNL     1       0.662  12.516  18.688  0.00  0.00    +0.000 C 
ATOM     14  C   UNL     1      -0.346  13.654  18.705  0.00  0.00    +0.000 C 
ENDBRANCH  10  13
ENDBRANCH   7  10
ENDBRANCH   1   7
BRANCH   4  15
ATOM     15  N   UNL     1       3.400   5.384  19.157  0.00  0.00    +0.000 N 
ATOM     16  H   UNL     1       3.748   4.935  20.009  0.00  0.00    +0.000 HD
BRANCH  15  17
ATOM     17  S   UNL     1       2.664   4.171  18.220  0.00  0.00    +0.000 S 
ATOM     18  O   UNL     1       2.582   3.036  19.114  0.00  0.00    +0.000 OA
ATOM     19  O   UNL     1       1.470   4.740  17.630  0.00  0.00    +0.000 OA
BRANCH  17  20
ATOM     20  C   UNL     1       3.902   3.834  16.945  0.00  0.00    +0.000 C 
BRANCH  20  21
ATOM     21  C   UNL     1       5.070   4.765  17.159  0.00  0.00    +0.000 A 
ATOM     22  C   UNL     1       6.098   4.421  18.049  0.00  0.00    +0.000 A 
ATOM     23  C   UNL     1       7.139   5.313  18.310  0.00  0.00    +0.000 A 
ATOM     24  C   UNL     1       7.168   6.556  17.682  0.00  0.00    +0.000 A 
ATOM     25  C   UNL     1       6.163   6.902  16.779  0.00  0.00    +0.000 A 
ATOM     26  C   UNL     1       5.121   6.010  16.516  0.00  0.00    +0.000 A 
ENDBRANCH  20  21
ENDBRANCH  17  20
ENDBRANCH  15  17
ENDBRANCH   4  15
TORSDOF 8
ENDMDL
MODEL 6
REMARK VINA RESULT:      -6.8      2.944      8.087
REMARK  Name = 
REMARK  10 active torsions:
REMARK  status: ('A' for Active; 'I' for Inactive)
REMARK    1  A    between atoms: C_1  and  C_2
REMARK    2  A    between atoms: C_2  and  N_3
REMARK    3  A    between atoms: N_3  and  C_4
REMARK    4  A    between atoms: N_3  and  S_6
REMARK    5  A    between atoms: C_4  and  C_5
REMARK    6  A    between atoms: S_6  and  C_9
REMARK    7  A    between atoms: C_12  and  N_13
REMARK    8  A    between atoms: N_13  and  S_14
REMARK    9  A    between atoms: S_14  and  C_17
REMARK   10  A    between atoms: C_17  and  C_18
REMARK                            x       y       z     vdW  Elec       q    Type
REMARK                         _______ _______ _______ _____ _____    ______ ____
ROOT
ATOM      1  C   UNL     1       1.057   9.487  19.332  0.00  0.00    +0.000 A 
ATOM      2  C   UNL     1       1.832   9.025  18.262  0.00  0.00    +0.000 A 
ATOM      3  C   UNL     1       2.546   7.825  18.391  0.00  0.00    +0.000 A 
ATOM      4  C   UNL     1       2.485   7.101  19.585  0.00  0.00    +0.000 A 
ATOM      5  C   UNL     1       1.718   7.571  20.651  0.00  0.00    +0.000 A 
ATOM      6  C   UNL     1       1.003   8.765  20.530  0.00  0.00    +0.000 A 
ENDROOT
BRANCH   1   7
ATOM      7  S   UNL     1       0.213  11.054  19.217  0.00  0.00    +0.000 S 
ATOM      8  O   UNL     1      -1.149  10.773  18.815  0.00  0.00    +0.000 OA
ATOM      9  O   UNL     1       1.050  11.947  18.443  0.00  0.00    +0.000 OA
BRANCH   7  10
ATOM     10  N   UNL     1       0.190  11.649  20.833  0.00  0.00    +0.000 NA
BRANCH  10  12
ATOM     11  C   UNL     1      -0.065  14.152  20.941  0.00  0.00    +0.000 C 
ATOM     12  C   UNL     1       0.881  12.962  21.008  0.00  0.00    +0.000 C 
ENDBRANCH  10  12
BRANCH  10  13
ATOM     13  C   UNL     1      -1.153  11.545  21.489  0.00  0.00    +0.000 C 
ATOM     14  C   UNL     1      -1.099  11.089  22.938  0.00  0.00    +0.000 C 
ENDBRANCH  10  13
ENDBRANCH   7  10
ENDBRANCH   1   7
BRANCH   4  15
ATOM     15  N   UNL     1       3.205   5.883  19.767  0.00  0.00    +0.000 N 
ATOM     16  H   UNL     1       3.444   5.682  20.741  0.00  0.00    +0.000 HD
BRANCH  15  17
ATOM     17  S   UNL     1       2.546   4.459  19.111  0.00  0.00    +0.000 S 
ATOM     18  O   UNL     1       2.061   3.732  20.265  0.00  0.00    +0.000 OA
ATOM     19  O   UNL     1       1.645   4.847  18.046  0.00  0.00    +0.000 OA
BRANCH  17  20
ATOM     20  C   UNL     1       3.995   3.611  18.439  0.00  0.00    +0.000 C 
BRANCH  20  21
ATOM     21  C   UNL     1       4.976   4.652  17.962  0.00  0.00    +0.000 A 
ATOM     22  C   UNL     1       6.110   4.963  18.729  0.00  0.00    +0.000 A 
ATOM     23  C   UNL     1       6.977   5.981  18.331  0.00  0.00    +0.000 A 
ATOM     24  C   UNL     1       6.727   6.695  17.161  0.00  0.00    +0.000 A 
ATOM     25  C   UNL     1       5.617   6.381  16.380  0.00  0.00    +0.000 A 
ATOM     26  C   UNL     1       4.747   5.363  16.775  0.00  0.00    +0.000 A 
ENDBRANCH  20  21
ENDBRANCH  17  20
ENDBRANCH  15  17
ENDBRANCH   4  15
TORSDOF 8
ENDMDL
MODEL 7
REMARK VINA RESULT:      -6.8      0.423      1.428
REMARK  Name = 
REMARK  10 active torsions:
REMARK  status: ('A' for Active; 'I' for Inactive)
REMARK    1  A    between atoms: C_1  and  C_2
REMARK    2  A    between atoms: C_2  and  N_3
REMARK    3  A    between atoms: N_3  and  C_4
REMARK    4  A    between atoms: N_3  and  S_6
REMARK    5  A    between atoms: C_4  and  C_5
REMARK    6  A    between atoms: S_6  and  C_9
REMARK    7  A    between atoms: C_12  and  N_13
REMARK    8  A    between atoms: N_13  and  S_14
REMARK    9  A    between atoms: S_14  and  C_17
REMARK   10  A    between atoms: C_17  and  C_18
REMARK                            x       y       z     vdW  Elec       q    Type
REMARK                         _______ _______ _______ _____ _____    ______ ____
ROOT
ATOM      1  C   UNL     1       2.501   6.962  19.402  0.00  0.00    +0.000 A 
ATOM      2  C   UNL     1       2.774   7.352  18.086  0.00  0.00    +0.000 A 
ATOM      3  C   UNL     1       2.335   8.603  17.630  0.00  0.00    +0.000 A 
ATOM      4  C   UNL     1       1.625   9.449  18.487  0.00  0.00    +0.000 A 
ATOM      5  C   UNL     1       1.348   9.050  19.795  0.00  0.00    +0.000 A 
ATOM      6  C   UNL     1       1.784   7.806  20.256  0.00  0.00    +0.000 A 
ENDROOT
BRANCH   1   7
ATOM      7  S   UNL     1       2.976   5.339  19.972  0.00  0.00    +0.000 S 
ATOM      8  O   UNL     1       2.238   5.086  21.191  0.00  0.00    +0.000 OA
ATOM      9  O   UNL     1       4.422   5.272  19.947  0.00  0.00    +0.000 OA
BRANCH   7  10
ATOM     10  N   UNL     1       2.395   4.270  18.754  0.00  0.00    +0.000 NA
BRANCH  10  12
ATOM     11  C   UNL     1       4.049   3.927  16.886  0.00  0.00    +0.000 C 
ATOM     12  C   UNL     1       3.446   3.381  18.172  0.00  0.00    +0.000 C 
ENDBRANCH  10  12
BRANCH  10  13
ATOM     13  C   UNL     1       1.115   3.583  19.122  0.00  0.00    +0.000 C 
ATOM     14  C   UNL     1       1.034   2.138  18.659  0.00  0.00    +0.000 C 
ENDBRANCH  10  13
ENDBRANCH   7  10
ENDBRANCH   1   7
BRANCH   4  15
ATOM     15  N   UNL     1       1.146  10.725  18.063  0.00  0.00    +0.000 N 
ATOM     16  H   UNL     1       0.767  10.731  17.112  0.00  0.00    +0.000 HD
BRANCH  15  17
ATOM     17  S   UNL     1       0.022  11.527  19.055  0.00  0.00    +0.000 S 
ATOM     18  O   UNL     1       0.707  11.663  20.323  0.00  0.00    +0.000 OA
ATOM     19  O   UNL     1      -0.442  12.693  18.333  0.00  0.00    +0.000 OA
BRANCH  17  20
ATOM     20  C   UNL     1      -1.309  10.315  19.226  0.00  0.00    +0.000 C 
BRANCH  20  21
ATOM     21  C   UNL     1      -2.246  10.469  18.054  0.00  0.00    +0.000 A 
ATOM     22  C   UNL     1      -1.958   9.850  16.828  0.00  0.00    +0.000 A 
ATOM     23  C   UNL     1      -2.780  10.056  15.719  0.00  0.00    +0.000 A 
ATOM     24  C   UNL     1      -3.901  10.876  15.823  0.00  0.00    +0.000 A 
ATOM     25  C   UNL     1      -4.210  11.481  17.040  0.00  0.00    +0.000 A 
ATOM     26  C   UNL     1      -3.389  11.276  18.152  0.00  0.00    +0.000 A 
ENDBRANCH  20  21
ENDBRANCH  17  20
ENDBRANCH  15  17
ENDBRANCH   4  15
TORSDOF 8
ENDMDL
MODEL 8
REMARK VINA RESULT:      -6.8      1.715      8.047
REMARK  Name = 
REMARK  10 active torsions:
REMARK  status: ('A' for Active; 'I' for Inactive)
REMARK    1  A    between atoms: C_1  and  C_2
REMARK    2  A    between atoms: C_2  and  N_3
REMARK    3  A    between atoms: N_3  and  C_4
REMARK    4  A    between atoms: N_3  and  S_6
REMARK    5  A    between atoms: C_4  and  C_5
REMARK    6  A    between atoms: S_6  and  C_9
REMARK    7  A    between atoms: C_12  and  N_13
REMARK    8  A    between atoms: N_13  and  S_14
REMARK    9  A    between atoms: S_14  and  C_17
REMARK   10  A    between atoms: C_17  and  C_18
REMARK                            x       y       z     vdW  Elec       q    Type
REMARK                         _______ _______ _______ _____ _____    ______ ____
ROOT
ATOM      1  C   UNL     1       1.256   9.181  19.548  0.00  0.00    +0.000 A 
ATOM      2  C   UNL     1       1.527   8.185  20.492  0.00  0.00    +0.000 A 
ATOM      3  C   UNL     1       2.215   7.028  20.099  0.00  0.00    +0.000 A 
ATOM      4  C   UNL     1       2.622   6.874  18.771  0.00  0.00    +0.000 A 
ATOM      5  C   UNL     1       2.341   7.868  17.833  0.00  0.00    +0.000 A 
ATOM      6  C   UNL     1       1.656   9.023  18.217  0.00  0.00    +0.000 A 
ENDROOT
BRANCH   1   7
ATOM      7  S   UNL     1       0.305  10.619  20.011  0.00  0.00    +0.000 S 
ATOM      8  O   UNL     1       1.250  11.680  20.286  0.00  0.00    +0.000 OA
ATOM      9  O   UNL     1      -0.662  10.203  21.005  0.00  0.00    +0.000 OA
BRANCH   7  10
ATOM     10  N   UNL     1      -0.572  11.028  18.587  0.00  0.00    +0.000 NA
BRANCH  10  12
ATOM     11  C   UNL     1      -2.198  10.161  16.870  0.00  0.00    +0.000 C 
ATOM     12  C   UNL     1      -1.754  10.152  18.326  0.00  0.00    +0.000 C 
ENDBRANCH  10  12
BRANCH  10  13
ATOM     13  C   UNL     1      -0.828  12.498  18.444  0.00  0.00    +0.000 C 
ATOM     14  C   UNL     1      -1.834  13.049  19.442  0.00  0.00    +0.000 C 
ENDBRANCH  10  13
ENDBRANCH   7  10
ENDBRANCH   1   7
BRANCH   4  15
ATOM     15  N   UNL     1       3.313   5.709  18.323  0.00  0.00    +0.000 N 
ATOM     16  H   UNL     1       4.183   5.522  18.828  0.00  0.00    +0.000 HD
BRANCH  15  17
ATOM     17  S   UNL     1       2.450   4.245  18.254  0.00  0.00    +0.000 S 
ATOM     18  O   UNL     1       2.192   3.924  19.642  0.00  0.00    +0.000 OA
ATOM     19  O   UNL     1       1.361   4.426  17.318  0.00  0.00    +0.000 OA
BRANCH  17  20
ATOM     20  C   UNL     1       3.669   3.085  17.593  0.00  0.00    +0.000 C 
BRANCH  20  21
ATOM     21  C   UNL     1       4.828   3.876  17.039  0.00  0.00    +0.000 A 
ATOM     22  C   UNL     1       4.840   4.269  15.693  0.00  0.00    +0.000 A 
ATOM     23  C   UNL     1       5.946   4.931  15.157  0.00  0.00    +0.000 A 
ATOM     24  C   UNL     1       7.048   5.214  15.960  0.00  0.00    +0.000 A 
ATOM     25  C   UNL     1       7.040   4.847  17.305  0.00  0.00    +0.000 A 
ATOM     26  C   UNL     1       5.935   4.185  17.844  0.00  0.00    +0.000 A 
ENDBRANCH  20  21
ENDBRANCH  17  20
ENDBRANCH  15  17
ENDBRANCH   4  15
TORSDOF 8
ENDMDL
MODEL 9
REMARK VINA RESULT:      -6.8      2.049      8.190
REMARK  Name = 
REMARK  10 active torsions:
REMARK  status: ('A' for Active; 'I' for Inactive)
REMARK    1  A    between atoms: C_1  and  C_2
REMARK    2  A    between atoms: C_2  and  N_3
REMARK    3  A    between atoms: N_3  and  C_4
REMARK    4  A    between atoms: N_3  and  S_6
REMARK    5  A    between atoms: C_4  and  C_5
REMARK    6  A    between atoms: S_6  and  C_9
REMARK    7  A    between atoms: C_12  and  N_13
REMARK    8  A    between atoms: N_13  and  S_14
REMARK    9  A    between atoms: S_14  and  C_17
REMARK   10  A    between atoms: C_17  and  C_18
REMARK                            x       y       z     vdW  Elec       q    Type
REMARK                         _______ _______ _______ _____ _____    ______ ____
ROOT
ATOM      1  C   UNL     1       1.082   9.478  19.674  0.00  0.00    +0.000 A 
ATOM      2  C   UNL     1       1.339   9.453  18.299  0.00  0.00    +0.000 A 
ATOM      3  C   UNL     1       1.999   8.351  17.737  0.00  0.00    +0.000 A 
ATOM      4  C   UNL     1       2.401   7.288  18.552  0.00  0.00    +0.000 A 
ATOM      5  C   UNL     1       2.150   7.323  19.924  0.00  0.00    +0.000 A 
ATOM      6  C   UNL     1       1.491   8.417  20.489  0.00  0.00    +0.000 A 
ENDROOT
BRANCH   1   7
ATOM      7  S   UNL     1       0.321  10.910  20.419  0.00  0.00    +0.000 S 
ATOM      8  O   UNL     1       1.319  11.525  21.268  0.00  0.00    +0.000 OA
ATOM      9  O   UNL     1      -0.961  10.499  20.950  0.00  0.00    +0.000 OA
BRANCH   7  10
ATOM     10  N   UNL     1       0.010  11.966  19.095  0.00  0.00    +0.000 NA
BRANCH  10  12
ATOM     11  C   UNL     1      -1.934  11.571  17.543  0.00  0.00    +0.000 C 
ATOM     12  C   UNL     1      -1.442  12.206  18.836  0.00  0.00    +0.000 C 
ENDBRANCH  10  12
BRANCH  10  13
ATOM     13  C   UNL     1       0.867  13.196  19.097  0.00  0.00    +0.000 C 
ATOM     14  C   UNL     1       2.086  13.100  18.195  0.00  0.00    +0.000 C 
ENDBRANCH  10  13
ENDBRANCH   7  10
ENDBRANCH   1   7
BRANCH   4  15
ATOM     15  N   UNL     1       3.087   6.153  18.027  0.00  0.00    +0.000 N 
ATOM     16  H   UNL     1       4.067   6.090  18.316  0.00  0.00    +0.000 HD
BRANCH  15  17
ATOM     17  S   UNL     1       2.396   4.618  18.269  0.00  0.00    +0.000 S 
ATOM     18  O   UNL     1       2.221   4.534  19.704  0.00  0.00    +0.000 OA
ATOM     19  O   UNL     1       1.263   4.505  17.375  0.00  0.00    +0.000 OA
BRANCH  17  20
ATOM     20  C   UNL     1       3.717   3.492  17.765  0.00  0.00    +0.000 C 
BRANCH  20  21
ATOM     21  C   UNL     1       5.029   4.232  17.844  0.00  0.00    +0.000 A 
ATOM     22  C   UNL     1       5.515   4.687  19.079  0.00  0.00    +0.000 A 
ATOM     23  C   UNL     1       6.687   5.442  19.146  0.00  0.00    +0.000 A 
ATOM     24  C   UNL     1       7.390   5.745  17.982  0.00  0.00    +0.000 A 
ATOM     25  C   UNL     1       6.930   5.281  16.751  0.00  0.00    +0.000 A 
ATOM     26  C   UNL     1       5.757   4.526  16.682  0.00  0.00    +0.000 A 
ENDBRANCH  20  21
ENDBRANCH  17  20
ENDBRANCH  15  17
ENDBRANCH   4  15
TORSDOF 8
ENDMDL
