MODEL 1
REMARK VINA RESULT:      -7.6      0.000      0.000
REMARK  Name = 
REMARK  9 active torsions:
REMARK  status: ('A' for Active; 'I' for Inactive)
REMARK    1  A    between atoms: C_1  and  C_2
REMARK    2  A    between atoms: C_5  and  C_6
REMARK    3  A    between atoms: C_6  and  C_7
REMARK    4  A    between atoms: C_6  and  N_10
REMARK    5  A    between atoms: C_7  and  C_8
REMARK    6  A    between atoms: C_8  and  O_9
REMARK    7  A    between atoms: C_11  and  C_13
REMARK    8  A    between atoms: C_13  and  N_14
REMARK    9  A    between atoms: N_17  and  C_18
REMARK                            x       y       z     vdW  Elec       q    Type
REMARK                         _______ _______ _______ _____ _____    ______ ____
ROOT
ATOM      1  C   UNL     1       2.513   5.202  18.572  0.00  0.00    +0.000 C 
ATOM      2  C   UNL     1       2.100   6.572  18.024  0.00  0.00    +0.000 C 
ATOM      3  C   UNL     1       2.465   7.613  19.069  0.00  0.00    +0.000 C 
ATOM      4  N   UNL     1       1.593   7.411  20.227  0.00  0.00    +0.000 N 
ATOM      5  C   UNL     1       1.671   6.109  20.886  0.00  0.00    +0.000 C 
ATOM      6  C   UNL     1       1.743   4.942  19.875  0.00  0.00    +0.000 C 
ENDROOT
BRANCH   4   7
ATOM      7  C   UNL     1       1.007   8.569  20.710  0.00  0.00    +0.000 A 
ATOM      8  N   UNL     1       0.960   8.629  22.065  0.00  0.00    +0.000 NA
ATOM      9  C   UNL     1       0.345   9.648  22.666  0.00  0.00    +0.000 A 
ATOM     10  N   UNL     1      -0.233  10.671  22.047  0.00  0.00    +0.000 NA
ATOM     11  C   UNL     1      -0.169  10.641  20.709  0.00  0.00    +0.000 A 
ATOM     12  N   UNL     1      -0.766  11.747  20.097  0.00  0.00    +0.000 N 
ATOM     13  C   UNL     1       0.458   9.620  19.975  0.00  0.00    +0.000 A 
ATOM     14 CL   UNL     1       0.387   9.679  18.246  0.00  0.00    +0.000 Cl
ATOM     15  H   UNL     1      -1.236  12.282  20.834  0.00  0.00    +0.000 HD
ATOM     16  H   UNL     1      -1.396  11.476  19.352  0.00  0.00    +0.000 HD
ENDBRANCH   4   7
BRANCH   1  18
ATOM     17  N   UNL     1       4.766   5.259  17.307  0.00  0.00    +0.000 N 
ATOM     18  C   UNL     1       4.086   5.198  18.497  0.00  0.00    +0.000 C 
ATOM     19  O   UNL     1       4.701   5.037  19.563  0.00  0.00    +0.000 OA
ATOM     20  H   UNL     1       4.278   5.328  16.428  0.00  0.00    +0.000 HD
BRANCH  17  21
ATOM     21  C   UNL     1       6.222   5.042  17.316  0.00  0.00    +0.000 C 
BRANCH  21  26
ATOM     22  C   UNL     1       9.211   9.753  19.054  0.00  0.00    +0.000 C 
ATOM     23  C   UNL     1       8.487   8.540  18.552  0.00  0.00    +0.000 A 
ATOM     24  C   UNL     1       7.683   8.602  17.407  0.00  0.00    +0.000 A 
ATOM     25  C   UNL     1       6.980   7.475  16.965  0.00  0.00    +0.000 A 
ATOM     26  C   UNL     1       7.066   6.258  17.654  0.00  0.00    +0.000 A 
ATOM     27  C   UNL     1       7.894   6.210  18.796  0.00  0.00    +0.000 A 
ATOM     28  C   UNL     1       8.601   7.331  19.234  0.00  0.00    +0.000 A 
ENDBRANCH  21  26
BRANCH  21  29
ATOM     29  C   UNL     1       6.693   4.258  16.075  0.00  0.00    +0.000 C 
BRANCH  29  30
ATOM     30  C   UNL     1       6.426   4.944  14.745  0.00  0.00    +0.000 C 
BRANCH  30  31
ATOM     31  O   UNL     1       7.655   5.404  14.193  0.00  0.00    +0.000 OA
ATOM     32  H   UNL     1       8.247   5.638  14.939  0.00  0.00    +0.000 HD
ENDBRANCH  30  31
ENDBRANCH  29  30
ENDBRANCH  21  29
ENDBRANCH  17  21
ENDBRANCH   1  18
BRANCH   1  33
ATOM     33  N   UNL     1       2.105   4.126  17.618  0.00  0.00    +0.000 NA
ATOM     34  H   UNL     1       1.288   4.478  17.105  0.00  0.00    +0.000 HD
ATOM     35  H   UNL     1       1.763   3.319  18.137  0.00  0.00    +0.000 HD
ENDBRANCH   1  33
TORSDOF 8
ENDMDL
MODEL 2
REMARK VINA RESULT:      -7.4      1.230      1.531
REMARK  Name = 
REMARK  9 active torsions:
REMARK  status: ('A' for Active; 'I' for Inactive)
REMARK    1  A    between atoms: C_1  and  C_2
REMARK    2  A    between atoms: C_5  and  C_6
REMARK    3  A    between atoms: C_6  and  C_7
REMARK    4  A    between atoms: C_6  and  N_10
REMARK    5  A    between atoms: C_7  and  C_8
REMARK    6  A    between atoms: C_8  and  O_9
REMARK    7  A    between atoms: C_11  and  C_13
REMARK    8  A    between atoms: C_13  and  N_14
REMARK    9  A    between atoms: N_17  and  C_18
REMARK                            x       y       z     vdW  Elec       q    Type
REMARK                         _______ _______ _______ _____ _____    ______ ____
ROOT
ATOM      1  C   UNL     1       2.554   5.275  18.944  0.00  0.00    +0.000 C 
ATOM      2  C   UNL     1       2.053   6.344  17.967  0.00  0.00    +0.000 C 
ATOM      3  C   UNL     1       2.425   7.700  18.542  0.00  0.00    +0.000 C 
ATOM      4  N   UNL     1       1.622   7.912  19.748  0.00  0.00    +0.000 N 
ATOM      5  C   UNL     1       1.791   6.938  20.825  0.00  0.00    +0.000 C 
ATOM      6  C   UNL     1       1.863   5.487  20.300  0.00  0.00    +0.000 C 
ENDROOT
BRANCH   4   7
ATOM      7  C   UNL     1       1.011   9.152  19.818  0.00  0.00    +0.000 A 
ATOM      8  N   UNL     1       1.408  10.009  18.842  0.00  0.00    +0.000 NA
ATOM      9  C   UNL     1       0.964  11.266  18.840  0.00  0.00    +0.000 A 
ATOM     10  N   UNL     1       0.116  11.785  19.720  0.00  0.00    +0.000 NA
ATOM     11  C   UNL     1      -0.309  10.943  20.671  0.00  0.00    +0.000 A 
ATOM     12  N   UNL     1      -1.219  11.520  21.562  0.00  0.00    +0.000 N 
ATOM     13  C   UNL     1       0.089   9.599  20.765  0.00  0.00    +0.000 A 
ATOM     14 CL   UNL     1      -0.482   8.657  22.101  0.00  0.00    +0.000 Cl
ATOM     15  H   UNL     1      -1.259  12.521  21.344  0.00  0.00    +0.000 HD
ATOM     16  H   UNL     1      -0.972  11.342  22.527  0.00  0.00    +0.000 HD
ENDBRANCH   4   7
BRANCH   1  18
ATOM     17  N   UNL     1       4.728   5.163  17.553  0.00  0.00    +0.000 N 
ATOM     18  C   UNL     1       4.119   5.279  18.777  0.00  0.00    +0.000 C 
ATOM     19  O   UNL     1       4.798   5.296  19.816  0.00  0.00    +0.000 OA
ATOM     20  H   UNL     1       4.190   5.087  16.705  0.00  0.00    +0.000 HD
BRANCH  17  21
ATOM     21  C   UNL     1       6.188   4.969  17.509  0.00  0.00    +0.000 C 
BRANCH  21  26
ATOM     22  C   UNL     1       9.170   9.795  18.911  0.00  0.00    +0.000 C 
ATOM     23  C   UNL     1       8.444   8.551  18.493  0.00  0.00    +0.000 A 
ATOM     24  C   UNL     1       7.579   8.556  17.392  0.00  0.00    +0.000 A 
ATOM     25  C   UNL     1       6.877   7.401  17.030  0.00  0.00    +0.000 A 
ATOM     26  C   UNL     1       7.023   6.212  17.756  0.00  0.00    +0.000 A 
ATOM     27  C   UNL     1       7.913   6.221  18.853  0.00  0.00    +0.000 A 
ATOM     28  C   UNL     1       8.620   7.370  19.211  0.00  0.00    +0.000 A 
ENDBRANCH  21  26
BRANCH  21  29
ATOM     29  C   UNL     1       6.619   4.138  16.283  0.00  0.00    +0.000 C 
BRANCH  29  30
ATOM     30  C   UNL     1       5.772   4.346  15.038  0.00  0.00    +0.000 C 
BRANCH  30  31
ATOM     31  O   UNL     1       6.237   3.490  14.000  0.00  0.00    +0.000 OA
ATOM     32  H   UNL     1       5.785   2.626  14.102  0.00  0.00    +0.000 HD
ENDBRANCH  30  31
ENDBRANCH  29  30
ENDBRANCH  21  29
ENDBRANCH  17  21
ENDBRANCH   1  18
BRANCH   1  33
ATOM     33  N   UNL     1       2.146   3.917  18.470  0.00  0.00    +0.000 NA
ATOM     34  H   UNL     1       2.798   3.656  17.721  0.00  0.00    +0.000 HD
ATOM     35  H   UNL     1       1.235   3.971  18.018  0.00  0.00    +0.000 HD
ENDBRANCH   1  33
TORSDOF 8
ENDMDL
MODEL 3
REMARK VINA RESULT:      -7.2      4.288      7.509
REMARK  Name = 
REMARK  9 active torsions:
REMARK  status: ('A' for Active; 'I' for Inactive)
REMARK    1  A    between atoms: C_1  and  C_2
REMARK    2  A    between atoms: C_5  and  C_6
REMARK    3  A    between atoms: C_6  and  C_7
REMARK    4  A    between atoms: C_6  and  N_10
REMARK    5  A    between atoms: C_7  and  C_8
REMARK    6  A    between atoms: C_8  and  O_9
REMARK    7  A    between atoms: C_11  and  C_13
REMARK    8  A    between atoms: C_13  and  N_14
REMARK    9  A    between atoms: N_17  and  C_18
REMARK                            x       y       z     vdW  Elec       q    Type
REMARK                         _______ _______ _______ _____ _____    ______ ____
ROOT
ATOM      1  C   UNL     1       0.060  12.781  19.738  0.00  0.00    +0.000 C 
ATOM      2  C   UNL     1      -0.836  13.286  20.874  0.00  0.00    +0.000 C 
ATOM      3  C   UNL     1      -2.010  12.329  20.991  0.00  0.00    +0.000 C 
ATOM      4  N   UNL     1      -2.834  12.480  19.789  0.00  0.00    +0.000 N 
ATOM      5  C   UNL     1      -2.185  12.194  18.512  0.00  0.00    +0.000 C 
ATOM      6  C   UNL     1      -0.755  12.776  18.435  0.00  0.00    +0.000 C 
ENDROOT
BRANCH   4   7
ATOM      7  C   UNL     1      -4.189  12.611  20.038  0.00  0.00    +0.000 A 
ATOM      8  N   UNL     1      -4.476  13.483  21.039  0.00  0.00    +0.000 NA
ATOM      9  C   UNL     1      -5.737  13.642  21.442  0.00  0.00    +0.000 A 
ATOM     10  N   UNL     1      -6.793  13.026  20.926  0.00  0.00    +0.000 NA
ATOM     11  C   UNL     1      -6.531  12.186  19.917  0.00  0.00    +0.000 A 
ATOM     12  N   UNL     1      -7.672  11.577  19.385  0.00  0.00    +0.000 N 
ATOM     13  C   UNL     1      -5.243  11.946  19.409  0.00  0.00    +0.000 A 
ATOM     14 CL   UNL     1      -5.052  10.768  18.155  0.00  0.00    +0.000 Cl
ATOM     15  H   UNL     1      -8.458  11.832  19.991  0.00  0.00    +0.000 HD
ATOM     16  H   UNL     1      -7.561  10.575  19.294  0.00  0.00    +0.000 HD
ENDBRANCH   4   7
BRANCH   1  18
ATOM     17  N   UNL     1       0.438  10.229  19.874  0.00  0.00    +0.000 N 
ATOM     18  C   UNL     1       0.751  11.490  20.315  0.00  0.00    +0.000 C 
ATOM     19  O   UNL     1       1.533  11.646  21.266  0.00  0.00    +0.000 OA
ATOM     20  H   UNL     1      -0.241  10.083  19.145  0.00  0.00    +0.000 HD
BRANCH  17  21
ATOM     21  C   UNL     1       0.977   9.073  20.610  0.00  0.00    +0.000 C 
BRANCH  21  26
ATOM     22  C   UNL     1       4.229   5.160  17.735  0.00  0.00    +0.000 C 
ATOM     23  C   UNL     1       3.343   6.154  18.426  0.00  0.00    +0.000 A 
ATOM     24  C   UNL     1       3.062   7.395  17.843  0.00  0.00    +0.000 A 
ATOM     25  C   UNL     1       2.264   8.333  18.509  0.00  0.00    +0.000 A 
ATOM     26  C   UNL     1       1.726   8.053  19.772  0.00  0.00    +0.000 A 
ATOM     27  C   UNL     1       2.007   6.789  20.336  0.00  0.00    +0.000 A 
ATOM     28  C   UNL     1       2.796   5.850  19.670  0.00  0.00    +0.000 A 
ENDBRANCH  21  26
BRANCH  21  29
ATOM     29  C   UNL     1      -0.064   8.471  21.575  0.00  0.00    +0.000 C 
BRANCH  29  30
ATOM     30  C   UNL     1      -0.448   9.366  22.743  0.00  0.00    +0.000 C 
BRANCH  30  31
ATOM     31  O   UNL     1       0.721   9.723  23.471  0.00  0.00    +0.000 OA
ATOM     32  H   UNL     1       1.213  10.384  22.939  0.00  0.00    +0.000 HD
ENDBRANCH  30  31
ENDBRANCH  29  30
ENDBRANCH  21  29
ENDBRANCH  17  21
ENDBRANCH   1  18
BRANCH   1  33
ATOM     33  N   UNL     1       1.195  13.730  19.522  0.00  0.00    +0.000 NA
ATOM     34  H   UNL     1       1.824  13.290  18.839  0.00  0.00    +0.000 HD
ATOM     35  H   UNL     1       1.745  13.807  20.375  0.00  0.00    +0.000 HD
ENDBRANCH   1  33
TORSDOF 8
ENDMDL
MODEL 4
REMARK VINA RESULT:      -7.2      4.597      9.722
REMARK  Name = 
REMARK  9 active torsions:
REMARK  status: ('A' for Active; 'I' for Inactive)
REMARK    1  A    between atoms: C_1  and  C_2
REMARK    2  A    between atoms: C_5  and  C_6
REMARK    3  A    between atoms: C_6  and  C_7
REMARK    4  A    between atoms: C_6  and  N_10
REMARK    5  A    between atoms: C_7  and  C_8
REMARK    6  A    between atoms: C_8  and  O_9
REMARK    7  A    between atoms: C_11  and  C_13
REMARK    8  A    between atoms: C_13  and  N_14
REMARK    9  A    between atoms: N_17  and  C_18
REMARK                            x       y       z     vdW  Elec       q    Type
REMARK                         _______ _______ _______ _____ _____    ______ ____
ROOT
ATOM      1  C   UNL     1       0.636  11.413  19.773  0.00  0.00    +0.000 C 
ATOM      2  C   UNL     1       1.703  11.091  18.721  0.00  0.00    +0.000 C 
ATOM      3  C   UNL     1       1.406   9.704  18.175  0.00  0.00    +0.000 C 
ATOM      4  N   UNL     1       1.655   8.738  19.247  0.00  0.00    +0.000 N 
ATOM      5  C   UNL     1       0.860   8.891  20.463  0.00  0.00    +0.000 C 
ATOM      6  C   UNL     1       0.724  10.368  20.896  0.00  0.00    +0.000 C 
ENDROOT
BRANCH   4   7
ATOM      7  C   UNL     1       2.417   7.646  18.867  0.00  0.00    +0.000 A 
ATOM      8  N   UNL     1       3.203   7.883  17.786  0.00  0.00    +0.000 NA
ATOM      9  C   UNL     1       3.925   6.893  17.258  0.00  0.00    +0.000 A 
ATOM     10  N   UNL     1       3.976   5.649  17.717  0.00  0.00    +0.000 NA
ATOM     11  C   UNL     1       3.229   5.407  18.802  0.00  0.00    +0.000 A 
ATOM     12  N   UNL     1       3.329   4.092  19.268  0.00  0.00    +0.000 N 
ATOM     13  C   UNL     1       2.435   6.375  19.441  0.00  0.00    +0.000 A 
ATOM     14 CL   UNL     1       1.459   5.890  20.787  0.00  0.00    +0.000 Cl
ATOM     15  H   UNL     1       3.876   3.569  18.577  0.00  0.00    +0.000 HD
ATOM     16  H   UNL     1       2.421   3.679  19.439  0.00  0.00    +0.000 HD
ENDBRANCH   4   7
BRANCH   1  18
ATOM     17  N   UNL     1      -1.742  10.797  18.972  0.00  0.00    +0.000 N 
ATOM     18  C   UNL     1      -0.679  11.665  18.946  0.00  0.00    +0.000 C 
ATOM     19  O   UNL     1      -0.687  12.642  18.181  0.00  0.00    +0.000 OA
ATOM     20  H   UNL     1      -1.725   9.966  19.541  0.00  0.00    +0.000 HD
BRANCH  17  21
ATOM     21  C   UNL     1      -2.841  11.001  18.014  0.00  0.00    +0.000 C 
BRANCH  21  26
ATOM     22  C   UNL     1      -7.913  13.236  19.867  0.00  0.00    +0.000 C 
ATOM     23  C   UNL     1      -6.610  12.622  19.449  0.00  0.00    +0.000 A 
ATOM     24  C   UNL     1      -5.424  12.913  20.134  0.00  0.00    +0.000 A 
ATOM     25  C   UNL     1      -4.205  12.365  19.716  0.00  0.00    +0.000 A 
ATOM     26  C   UNL     1      -4.142  11.513  18.606  0.00  0.00    +0.000 A 
ATOM     27  C   UNL     1      -5.351  11.218  17.938  0.00  0.00    +0.000 A 
ATOM     28  C   UNL     1      -6.568  11.757  18.358  0.00  0.00    +0.000 A 
ENDBRANCH  21  26
BRANCH  21  29
ATOM     29  C   UNL     1      -2.999   9.803  17.056  0.00  0.00    +0.000 C 
BRANCH  29  30
ATOM     30  C   UNL     1      -2.665  10.097  15.602  0.00  0.00    +0.000 C 
BRANCH  30  31
ATOM     31  O   UNL     1      -3.060  11.426  15.284  0.00  0.00    +0.000 OA
ATOM     32  H   UNL     1      -3.764  11.372  14.604  0.00  0.00    +0.000 HD
ENDBRANCH  30  31
ENDBRANCH  29  30
ENDBRANCH  21  29
ENDBRANCH  17  21
ENDBRANCH   1  18
BRANCH   1  33
ATOM     33  N   UNL     1       0.923  12.737  20.404  0.00  0.00    +0.000 NA
ATOM     34  H   UNL     1       0.071  13.303  20.307  0.00  0.00    +0.000 HD
ATOM     35  H   UNL     1       1.630  13.230  19.861  0.00  0.00    +0.000 HD
ENDBRANCH   1  33
TORSDOF 8
ENDMDL
MODEL 5
REMARK VINA RESULT:      -7.2      4.476      7.862
REMARK  Name = 
REMARK  9 active torsions:
REMARK  status: ('A' for Active; 'I' for Inactive)
REMARK    1  A    between atoms: C_1  and  C_2
REMARK    2  A    between atoms: C_5  and  C_6
REMARK    3  A    between atoms: C_6  and  C_7
REMARK    4  A    between atoms: C_6  and  N_10
REMARK    5  A    between atoms: C_7  and  C_8
REMARK    6  A    between atoms: C_8  and  O_9
REMARK    7  A    between atoms: C_11  and  C_13
REMARK    8  A    between atoms: C_13  and  N_14
REMARK    9  A    between atoms: N_17  and  C_18
REMARK                            x       y       z     vdW  Elec       q    Type
REMARK                         _______ _______ _______ _____ _____    ______ ____
ROOT
ATOM      1  C   UNL     1      -0.886  12.504  18.877  0.00  0.00    +0.000 C 
ATOM      2  C   UNL     1      -1.169  13.597  19.914  0.00  0.00    +0.000 C 
ATOM      3  C   UNL     1      -2.085  13.001  20.969  0.00  0.00    +0.000 C 
ATOM      4  N   UNL     1      -3.386  12.753  20.345  0.00  0.00    +0.000 N 
ATOM      5  C   UNL     1      -3.402  11.834  19.209  0.00  0.00    +0.000 C 
ATOM      6  C   UNL     1      -2.218  12.072  18.245  0.00  0.00    +0.000 C 
ENDROOT
BRANCH   4   7
ATOM      7  C   UNL     1      -4.468  13.208  21.079  0.00  0.00    +0.000 A 
ATOM      8  N   UNL     1      -5.374  13.897  20.339  0.00  0.00    +0.000 NA
ATOM      9  C   UNL     1      -6.423  14.468  20.933  0.00  0.00    +0.000 A 
ATOM     10  N   UNL     1      -6.699  14.408  22.230  0.00  0.00    +0.000 NA
ATOM     11  C   UNL     1      -5.831  13.705  22.969  0.00  0.00    +0.000 A 
ATOM     12  N   UNL     1      -6.171  13.646  24.324  0.00  0.00    +0.000 N 
ATOM     13  C   UNL     1      -4.697  13.060  22.447  0.00  0.00    +0.000 A 
ATOM     14 CL   UNL     1      -3.621  12.259  23.542  0.00  0.00    +0.000 Cl
ATOM     15  H   UNL     1      -6.967  14.276  24.462  0.00  0.00    +0.000 HD
ATOM     16  H   UNL     1      -5.387  13.873  24.923  0.00  0.00    +0.000 HD
ENDBRANCH   4   7
BRANCH   1  18
ATOM     17  N   UNL     1      -0.174  10.147  19.660  0.00  0.00    +0.000 N 
ATOM     18  C   UNL     1       0.075  11.495  19.609  0.00  0.00    +0.000 C 
ATOM     19  O   UNL     1       1.033  11.980  20.232  0.00  0.00    +0.000 OA
ATOM     20  H   UNL     1      -0.982   9.746  19.211  0.00  0.00    +0.000 HD
BRANCH  17  21
ATOM     21  C   UNL     1       0.662   9.309  20.538  0.00  0.00    +0.000 C 
BRANCH  21  26
ATOM     22  C   UNL     1       3.862   5.509  17.461  0.00  0.00    +0.000 C 
ATOM     23  C   UNL     1       3.096   6.494  18.293  0.00  0.00    +0.000 A 
ATOM     24  C   UNL     1       2.683   6.173  19.592  0.00  0.00    +0.000 A 
ATOM     25  C   UNL     1       1.936   7.083  20.350  0.00  0.00    +0.000 A 
ATOM     26  C   UNL     1       1.587   8.336  19.830  0.00  0.00    +0.000 A 
ATOM     27  C   UNL     1       2.027   8.649  18.525  0.00  0.00    +0.000 A 
ATOM     28  C   UNL     1       2.777   7.746  17.771  0.00  0.00    +0.000 A 
ENDBRANCH  21  26
BRANCH  21  29
ATOM     29  C   UNL     1      -0.155   8.695  21.692  0.00  0.00    +0.000 C 
BRANCH  29  30
ATOM     30  C   UNL     1      -0.549   9.672  22.789  0.00  0.00    +0.000 C 
BRANCH  30  31
ATOM     31  O   UNL     1       0.467   9.701  23.786  0.00  0.00    +0.000 OA
ATOM     32  H   UNL     1       0.042   9.945  24.635  0.00  0.00    +0.000 HD
ENDBRANCH  30  31
ENDBRANCH  29  30
ENDBRANCH  21  29
ENDBRANCH  17  21
ENDBRANCH   1  18
BRANCH   1  33
ATOM     33  N   UNL     1      -0.051  13.055  17.767  0.00  0.00    +0.000 NA
ATOM     34  H   UNL     1       0.740  12.411  17.642  0.00  0.00    +0.000 HD
ATOM     35  H   UNL     1       0.371  13.935  18.060  0.00  0.00    +0.000 HD
ENDBRANCH   1  33
TORSDOF 8
ENDMDL
MODEL 6
REMARK VINA RESULT:      -7.1      4.475      7.675
REMARK  Name = 
REMARK  9 active torsions:
REMARK  status: ('A' for Active; 'I' for Inactive)
REMARK    1  A    between atoms: C_1  and  C_2
REMARK    2  A    between atoms: C_5  and  C_6
REMARK    3  A    between atoms: C_6  and  C_7
REMARK    4  A    between atoms: C_6  and  N_10
REMARK    5  A    between atoms: C_7  and  C_8
REMARK    6  A    between atoms: C_8  and  O_9
REMARK    7  A    between atoms: C_11  and  C_13
REMARK    8  A    between atoms: C_13  and  N_14
REMARK    9  A    between atoms: N_17  and  C_18
REMARK                            x       y       z     vdW  Elec       q    Type
REMARK                         _______ _______ _______ _____ _____    ______ ____
ROOT
ATOM      1  C   UNL     1      -0.385  12.438  19.086  0.00  0.00    +0.000 C 
ATOM      2  C   UNL     1      -0.630  13.502  20.162  0.00  0.00    +0.000 C 
ATOM      3  C   UNL     1      -1.659  12.945  21.131  0.00  0.00    +0.000 C 
ATOM      4  N   UNL     1      -2.937  12.850  20.423  0.00  0.00    +0.000 N 
ATOM      5  C   UNL     1      -2.967  11.993  19.240  0.00  0.00    +0.000 C 
ATOM      6  C   UNL     1      -1.710  12.164  18.358  0.00  0.00    +0.000 C 
ENDROOT
BRANCH   4   7
ATOM      7  C   UNL     1      -4.016  13.370  21.117  0.00  0.00    +0.000 A 
ATOM      8  N   UNL     1      -4.852  12.420  21.611  0.00  0.00    +0.000 NA
ATOM      9  C   UNL     1      -5.978  12.780  22.228  0.00  0.00    +0.000 A 
ATOM     10  N   UNL     1      -6.373  14.030  22.440  0.00  0.00    +0.000 NA
ATOM     11  C   UNL     1      -5.545  14.978  21.986  0.00  0.00    +0.000 A 
ATOM     12  N   UNL     1      -5.985  16.279  22.251  0.00  0.00    +0.000 N 
ATOM     13  C   UNL     1      -4.332  14.713  21.328  0.00  0.00    +0.000 A 
ATOM     14 CL   UNL     1      -3.407  16.046  20.724  0.00  0.00    +0.000 Cl
ATOM     15  H   UNL     1      -6.931  16.203  22.639  0.00  0.00    +0.000 HD
ATOM     16  H   UNL     1      -5.948  16.868  21.429  0.00  0.00    +0.000 HD
ENDBRANCH   4   7
BRANCH   1  18
ATOM     17  N   UNL     1       0.082   9.985  19.750  0.00  0.00    +0.000 N 
ATOM     18  C   UNL     1       0.434  11.310  19.817  0.00  0.00    +0.000 C 
ATOM     19  O   UNL     1       1.369  11.674  20.546  0.00  0.00    +0.000 OA
ATOM     20  H   UNL     1      -0.713   9.681  19.211  0.00  0.00    +0.000 HD
BRANCH  17  21
ATOM     21  C   UNL     1       0.777   9.028  20.627  0.00  0.00    +0.000 C 
BRANCH  21  26
ATOM     22  C   UNL     1       3.834   5.108  17.554  0.00  0.00    +0.000 C 
ATOM     23  C   UNL     1       3.104   6.120  18.387  0.00  0.00    +0.000 A 
ATOM     24  C   UNL     1       2.638   5.798  19.668  0.00  0.00    +0.000 A 
ATOM     25  C   UNL     1       1.925   6.735  20.425  0.00  0.00    +0.000 A 
ATOM     26  C   UNL     1       1.663   8.016  19.923  0.00  0.00    +0.000 A 
ATOM     27  C   UNL     1       2.156   8.328  18.637  0.00  0.00    +0.000 A 
ATOM     28  C   UNL     1       2.873   7.397  17.883  0.00  0.00    +0.000 A 
ENDBRANCH  21  26
BRANCH  21  29
ATOM     29  C   UNL     1      -0.171   8.426  21.684  0.00  0.00    +0.000 C 
BRANCH  29  30
ATOM     30  C   UNL     1      -0.569   9.376  22.802  0.00  0.00    +0.000 C 
BRANCH  30  31
ATOM     31  O   UNL     1       0.513  10.256  23.084  0.00  0.00    +0.000 OA
ATOM     32  H   UNL     1       0.571  10.902  22.349  0.00  0.00    +0.000 HD
ENDBRANCH  30  31
ENDBRANCH  29  30
ENDBRANCH  21  29
ENDBRANCH  17  21
ENDBRANCH   1  18
BRANCH   1  33
ATOM     33  N   UNL     1       0.563  12.962  18.056  0.00  0.00    +0.000 NA
ATOM     34  H   UNL     1       1.298  12.253  17.942  0.00  0.00    +0.000 HD
ATOM     35  H   UNL     1       1.044  13.783  18.419  0.00  0.00    +0.000 HD
ENDBRANCH   1  33
TORSDOF 8
ENDMDL
MODEL 7
REMARK VINA RESULT:      -7.1      4.262      7.477
REMARK  Name = 
REMARK  9 active torsions:
REMARK  status: ('A' for Active; 'I' for Inactive)
REMARK    1  A    between atoms: C_1  and  C_2
REMARK    2  A    between atoms: C_5  and  C_6
REMARK    3  A    between atoms: C_6  and  C_7
REMARK    4  A    between atoms: C_6  and  N_10
REMARK    5  A    between atoms: C_7  and  C_8
REMARK    6  A    between atoms: C_8  and  O_9
REMARK    7  A    between atoms: C_11  and  C_13
REMARK    8  A    between atoms: C_13  and  N_14
REMARK    9  A    between atoms: N_17  and  C_18
REMARK                            x       y       z     vdW  Elec       q    Type
REMARK                         _______ _______ _______ _____ _____    ______ ____
ROOT
ATOM      1  C   UNL     1      -0.435  12.496  18.865  0.00  0.00    +0.000 C 
ATOM      2  C   UNL     1      -0.731  13.488  19.996  0.00  0.00    +0.000 C 
ATOM      3  C   UNL     1      -1.659  12.798  20.980  0.00  0.00    +0.000 C 
ATOM      4  N   UNL     1      -2.953  12.610  20.321  0.00  0.00    +0.000 N 
ATOM      5  C   UNL     1      -2.954  11.801  19.104  0.00  0.00    +0.000 C 
ATOM      6  C   UNL     1      -1.759  12.126  18.180  0.00  0.00    +0.000 C 
ENDROOT
BRANCH   4   7
ATOM      7  C   UNL     1      -4.043  12.996  21.081  0.00  0.00    +0.000 A 
ATOM      8  N   UNL     1      -4.985  13.673  20.375  0.00  0.00    +0.000 NA
ATOM      9  C   UNL     1      -6.049  14.179  21.000  0.00  0.00    +0.000 A 
ATOM     10  N   UNL     1      -6.307  14.063  22.297  0.00  0.00    +0.000 NA
ATOM     11  C   UNL     1      -5.403  13.372  23.001  0.00  0.00    +0.000 A 
ATOM     12  N   UNL     1      -5.724  13.252  24.357  0.00  0.00    +0.000 N 
ATOM     13  C   UNL     1      -4.250  12.791  22.446  0.00  0.00    +0.000 A 
ATOM     14 CL   UNL     1      -3.131  11.997  23.501  0.00  0.00    +0.000 Cl
ATOM     15  H   UNL     1      -6.543  13.844  24.526  0.00  0.00    +0.000 HD
ATOM     16  H   UNL     1      -4.943  13.490  24.956  0.00  0.00    +0.000 HD
ENDBRANCH   4   7
BRANCH   1  18
ATOM     17  N   UNL     1       0.291  10.075  19.398  0.00  0.00    +0.000 N 
ATOM     18  C   UNL     1       0.518  11.423  19.511  0.00  0.00    +0.000 C 
ATOM     19  O   UNL     1       1.444  11.846  20.221  0.00  0.00    +0.000 OA
ATOM     20  H   UNL     1      -0.493   9.718  18.876  0.00  0.00    +0.000 HD
BRANCH  17  21
ATOM     21  C   UNL     1       1.111   9.153  20.203  0.00  0.00    +0.000 C 
BRANCH  21  26
ATOM     22  C   UNL     1       4.483   5.190  17.545  0.00  0.00    +0.000 C 
ATOM     23  C   UNL     1       3.568   6.194  18.179  0.00  0.00    +0.000 A 
ATOM     24  C   UNL     1       3.276   7.407  17.543  0.00  0.00    +0.000 A 
ATOM     25  C   UNL     1       2.450   8.356  18.157  0.00  0.00    +0.000 A 
ATOM     26  C   UNL     1       1.893   8.115  19.420  0.00  0.00    +0.000 A 
ATOM     27  C   UNL     1       2.185   6.879  20.038  0.00  0.00    +0.000 A 
ATOM     28  C   UNL     1       3.002   5.930  19.424  0.00  0.00    +0.000 A 
ENDBRANCH  21  26
BRANCH  21  29
ATOM     29  C   UNL     1       0.328   8.594  21.408  0.00  0.00    +0.000 C 
BRANCH  29  30
ATOM     30  C   UNL     1       0.505   9.370  22.703  0.00  0.00    +0.000 C 
BRANCH  30  31
ATOM     31  O   UNL     1      -0.703   9.319  23.456  0.00  0.00    +0.000 OA
ATOM     32  H   UNL     1      -0.520   9.707  24.337  0.00  0.00    +0.000 HD
ENDBRANCH  30  31
ENDBRANCH  29  30
ENDBRANCH  21  29
ENDBRANCH  17  21
ENDBRANCH   1  18
BRANCH   1  33
ATOM     33  N   UNL     1       0.413  13.148  17.821  0.00  0.00    +0.000 NA
ATOM     34  H   UNL     1      -0.002  14.070  17.634  0.00  0.00    +0.000 HD
ATOM     35  H   UNL     1       0.329  12.639  16.943  0.00  0.00    +0.000 HD
ENDBRANCH   1  33
TORSDOF 8
ENDMDL
MODEL 8
REMARK VINA RESULT:      -7.1      1.702      3.421
REMARK  Name = 
REMARK  9 active torsions:
REMARK  status: ('A' for Active; 'I' for Inactive)
REMARK    1  A    between atoms: C_1  and  C_2
REMARK    2  A    between atoms: C_5  and  C_6
REMARK    3  A    between atoms: C_6  and  C_7
REMARK    4  A    between atoms: C_6  and  N_10
REMARK    5  A    between atoms: C_7  and  C_8
REMARK    6  A    between atoms: C_8  and  O_9
REMARK    7  A    between atoms: C_11  and  C_13
REMARK    8  A    between atoms: C_13  and  N_14
REMARK    9  A    between atoms: N_17  and  C_18
REMARK                            x       y       z     vdW  Elec       q    Type
REMARK                         _______ _______ _______ _____ _____    ______ ____
ROOT
ATOM      1  C   UNL     1       2.407   4.926  18.408  0.00  0.00    +0.000 C 
ATOM      2  C   UNL     1       2.008   6.309  17.882  0.00  0.00    +0.000 C 
ATOM      3  C   UNL     1       2.557   7.343  18.849  0.00  0.00    +0.000 C 
ATOM      4  N   UNL     1       1.823   7.214  20.109  0.00  0.00    +0.000 N 
ATOM      5  C   UNL     1       1.907   5.920  20.785  0.00  0.00    +0.000 C 
ATOM      6  C   UNL     1       1.788   4.734  19.801  0.00  0.00    +0.000 C 
ENDROOT
BRANCH   4   7
ATOM      7  C   UNL     1       1.367   8.412  20.631  0.00  0.00    +0.000 A 
ATOM      8  N   UNL     1       1.437   8.476  21.985  0.00  0.00    +0.000 NA
ATOM      9  C   UNL     1       0.951   9.539  22.628  0.00  0.00    +0.000 A 
ATOM     10  N   UNL     1       0.403  10.602  22.052  0.00  0.00    +0.000 NA
ATOM     11  C   UNL     1       0.353  10.567  20.714  0.00  0.00    +0.000 A 
ATOM     12  N   UNL     1      -0.209  11.714  20.146  0.00  0.00    +0.000 N 
ATOM     13  C   UNL     1       0.839   9.502  19.937  0.00  0.00    +0.000 A 
ATOM     14 CL   UNL     1       0.630   9.565  18.220  0.00  0.00    +0.000 Cl
ATOM     15  H   UNL     1      -0.575  12.283  20.916  0.00  0.00    +0.000 HD
ATOM     16  H   UNL     1      -0.916  11.491  19.457  0.00  0.00    +0.000 HD
ENDBRANCH   4   7
BRANCH   1  18
ATOM     17  N   UNL     1       4.667   5.841  17.554  0.00  0.00    +0.000 N 
ATOM     18  C   UNL     1       3.955   4.827  18.144  0.00  0.00    +0.000 C 
ATOM     19  O   UNL     1       4.504   3.744  18.404  0.00  0.00    +0.000 OA
ATOM     20  H   UNL     1       4.222   6.703  17.282  0.00  0.00    +0.000 HD
BRANCH  17  21
ATOM     21  C   UNL     1       6.062   5.584  17.158  0.00  0.00    +0.000 C 
BRANCH  21  26
ATOM     22  C   UNL     1       6.803   3.616  11.706  0.00  0.00    +0.000 C 
ATOM     23  C   UNL     1       6.618   4.055  13.128  0.00  0.00    +0.000 A 
ATOM     24  C   UNL     1       5.440   3.760  13.826  0.00  0.00    +0.000 A 
ATOM     25  C   UNL     1       5.259   4.204  15.141  0.00  0.00    +0.000 A 
ATOM     26  C   UNL     1       6.250   4.951  15.792  0.00  0.00    +0.000 A 
ATOM     27  C   UNL     1       7.438   5.224  15.078  0.00  0.00    +0.000 A 
ATOM     28  C   UNL     1       7.623   4.776  13.769  0.00  0.00    +0.000 A 
ENDBRANCH  21  26
BRANCH  21  29
ATOM     29  C   UNL     1       6.866   4.917  18.292  0.00  0.00    +0.000 C 
BRANCH  29  30
ATOM     30  C   UNL     1       7.785   5.852  19.061  0.00  0.00    +0.000 C 
BRANCH  30  31
ATOM     31  O   UNL     1       7.850   5.441  20.422  0.00  0.00    +0.000 OA
ATOM     32  H   UNL     1       8.119   6.218  20.955  0.00  0.00    +0.000 HD
ENDBRANCH  30  31
ENDBRANCH  29  30
ENDBRANCH  21  29
ENDBRANCH  17  21
ENDBRANCH   1  18
BRANCH   1  33
ATOM     33  N   UNL     1       1.824   3.860  17.537  0.00  0.00    +0.000 NA
ATOM     34  H   UNL     1       2.170   4.032  16.585  0.00  0.00    +0.000 HD
ATOM     35  H   UNL     1       0.815   3.979  17.477  0.00  0.00    +0.000 HD
ENDBRANCH   1  33
TORSDOF 8
ENDMDL
MODEL 9
REMARK VINA RESULT:      -7.0      4.656      7.976
REMARK  Name = 
REMARK  9 active torsions:
REMARK  status: ('A' for Active; 'I' for Inactive)
REMARK    1  A    between atoms: C_1  and  C_2
REMARK    2  A    between atoms: C_5  and  C_6
REMARK    3  A    between atoms: C_6  and  C_7
REMARK    4  A    between atoms: C_6  and  N_10
REMARK    5  A    between atoms: C_7  and  C_8
REMARK    6  A    between atoms: C_8  and  O_9
REMARK    7  A    between atoms: C_11  and  C_13
REMARK    8  A    between atoms: C_13  and  N_14
REMARK    9  A    between atoms: N_17  and  C_18
REMARK                            x       y       z     vdW  Elec       q    Type
REMARK                         _______ _______ _______ _____ _____    ______ ____
ROOT
ATOM      1  C   UNL     1      -1.445  12.615  19.081  0.00  0.00    +0.000 C 
ATOM      2  C   UNL     1      -1.615  13.741  20.106  0.00  0.00    +0.000 C 
ATOM      3  C   UNL     1      -2.351  13.164  21.303  0.00  0.00    +0.000 C 
ATOM      4  N   UNL     1      -3.718  12.852  20.882  0.00  0.00    +0.000 N 
ATOM      5  C   UNL     1      -3.863  11.886  19.794  0.00  0.00    +0.000 C 
ATOM      6  C   UNL     1      -2.837  12.118  18.662  0.00  0.00    +0.000 C 
ENDROOT
BRANCH   4   7
ATOM      7  C   UNL     1      -4.700  13.305  21.746  0.00  0.00    +0.000 A 
ATOM      8  N   UNL     1      -4.806  12.569  22.882  0.00  0.00    +0.000 NA
ATOM      9  C   UNL     1      -5.769  12.841  23.764  0.00  0.00    +0.000 A 
ATOM     10  N   UNL     1      -6.661  13.819  23.652  0.00  0.00    +0.000 NA
ATOM     11  C   UNL     1      -6.550  14.573  22.551  0.00  0.00    +0.000 A 
ATOM     12  N   UNL     1      -7.491  15.605  22.484  0.00  0.00    +0.000 N 
ATOM     13  C   UNL     1      -5.572  14.379  21.561  0.00  0.00    +0.000 A 
ATOM     14 CL   UNL     1      -5.608  15.385  20.152  0.00  0.00    +0.000 Cl
ATOM     15  H   UNL     1      -8.146  15.466  23.260  0.00  0.00    +0.000 HD
ATOM     16  H   UNL     1      -7.955  15.639  21.585  0.00  0.00    +0.000 HD
ENDBRANCH   4   7
BRANCH   1  18
ATOM     17  N   UNL     1      -0.429  10.299  19.612  0.00  0.00    +0.000 N 
ATOM     18  C   UNL     1      -0.354  11.666  19.705  0.00  0.00    +0.000 C 
ATOM     19  O   UNL     1       0.541  12.201  20.378  0.00  0.00    +0.000 OA
ATOM     20  H   UNL     1      -1.184   9.848  19.121  0.00  0.00    +0.000 HD
BRANCH  17  21
ATOM     21  C   UNL     1       0.516   9.488  20.398  0.00  0.00    +0.000 C 
BRANCH  21  26
ATOM     22  C   UNL     1       4.215   5.883  17.664  0.00  0.00    +0.000 C 
ATOM     23  C   UNL     1       3.216   6.789  18.320  0.00  0.00    +0.000 A 
ATOM     24  C   UNL     1       2.763   7.948  17.678  0.00  0.00    +0.000 A 
ATOM     25  C   UNL     1       1.858   8.808  18.311  0.00  0.00    +0.000 A 
ATOM     26  C   UNL     1       1.382   8.530  19.599  0.00  0.00    +0.000 A 
ATOM     27  C   UNL     1       1.836   7.348  20.223  0.00  0.00    +0.000 A 
ATOM     28  C   UNL     1       2.732   6.485  19.591  0.00  0.00    +0.000 A 
ENDBRANCH  21  26
BRANCH  21  29
ATOM     29  C   UNL     1      -0.156   8.865  21.638  0.00  0.00    +0.000 C 
BRANCH  29  30
ATOM     30  C   UNL     1       0.295   9.444  22.970  0.00  0.00    +0.000 C 
BRANCH  30  31
ATOM     31  O   UNL     1      -0.257  10.746  23.132  0.00  0.00    +0.000 OA
ATOM     32  H   UNL     1      -0.024  11.268  22.336  0.00  0.00    +0.000 HD
ENDBRANCH  30  31
ENDBRANCH  29  30
ENDBRANCH  21  29
ENDBRANCH  17  21
ENDBRANCH   1  18
BRANCH   1  33
ATOM     33  N   UNL     1      -0.795  13.144  17.843  0.00  0.00    +0.000 NA
ATOM     34  H   UNL     1       0.215  12.993  17.950  0.00  0.00    +0.000 HD
ATOM     35  H   UNL     1      -0.907  14.155  17.802  0.00  0.00    +0.000 HD
ENDBRANCH   1  33
TORSDOF 8
ENDMDL
