MODEL 1
REMARK VINA RESULT:      -7.4      0.000      0.000
REMARK  Name = 
REMARK  5 active torsions:
REMARK  status: ('A' for Active; 'I' for Inactive)
REMARK    1  A    between atoms: C_1  and  C_2
REMARK    2  A    between atoms: C_5  and  S_6
REMARK    3  A    between atoms: S_6  and  N_9
REMARK    4  A    between atoms: N_9  and  C_10
REMARK    5  A    between atoms: C_17  and  C_18
REMARK                            x       y       z     vdW  Elec       q    Type
REMARK                         _______ _______ _______ _____ _____    ______ ____
ROOT
ATOM      1  S   UNL     1       3.713   3.288  18.502  0.00  0.00    +0.000 S 
ATOM      2  O   UNL     1       3.240   2.206  19.335  0.00  0.00    +0.000 OA
ATOM      3  O   UNL     1       3.546   3.253  17.060  0.00  0.00    +0.000 OA
ENDROOT
BRANCH   1   8
ATOM      4  C   UNL     1       1.278   8.493  20.519  0.00  0.00    +0.000 C 
ATOM      5  C   UNL     1       1.887   7.215  20.006  0.00  0.00    +0.000 A 
ATOM      6  C   UNL     1       1.863   6.064  20.811  0.00  0.00    +0.000 A 
ATOM      7  C   UNL     1       2.410   4.861  20.359  0.00  0.00    +0.000 A 
ATOM      8  C   UNL     1       2.975   4.800  19.084  0.00  0.00    +0.000 A 
ATOM      9  C   UNL     1       3.035   5.943  18.282  0.00  0.00    +0.000 A 
ATOM     10  C   UNL     1       2.488   7.155  18.732  0.00  0.00    +0.000 A 
ATOM     11  C   UNL     1       2.573   8.367  17.843  0.00  0.00    +0.000 C 
ENDBRANCH   1   8
BRANCH   1  12
ATOM     12  N   UNL     1       5.358   3.503  18.766  0.00  0.00    +0.000 N 
ATOM     13  H   UNL     1       5.843   2.676  19.111  0.00  0.00    +0.000 HD
BRANCH  12  14
ATOM     14  C   UNL     1       6.090   4.489  18.055  0.00  0.00    +0.000 A 
ATOM     15  C   UNL     1       6.243   4.377  16.680  0.00  0.00    +0.000 A 
ATOM     16  C   UNL     1       6.925   5.389  16.024  0.00  0.00    +0.000 A 
ATOM     17  N   UNL     1       7.461   6.458  16.651  0.00  0.00    +0.000 NA
ATOM     18  C   UNL     1       7.306   6.525  17.990  0.00  0.00    +0.000 A 
ATOM     19  C   UNL     1       6.628   5.575  18.733  0.00  0.00    +0.000 A 
ENDBRANCH  12  14
ENDBRANCH   1  12
TORSDOF 3
ENDMDL
MODEL 2
REMARK VINA RESULT:      -7.3      0.291      1.146
REMARK  Name = 
REMARK  5 active torsions:
REMARK  status: ('A' for Active; 'I' for Inactive)
REMARK    1  A    between atoms: C_1  and  C_2
REMARK    2  A    between atoms: C_5  and  S_6
REMARK    3  A    between atoms: S_6  and  N_9
REMARK    4  A    between atoms: N_9  and  C_10
REMARK    5  A    between atoms: C_17  and  C_18
REMARK                            x       y       z     vdW  Elec       q    Type
REMARK                         _______ _______ _______ _____ _____    ______ ____
ROOT
ATOM      1  S   UNL     1       3.468   3.356  18.273  0.00  0.00    +0.000 S 
ATOM      2  O   UNL     1       2.974   2.255  19.069  0.00  0.00    +0.000 OA
ATOM      3  O   UNL     1       3.253   3.400  16.838  0.00  0.00    +0.000 OA
ENDROOT
BRANCH   1   8
ATOM      4  C   UNL     1       1.331   8.555  20.618  0.00  0.00    +0.000 C 
ATOM      5  C   UNL     1       1.865   7.279  20.023  0.00  0.00    +0.000 A 
ATOM      6  C   UNL     1       1.872   6.105  20.795  0.00  0.00    +0.000 A 
ATOM      7  C   UNL     1       2.351   4.903  20.268  0.00  0.00    +0.000 A 
ATOM      8  C   UNL     1       2.816   4.867  18.953  0.00  0.00    +0.000 A 
ATOM      9  C   UNL     1       2.846   6.032  18.182  0.00  0.00    +0.000 A 
ATOM     10  C   UNL     1       2.368   7.243  18.706  0.00  0.00    +0.000 A 
ATOM     11  C   UNL     1       2.418   8.479  17.849  0.00  0.00    +0.000 C 
ENDBRANCH   1   8
BRANCH   1  12
ATOM     12  N   UNL     1       5.128   3.487  18.491  0.00  0.00    +0.000 N 
ATOM     13  H   UNL     1       5.580   2.637  18.821  0.00  0.00    +0.000 HD
BRANCH  12  14
ATOM     14  C   UNL     1       5.888   4.438  17.761  0.00  0.00    +0.000 A 
ATOM     15  C   UNL     1       6.406   5.551  18.408  0.00  0.00    +0.000 A 
ATOM     16  C   UNL     1       7.181   6.425  17.664  0.00  0.00    +0.000 A 
ATOM     17  N   UNL     1       7.438   6.263  16.348  0.00  0.00    +0.000 NA
ATOM     18  C   UNL     1       6.904   5.178  15.749  0.00  0.00    +0.000 A 
ATOM     19  C   UNL     1       6.131   4.238  16.408  0.00  0.00    +0.000 A 
ENDBRANCH  12  14
ENDBRANCH   1  12
TORSDOF 3
ENDMDL
MODEL 3
REMARK VINA RESULT:      -7.3      3.033      4.464
REMARK  Name = 
REMARK  5 active torsions:
REMARK  status: ('A' for Active; 'I' for Inactive)
REMARK    1  A    between atoms: C_1  and  C_2
REMARK    2  A    between atoms: C_5  and  S_6
REMARK    3  A    between atoms: S_6  and  N_9
REMARK    4  A    between atoms: N_9  and  C_10
REMARK    5  A    between atoms: C_17  and  C_18
REMARK                            x       y       z     vdW  Elec       q    Type
REMARK                         _______ _______ _______ _____ _____    ______ ____
ROOT
ATOM      1  S   UNL     1       5.656   6.165  16.527  0.00  0.00    +0.000 S 
ATOM      2  O   UNL     1       5.107   6.897  15.407  0.00  0.00    +0.000 OA
ATOM      3  O   UNL     1       6.399   6.843  17.573  0.00  0.00    +0.000 OA
ENDROOT
BRANCH   1   8
ATOM      4  C   UNL     1       1.081   3.093  19.122  0.00  0.00    +0.000 C 
ATOM      5  C   UNL     1       2.221   3.837  18.476  0.00  0.00    +0.000 A 
ATOM      6  C   UNL     1       2.142   5.232  18.328  0.00  0.00    +0.000 A 
ATOM      7  C   UNL     1       3.187   5.951  17.743  0.00  0.00    +0.000 A 
ATOM      8  C   UNL     1       4.329   5.275  17.311  0.00  0.00    +0.000 A 
ATOM      9  C   UNL     1       4.410   3.884  17.422  0.00  0.00    +0.000 A 
ATOM     10  C   UNL     1       3.363   3.155  18.007  0.00  0.00    +0.000 A 
ATOM     11  C   UNL     1       3.484   1.658  18.107  0.00  0.00    +0.000 C 
ENDBRANCH   1   8
BRANCH   1  12
ATOM     12  N   UNL     1       6.675   4.963  15.948  0.00  0.00    +0.000 N 
ATOM     13  H   UNL     1       6.898   4.234  16.624  0.00  0.00    +0.000 HD
BRANCH  12  14
ATOM     14  C   UNL     1       6.740   4.665  14.562  0.00  0.00    +0.000 A 
ATOM     15  C   UNL     1       7.684   5.297  13.764  0.00  0.00    +0.000 A 
ATOM     16  C   UNL     1       7.740   4.939  12.427  0.00  0.00    +0.000 A 
ATOM     17  N   UNL     1       6.917   4.030  11.860  0.00  0.00    +0.000 NA
ATOM     18  C   UNL     1       6.002   3.449  12.663  0.00  0.00    +0.000 A 
ATOM     19  C   UNL     1       5.877   3.726  14.013  0.00  0.00    +0.000 A 
ENDBRANCH  12  14
ENDBRANCH   1  12
TORSDOF 3
ENDMDL
MODEL 4
REMARK VINA RESULT:      -7.2      3.034      4.420
REMARK  Name = 
REMARK  5 active torsions:
REMARK  status: ('A' for Active; 'I' for Inactive)
REMARK    1  A    between atoms: C_1  and  C_2
REMARK    2  A    between atoms: C_5  and  S_6
REMARK    3  A    between atoms: S_6  and  N_9
REMARK    4  A    between atoms: N_9  and  C_10
REMARK    5  A    between atoms: C_17  and  C_18
REMARK                            x       y       z     vdW  Elec       q    Type
REMARK                         _______ _______ _______ _____ _____    ______ ____
ROOT
ATOM      1  S   UNL     1       5.699   6.131  16.531  0.00  0.00    +0.000 S 
ATOM      2  O   UNL     1       5.168   6.865  15.404  0.00  0.00    +0.000 OA
ATOM      3  O   UNL     1       6.432   6.806  17.587  0.00  0.00    +0.000 OA
ENDROOT
BRANCH   1   8
ATOM      4  C   UNL     1       1.078   3.079  19.067  0.00  0.00    +0.000 C 
ATOM      5  C   UNL     1       2.230   3.818  18.435  0.00  0.00    +0.000 A 
ATOM      6  C   UNL     1       2.154   5.212  18.277  0.00  0.00    +0.000 A 
ATOM      7  C   UNL     1       3.209   5.927  17.705  0.00  0.00    +0.000 A 
ATOM      8  C   UNL     1       4.358   5.247  17.298  0.00  0.00    +0.000 A 
ATOM      9  C   UNL     1       4.437   3.857  17.420  0.00  0.00    +0.000 A 
ATOM     10  C   UNL     1       3.380   3.132  17.992  0.00  0.00    +0.000 A 
ATOM     11  C   UNL     1       3.497   1.636  18.104  0.00  0.00    +0.000 C 
ENDBRANCH   1   8
BRANCH   1  12
ATOM     12  N   UNL     1       6.720   4.924  15.965  0.00  0.00    +0.000 N 
ATOM     13  H   UNL     1       6.931   4.194  16.644  0.00  0.00    +0.000 HD
BRANCH  12  14
ATOM     14  C   UNL     1       6.802   4.626  14.580  0.00  0.00    +0.000 A 
ATOM     15  C   UNL     1       5.945   3.685  14.025  0.00  0.00    +0.000 A 
ATOM     16  C   UNL     1       6.030   3.463  12.661  0.00  0.00    +0.000 A 
ATOM     17  N   UNL     1       6.911   4.093  11.853  0.00  0.00    +0.000 NA
ATOM     18  C   UNL     1       7.739   4.989  12.431  0.00  0.00    +0.000 A 
ATOM     19  C   UNL     1       7.720   5.293  13.781  0.00  0.00    +0.000 A 
ENDBRANCH  12  14
ENDBRANCH   1  12
TORSDOF 3
ENDMDL
MODEL 5
REMARK VINA RESULT:      -7.2      0.753      1.672
REMARK  Name = 
REMARK  5 active torsions:
REMARK  status: ('A' for Active; 'I' for Inactive)
REMARK    1  A    between atoms: C_1  and  C_2
REMARK    2  A    between atoms: C_5  and  S_6
REMARK    3  A    between atoms: S_6  and  N_9
REMARK    4  A    between atoms: N_9  and  C_10
REMARK    5  A    between atoms: C_17  and  C_18
REMARK                            x       y       z     vdW  Elec       q    Type
REMARK                         _______ _______ _______ _____ _____    ______ ____
ROOT
ATOM      1  S   UNL     1       3.862   3.619  18.996  0.00  0.00    +0.000 S 
ATOM      2  O   UNL     1       3.374   3.098  20.254  0.00  0.00    +0.000 OA
ATOM      3  O   UNL     1       3.587   2.936  17.745  0.00  0.00    +0.000 OA
ENDROOT
BRANCH   1   8
ATOM      4  C   UNL     1       1.781   9.311  18.401  0.00  0.00    +0.000 C 
ATOM      5  C   UNL     1       2.288   7.903  18.565  0.00  0.00    +0.000 A 
ATOM      6  C   UNL     1       2.888   7.251  17.474  0.00  0.00    +0.000 A 
ATOM      7  C   UNL     1       3.378   5.949  17.597  0.00  0.00    +0.000 A 
ATOM      8  C   UNL     1       3.281   5.292  18.825  0.00  0.00    +0.000 A 
ATOM      9  C   UNL     1       2.659   5.914  19.912  0.00  0.00    +0.000 A 
ATOM     10  C   UNL     1       2.163   7.222  19.794  0.00  0.00    +0.000 A 
ATOM     11  C   UNL     1       1.496   7.859  20.983  0.00  0.00    +0.000 C 
ENDBRANCH   1   8
BRANCH   1  12
ATOM     12  N   UNL     1       5.533   3.768  19.077  0.00  0.00    +0.000 N 
ATOM     13  H   UNL     1       6.014   2.951  19.450  0.00  0.00    +0.000 HD
BRANCH  12  14
ATOM     14  C   UNL     1       6.231   4.646  18.208  0.00  0.00    +0.000 A 
ATOM     15  C   UNL     1       6.338   4.341  16.858  0.00  0.00    +0.000 A 
ATOM     16  C   UNL     1       6.987   5.252  16.042  0.00  0.00    +0.000 A 
ATOM     17  N   UNL     1       7.537   6.401  16.491  0.00  0.00    +0.000 NA
ATOM     18  C   UNL     1       7.428   6.656  17.812  0.00  0.00    +0.000 A 
ATOM     19  C   UNL     1       6.784   5.819  18.706  0.00  0.00    +0.000 A 
ENDBRANCH  12  14
ENDBRANCH   1  12
TORSDOF 3
ENDMDL
MODEL 6
REMARK VINA RESULT:      -7.1      0.750      1.998
REMARK  Name = 
REMARK  5 active torsions:
REMARK  status: ('A' for Active; 'I' for Inactive)
REMARK    1  A    between atoms: C_1  and  C_2
REMARK    2  A    between atoms: C_5  and  S_6
REMARK    3  A    between atoms: S_6  and  N_9
REMARK    4  A    between atoms: N_9  and  C_10
REMARK    5  A    between atoms: C_17  and  C_18
REMARK                            x       y       z     vdW  Elec       q    Type
REMARK                         _______ _______ _______ _____ _____    ______ ____
ROOT
ATOM      1  S   UNL     1       3.900   3.544  19.030  0.00  0.00    +0.000 S 
ATOM      2  O   UNL     1       3.464   3.048  20.317  0.00  0.00    +0.000 OA
ATOM      3  O   UNL     1       3.576   2.836  17.806  0.00  0.00    +0.000 OA
ENDROOT
BRANCH   1   8
ATOM      4  C   UNL     1       1.784   9.220  18.402  0.00  0.00    +0.000 C 
ATOM      5  C   UNL     1       2.299   7.816  18.574  0.00  0.00    +0.000 A 
ATOM      6  C   UNL     1       2.909   7.164  17.489  0.00  0.00    +0.000 A 
ATOM      7  C   UNL     1       3.407   5.865  17.620  0.00  0.00    +0.000 A 
ATOM      8  C   UNL     1       3.308   5.213  18.850  0.00  0.00    +0.000 A 
ATOM      9  C   UNL     1       2.678   5.835  19.931  0.00  0.00    +0.000 A 
ATOM     10  C   UNL     1       2.174   7.139  19.805  0.00  0.00    +0.000 A 
ATOM     11  C   UNL     1       1.498   7.777  20.989  0.00  0.00    +0.000 C 
ENDBRANCH   1   8
BRANCH   1  12
ATOM     12  N   UNL     1       5.572   3.697  19.041  0.00  0.00    +0.000 N 
ATOM     13  H   UNL     1       6.072   2.865  19.348  0.00  0.00    +0.000 HD
BRANCH  12  14
ATOM     14  C   UNL     1       6.227   4.624  18.188  0.00  0.00    +0.000 A 
ATOM     15  C   UNL     1       6.792   5.773  18.722  0.00  0.00    +0.000 A 
ATOM     16  C   UNL     1       7.461   6.623  17.857  0.00  0.00    +0.000 A 
ATOM     17  N   UNL     1       7.572   6.403  16.529  0.00  0.00    +0.000 NA
ATOM     18  C   UNL     1       6.996   5.284  16.043  0.00  0.00    +0.000 A 
ATOM     19  C   UNL     1       6.321   4.365  16.827  0.00  0.00    +0.000 A 
ENDBRANCH  12  14
ENDBRANCH   1  12
TORSDOF 3
ENDMDL
MODEL 7
REMARK VINA RESULT:      -7.1      3.270      4.493
REMARK  Name = 
REMARK  5 active torsions:
REMARK  status: ('A' for Active; 'I' for Inactive)
REMARK    1  A    between atoms: C_1  and  C_2
REMARK    2  A    between atoms: C_5  and  S_6
REMARK    3  A    between atoms: S_6  and  N_9
REMARK    4  A    between atoms: N_9  and  C_10
REMARK    5  A    between atoms: C_17  and  C_18
REMARK                            x       y       z     vdW  Elec       q    Type
REMARK                         _______ _______ _______ _____ _____    ______ ____
ROOT
ATOM      1  S   UNL     1       6.079   6.437  16.356  0.00  0.00    +0.000 S 
ATOM      2  O   UNL     1       5.194   6.914  15.317  0.00  0.00    +0.000 OA
ATOM      3  O   UNL     1       6.794   7.363  17.215  0.00  0.00    +0.000 OA
ENDROOT
BRANCH   1   8
ATOM      4  C   UNL     1       2.887   2.762  20.016  0.00  0.00    +0.000 C 
ATOM      5  C   UNL     1       3.660   3.676  19.103  0.00  0.00    +0.000 A 
ATOM      6  C   UNL     1       5.038   3.860  19.311  0.00  0.00    +0.000 A 
ATOM      7  C   UNL     1       5.785   4.693  18.475  0.00  0.00    +0.000 A 
ATOM      8  C   UNL     1       5.156   5.340  17.411  0.00  0.00    +0.000 A 
ATOM      9  C   UNL     1       3.781   5.193  17.208  0.00  0.00    +0.000 A 
ATOM     10  C   UNL     1       3.024   4.359  18.045  0.00  0.00    +0.000 A 
ATOM     11  C   UNL     1       1.545   4.227  17.800  0.00  0.00    +0.000 C 
ENDBRANCH   1   8
BRANCH   1  12
ATOM     12  N   UNL     1       7.253   5.455  15.665  0.00  0.00    +0.000 N 
ATOM     13  H   UNL     1       7.876   5.004  16.333  0.00  0.00    +0.000 HD
BRANCH  12  14
ATOM     14  C   UNL     1       7.049   4.855  14.395  0.00  0.00    +0.000 A 
ATOM     15  C   UNL     1       6.102   3.852  14.249  0.00  0.00    +0.000 A 
ATOM     16  C   UNL     1       5.905   3.330  12.981  0.00  0.00    +0.000 A 
ATOM     17  N   UNL     1       6.597   3.730  11.892  0.00  0.00    +0.000 NA
ATOM     18  C   UNL     1       7.521   4.697  12.075  0.00  0.00    +0.000 A 
ATOM     19  C   UNL     1       7.779   5.292  13.297  0.00  0.00    +0.000 A 
ENDBRANCH  12  14
ENDBRANCH   1  12
TORSDOF 3
ENDMDL
MODEL 8
REMARK VINA RESULT:      -7.1      2.883      4.181
REMARK  Name = 
REMARK  5 active torsions:
REMARK  status: ('A' for Active; 'I' for Inactive)
REMARK    1  A    between atoms: C_1  and  C_2
REMARK    2  A    between atoms: C_5  and  S_6
REMARK    3  A    between atoms: S_6  and  N_9
REMARK    4  A    between atoms: N_9  and  C_10
REMARK    5  A    between atoms: C_17  and  C_18
REMARK                            x       y       z     vdW  Elec       q    Type
REMARK                         _______ _______ _______ _____ _____    ______ ____
ROOT
ATOM      1  S   UNL     1       5.562   5.907  16.679  0.00  0.00    +0.000 S 
ATOM      2  O   UNL     1       5.075   6.737  15.600  0.00  0.00    +0.000 OA
ATOM      3  O   UNL     1       6.346   6.471  17.763  0.00  0.00    +0.000 OA
ENDROOT
BRANCH   1   8
ATOM      4  C   UNL     1       0.857   3.016  19.247  0.00  0.00    +0.000 C 
ATOM      5  C   UNL     1       2.021   3.743  18.627  0.00  0.00    +0.000 A 
ATOM      6  C   UNL     1       2.646   3.205  17.489  0.00  0.00    +0.000 A 
ATOM      7  C   UNL     1       3.721   3.861  16.883  0.00  0.00    +0.000 A 
ATOM      8  C   UNL     1       4.170   5.073  17.410  0.00  0.00    +0.000 A 
ATOM      9  C   UNL     1       3.580   5.606  18.559  0.00  0.00    +0.000 A 
ATOM     10  C   UNL     1       2.501   4.951  19.173  0.00  0.00    +0.000 A 
ATOM     11  C   UNL     1       1.892   5.552  20.411  0.00  0.00    +0.000 C 
ENDBRANCH   1   8
BRANCH   1  12
ATOM     12  N   UNL     1       6.495   4.668  16.036  0.00  0.00    +0.000 N 
ATOM     13  H   UNL     1       6.552   3.834  16.618  0.00  0.00    +0.000 HD
BRANCH  12  14
ATOM     14  C   UNL     1       6.687   4.548  14.635  0.00  0.00    +0.000 A 
ATOM     15  C   UNL     1       7.642   5.329  14.000  0.00  0.00    +0.000 A 
ATOM     16  C   UNL     1       7.825   5.144  12.640  0.00  0.00    +0.000 A 
ATOM     17  N   UNL     1       7.113   4.265  11.902  0.00  0.00    +0.000 NA
ATOM     18  C   UNL     1       6.182   3.534  12.551  0.00  0.00    +0.000 A 
ATOM     19  C   UNL     1       5.936   3.634  13.909  0.00  0.00    +0.000 A 
ENDBRANCH  12  14
ENDBRANCH   1  12
TORSDOF 3
ENDMDL
MODEL 9
REMARK VINA RESULT:      -7.1      2.892      4.121
REMARK  Name = 
REMARK  5 active torsions:
REMARK  status: ('A' for Active; 'I' for Inactive)
REMARK    1  A    between atoms: C_1  and  C_2
REMARK    2  A    between atoms: C_5  and  S_6
REMARK    3  A    between atoms: S_6  and  N_9
REMARK    4  A    between atoms: N_9  and  C_10
REMARK    5  A    between atoms: C_17  and  C_18
REMARK                            x       y       z     vdW  Elec       q    Type
REMARK                         _______ _______ _______ _____ _____    ______ ____
ROOT
ATOM      1  S   UNL     1       5.570   5.981  16.609  0.00  0.00    +0.000 S 
ATOM      2  O   UNL     1       5.069   6.751  15.492  0.00  0.00    +0.000 OA
ATOM      3  O   UNL     1       6.327   6.613  17.675  0.00  0.00    +0.000 OA
ENDROOT
BRANCH   1   8
ATOM      4  C   UNL     1       0.929   3.057  19.255  0.00  0.00    +0.000 C 
ATOM      5  C   UNL     1       2.077   3.793  18.615  0.00  0.00    +0.000 A 
ATOM      6  C   UNL     1       2.693   3.255  17.472  0.00  0.00    +0.000 A 
ATOM      7  C   UNL     1       3.753   3.917  16.849  0.00  0.00    +0.000 A 
ATOM      8  C   UNL     1       4.196   5.138  17.362  0.00  0.00    +0.000 A 
ATOM      9  C   UNL     1       3.615   5.672  18.516  0.00  0.00    +0.000 A 
ATOM     10  C   UNL     1       2.551   5.009  19.148  0.00  0.00    +0.000 A 
ATOM     11  C   UNL     1       1.952   5.611  20.390  0.00  0.00    +0.000 C 
ENDBRANCH   1   8
BRANCH   1  12
ATOM     12  N   UNL     1       6.546   4.745  16.027  0.00  0.00    +0.000 N 
ATOM     13  H   UNL     1       6.626   3.940  16.646  0.00  0.00    +0.000 HD
BRANCH  12  14
ATOM     14  C   UNL     1       6.748   4.569  14.633  0.00  0.00    +0.000 A 
ATOM     15  C   UNL     1       5.977   3.651  13.934  0.00  0.00    +0.000 A 
ATOM     16  C   UNL     1       6.179   3.548  12.568  0.00  0.00    +0.000 A 
ATOM     17  N   UNL     1       7.094   4.274  11.890  0.00  0.00    +0.000 NA
ATOM     18  C   UNL     1       7.837   5.145  12.605  0.00  0.00    +0.000 A 
ATOM     19  C   UNL     1       7.699   5.332  13.970  0.00  0.00    +0.000 A 
ENDBRANCH  12  14
ENDBRANCH   1  12
TORSDOF 3
ENDMDL
