MODEL 1
REMARK VINA RESULT:      -8.1      0.000      0.000
REMARK  Name = 
REMARK  8 active torsions:
REMARK  status: ('A' for Active; 'I' for Inactive)
REMARK    1  A    between atoms: C_1  and  O_2
REMARK    2  A    between atoms: O_2  and  C_3
REMARK    3  A    between atoms: C_15  and  N_16
REMARK    4  A    between atoms: N_16  and  C_17
REMARK    5  A    between atoms: N_20  and  C_21
REMARK    6  A    between atoms: C_21  and  C_22
REMARK    7  A    between atoms: C_22  and  C_23
REMARK    8  A    between atoms: C_26  and  C_27
REMARK                            x       y       z     vdW  Elec       q    Type
REMARK                         _______ _______ _______ _____ _____    ______ ____
ROOT
ATOM      1  C   UNL     1       5.501   3.238  12.273  0.00  0.00    +0.000 A 
ATOM      2  C   UNL     1       6.744   3.762  11.959  0.00  0.00    +0.000 A 
ATOM      3  C   UNL     1       7.462   4.435  12.941  0.00  0.00    +0.000 A 
ATOM      4  C   UNL     1       6.942   4.668  14.200  0.00  0.00    +0.000 A 
ATOM      5  N   UNL     1       7.684   5.427  14.998  0.00  0.00    +0.000 NA
ATOM      6  C   UNL     1       7.079   6.012  16.027  0.00  0.00    +0.000 A 
ATOM      7  C   UNL     1       7.810   7.015  16.641  0.00  0.00    +0.000 A 
ATOM      8  C   UNL     1       7.206   7.875  17.544  0.00  0.00    +0.000 A 
ATOM      9 CL   UNL     1       8.096   9.180  18.220  0.00  0.00    +0.000 Cl
ATOM     10  C   UNL     1       5.860   7.734  17.830  0.00  0.00    +0.000 A 
ATOM     11  C   UNL     1       5.150   6.671  17.271  0.00  0.00    +0.000 A 
ATOM     12  C   UNL     1       5.742   5.723  16.406  0.00  0.00    +0.000 A 
ATOM     13  C   UNL     1       5.110   4.599  15.808  0.00  0.00    +0.000 A 
ATOM     14  C   UNL     1       5.659   4.197  14.544  0.00  0.00    +0.000 A 
ATOM     15  C   UNL     1       4.971   3.439  13.556  0.00  0.00    +0.000 A 
ENDROOT
BRANCH   1  17
ATOM     16  C   UNL     1       3.501   3.272  11.010  0.00  0.00    +0.000 C 
ATOM     17  O   UNL     1       4.690   2.581  11.387  0.00  0.00    +0.000 OA
ENDBRANCH   1  17
BRANCH  13  18
ATOM     18  N   UNL     1       3.920   3.981  16.256  0.00  0.00    +0.000 N 
ATOM     19  H   UNL     1       3.276   3.873  15.471  0.00  0.00    +0.000 HD
BRANCH  18  20
ATOM     20  C   UNL     1       3.751   2.868  17.222  0.00  0.00    +0.000 C 
ATOM     21  C   UNL     1       2.315   2.478  17.555  0.00  0.00    +0.000 C 
ATOM     22  C   UNL     1       1.607   3.289  18.657  0.00  0.00    +0.000 C 
ATOM     23  N   UNL     1       2.406   3.916  19.718  0.00  0.00    +0.000 NA
ATOM     24  C   UNL     1       3.797   4.226  19.353  0.00  0.00    +0.000 C 
ATOM     25  C   UNL     1       4.496   3.165  18.521  0.00  0.00    +0.000 C 
BRANCH  23  26
ATOM     26  C   UNL     1       1.778   5.176  20.214  0.00  0.00    +0.000 C 
BRANCH  26  27
ATOM     27  C   UNL     1       2.671   6.424  20.390  0.00  0.00    +0.000 C 
BRANCH  27  28
ATOM     28  C   UNL     1       1.930   7.660  19.912  0.00  0.00    +0.000 A 
ATOM     29  C   UNL     1       2.066   8.111  18.586  0.00  0.00    +0.000 A 
ATOM     30  C   UNL     1       1.492   9.320  18.173  0.00  0.00    +0.000 A 
ATOM     31  C   UNL     1       0.776  10.112  19.076  0.00  0.00    +0.000 A 
ATOM     32  C   UNL     1       0.227  11.449  18.670  0.00  0.00    +0.000 C 
ATOM     33  C   UNL     1       0.589   9.642  20.380  0.00  0.00    +0.000 A 
ATOM     34  C   UNL     1       1.162   8.433  20.795  0.00  0.00    +0.000 A 
ENDBRANCH  27  28
ENDBRANCH  26  27
ENDBRANCH  23  26
ENDBRANCH  18  20
ENDBRANCH  13  18
TORSDOF 6
ENDMDL
MODEL 2
REMARK VINA RESULT:      -7.8      0.665      1.183
REMARK  Name = 
REMARK  8 active torsions:
REMARK  status: ('A' for Active; 'I' for Inactive)
REMARK    1  A    between atoms: C_1  and  O_2
REMARK    2  A    between atoms: O_2  and  C_3
REMARK    3  A    between atoms: C_15  and  N_16
REMARK    4  A    between atoms: N_16  and  C_17
REMARK    5  A    between atoms: N_20  and  C_21
REMARK    6  A    between atoms: C_21  and  C_22
REMARK    7  A    between atoms: C_22  and  C_23
REMARK    8  A    between atoms: C_26  and  C_27
REMARK                            x       y       z     vdW  Elec       q    Type
REMARK                         _______ _______ _______ _____ _____    ______ ____
ROOT
ATOM      1  C   UNL     1       5.524   3.280  12.301  0.00  0.00    +0.000 A 
ATOM      2  C   UNL     1       6.784   3.766  11.994  0.00  0.00    +0.000 A 
ATOM      3  C   UNL     1       7.507   4.440  12.972  0.00  0.00    +0.000 A 
ATOM      4  C   UNL     1       6.977   4.711  14.220  0.00  0.00    +0.000 A 
ATOM      5  N   UNL     1       7.727   5.466  15.012  0.00  0.00    +0.000 NA
ATOM      6  C   UNL     1       7.125   6.086  16.022  0.00  0.00    +0.000 A 
ATOM      7  C   UNL     1       7.873   7.081  16.626  0.00  0.00    +0.000 A 
ATOM      8  C   UNL     1       7.280   7.974  17.505  0.00  0.00    +0.000 A 
ATOM      9 CL   UNL     1       8.194   9.269  18.168  0.00  0.00    +0.000 Cl
ATOM     10  C   UNL     1       5.927   7.873  17.776  0.00  0.00    +0.000 A 
ATOM     11  C   UNL     1       5.198   6.817  17.228  0.00  0.00    +0.000 A 
ATOM     12  C   UNL     1       5.776   5.838  16.389  0.00  0.00    +0.000 A 
ATOM     13  C   UNL     1       5.124   4.719  15.804  0.00  0.00    +0.000 A 
ATOM     14  C   UNL     1       5.677   4.279  14.556  0.00  0.00    +0.000 A 
ATOM     15  C   UNL     1       4.983   3.519  13.573  0.00  0.00    +0.000 A 
ENDROOT
BRANCH   1  17
ATOM     16  C   UNL     1       3.603   3.382  10.925  0.00  0.00    +0.000 C 
ATOM     17  O   UNL     1       4.708   2.626  11.417  0.00  0.00    +0.000 OA
ENDBRANCH   1  17
BRANCH  13  18
ATOM     18  N   UNL     1       3.912   4.140  16.249  0.00  0.00    +0.000 N 
ATOM     19  H   UNL     1       3.281   4.022  15.456  0.00  0.00    +0.000 HD
BRANCH  18  20
ATOM     20  C   UNL     1       3.703   3.060  17.244  0.00  0.00    +0.000 C 
ATOM     21  C   UNL     1       2.259   2.807  17.667  0.00  0.00    +0.000 C 
ATOM     22  C   UNL     1       1.695   3.693  18.793  0.00  0.00    +0.000 C 
ATOM     23  N   UNL     1       2.609   4.260  19.794  0.00  0.00    +0.000 NA
ATOM     24  C   UNL     1       3.997   4.437  19.342  0.00  0.00    +0.000 C 
ATOM     25  C   UNL     1       4.547   3.305  18.491  0.00  0.00    +0.000 C 
BRANCH  23  26
ATOM     26  C   UNL     1       2.127   5.578  20.301  0.00  0.00    +0.000 C 
BRANCH  26  27
ATOM     27  C   UNL     1       2.212   6.803  19.365  0.00  0.00    +0.000 C 
BRANCH  27  28
ATOM     28  C   UNL     1       1.610   8.018  20.049  0.00  0.00    +0.000 A 
ATOM     29  C   UNL     1       1.173   7.947  21.384  0.00  0.00    +0.000 A 
ATOM     30  C   UNL     1       0.500   9.020  21.981  0.00  0.00    +0.000 A 
ATOM     31  C   UNL     1       0.239  10.187  21.255  0.00  0.00    +0.000 A 
ATOM     32  C   UNL     1      -0.554  11.312  21.854  0.00  0.00    +0.000 C 
ATOM     33  C   UNL     1       0.721  10.286  19.946  0.00  0.00    +0.000 A 
ATOM     34  C   UNL     1       1.395   9.213  19.348  0.00  0.00    +0.000 A 
ENDBRANCH  27  28
ENDBRANCH  26  27
ENDBRANCH  23  26
ENDBRANCH  18  20
ENDBRANCH  13  18
TORSDOF 6
ENDMDL
MODEL 3
REMARK VINA RESULT:      -7.6      3.813      7.809
REMARK  Name = 
REMARK  8 active torsions:
REMARK  status: ('A' for Active; 'I' for Inactive)
REMARK    1  A    between atoms: C_1  and  O_2
REMARK    2  A    between atoms: O_2  and  C_3
REMARK    3  A    between atoms: C_15  and  N_16
REMARK    4  A    between atoms: N_16  and  C_17
REMARK    5  A    between atoms: N_20  and  C_21
REMARK    6  A    between atoms: C_21  and  C_22
REMARK    7  A    between atoms: C_22  and  C_23
REMARK    8  A    between atoms: C_26  and  C_27
REMARK                            x       y       z     vdW  Elec       q    Type
REMARK                         _______ _______ _______ _____ _____    ______ ____
ROOT
ATOM      1  C   UNL     1       1.630   9.646  18.534  0.00  0.00    +0.000 A 
ATOM      2  C   UNL     1       0.968   9.647  19.751  0.00  0.00    +0.000 A 
ATOM      3  C   UNL     1       1.133   8.569  20.612  0.00  0.00    +0.000 A 
ATOM      4  C   UNL     1       1.875   7.457  20.262  0.00  0.00    +0.000 A 
ATOM      5  N   UNL     1       1.849   6.451  21.128  0.00  0.00    +0.000 NA
ATOM      6  C   UNL     1       2.184   5.245  20.681  0.00  0.00    +0.000 A 
ATOM      7  C   UNL     1       1.857   4.198  21.524  0.00  0.00    +0.000 A 
ATOM      8  C   UNL     1       1.908   2.888  21.073  0.00  0.00    +0.000 A 
ATOM      9 CL   UNL     1       1.400   1.604  22.095  0.00  0.00    +0.000 Cl
ATOM     10  C   UNL     1       2.284   2.626  19.768  0.00  0.00    +0.000 A 
ATOM     11  C   UNL     1       2.692   3.680  18.950  0.00  0.00    +0.000 A 
ATOM     12  C   UNL     1       2.731   5.023  19.389  0.00  0.00    +0.000 A 
ATOM     13  C   UNL     1       3.150   6.156  18.641  0.00  0.00    +0.000 A 
ATOM     14  C   UNL     1       2.524   7.393  19.012  0.00  0.00    +0.000 A 
ATOM     15  C   UNL     1       2.413   8.538  18.175  0.00  0.00    +0.000 A 
ENDROOT
BRANCH   1  17
ATOM     16  C   UNL     1       2.252  11.830  17.870  0.00  0.00    +0.000 C 
ATOM     17  O   UNL     1       1.526  10.635  17.592  0.00  0.00    +0.000 OA
ENDBRANCH   1  17
BRANCH  13  18
ATOM     18  N   UNL     1       3.971   6.132  17.490  0.00  0.00    +0.000 N 
ATOM     19  H   UNL     1       4.182   7.088  17.203  0.00  0.00    +0.000 HD
BRANCH  18  20
ATOM     20  C   UNL     1       5.105   5.231  17.170  0.00  0.00    +0.000 C 
ATOM     21  C   UNL     1       5.957   4.777  18.351  0.00  0.00    +0.000 C 
ATOM     22  C   UNL     1       7.085   5.723  18.804  0.00  0.00    +0.000 C 
ATOM     23  N   UNL     1       7.701   6.633  17.828  0.00  0.00    +0.000 NA
ATOM     24  C   UNL     1       6.847   6.996  16.687  0.00  0.00    +0.000 C 
ATOM     25  C   UNL     1       6.014   5.861  16.118  0.00  0.00    +0.000 C 
BRANCH  23  26
ATOM     26  C   UNL     1       8.166   7.898  18.466  0.00  0.00    +0.000 C 
BRANCH  26  27
ATOM     27  C   UNL     1       7.999   9.221  17.686  0.00  0.00    +0.000 C 
BRANCH  27  28
ATOM     28  C   UNL     1       8.774  10.329  18.378  0.00  0.00    +0.000 A 
ATOM     29  C   UNL     1       9.392  10.105  19.621  0.00  0.00    +0.000 A 
ATOM     30  C   UNL     1       9.995  11.154  20.326  0.00  0.00    +0.000 A 
ATOM     31  C   UNL     1       9.988  12.454  19.810  0.00  0.00    +0.000 A 
ATOM     32  C   UNL     1      10.557  13.603  20.591  0.00  0.00    +0.000 C 
ATOM     33  C   UNL     1       9.425  12.673  18.548  0.00  0.00    +0.000 A 
ATOM     34  C   UNL     1       8.821  11.624  17.842  0.00  0.00    +0.000 A 
ENDBRANCH  27  28
ENDBRANCH  26  27
ENDBRANCH  23  26
ENDBRANCH  18  20
ENDBRANCH  13  18
TORSDOF 6
ENDMDL
MODEL 4
REMARK VINA RESULT:      -7.5      0.670      1.166
REMARK  Name = 
REMARK  8 active torsions:
REMARK  status: ('A' for Active; 'I' for Inactive)
REMARK    1  A    between atoms: C_1  and  O_2
REMARK    2  A    between atoms: O_2  and  C_3
REMARK    3  A    between atoms: C_15  and  N_16
REMARK    4  A    between atoms: N_16  and  C_17
REMARK    5  A    between atoms: N_20  and  C_21
REMARK    6  A    between atoms: C_21  and  C_22
REMARK    7  A    between atoms: C_22  and  C_23
REMARK    8  A    between atoms: C_26  and  C_27
REMARK                            x       y       z     vdW  Elec       q    Type
REMARK                         _______ _______ _______ _____ _____    ______ ____
ROOT
ATOM      1  C   UNL     1       5.320   3.309  12.330  0.00  0.00    +0.000 A 
ATOM      2  C   UNL     1       6.560   3.812  11.972  0.00  0.00    +0.000 A 
ATOM      3  C   UNL     1       7.335   4.448  12.934  0.00  0.00    +0.000 A 
ATOM      4  C   UNL     1       6.876   4.666  14.220  0.00  0.00    +0.000 A 
ATOM      5  N   UNL     1       7.670   5.392  14.999  0.00  0.00    +0.000 NA
ATOM      6  C   UNL     1       7.124   5.968  16.065  0.00  0.00    +0.000 A 
ATOM      7  C   UNL     1       7.904   6.941  16.666  0.00  0.00    +0.000 A 
ATOM      8  C   UNL     1       7.360   7.795  17.612  0.00  0.00    +0.000 A 
ATOM      9 CL   UNL     1       8.309   9.065  18.275  0.00  0.00    +0.000 Cl
ATOM     10  C   UNL     1       6.026   7.678  17.955  0.00  0.00    +0.000 A 
ATOM     11  C   UNL     1       5.268   6.643  17.407  0.00  0.00    +0.000 A 
ATOM     12  C   UNL     1       5.799   5.700  16.498  0.00  0.00    +0.000 A 
ATOM     13  C   UNL     1       5.116   4.604  15.905  0.00  0.00    +0.000 A 
ATOM     14  C   UNL     1       5.599   4.216  14.611  0.00  0.00    +0.000 A 
ATOM     15  C   UNL     1       4.851   3.495  13.639  0.00  0.00    +0.000 A 
ENDROOT
BRANCH   1  17
ATOM     16  C   UNL     1       3.677   3.556  10.645  0.00  0.00    +0.000 C 
ATOM     17  O   UNL     1       4.455   2.689  11.467  0.00  0.00    +0.000 OA
ENDBRANCH   1  17
BRANCH  13  18
ATOM     18  N   UNL     1       3.932   4.003  16.393  0.00  0.00    +0.000 N 
ATOM     19  H   UNL     1       3.181   4.132  15.715  0.00  0.00    +0.000 HD
BRANCH  18  20
ATOM     20  C   UNL     1       3.766   2.717  17.114  0.00  0.00    +0.000 C 
ATOM     21  C   UNL     1       2.372   2.430  17.664  0.00  0.00    +0.000 C 
ATOM     22  C   UNL     1       2.027   3.028  19.041  0.00  0.00    +0.000 C 
ATOM     23  N   UNL     1       3.102   3.282  20.009  0.00  0.00    +0.000 NA
ATOM     24  C   UNL     1       4.432   3.505  19.421  0.00  0.00    +0.000 C 
ATOM     25  C   UNL     1       4.779   2.601  18.250  0.00  0.00    +0.000 C 
BRANCH  23  26
ATOM     26  C   UNL     1       2.795   4.449  20.886  0.00  0.00    +0.000 C 
BRANCH  26  27
ATOM     27  C   UNL     1       1.440   5.168  20.708  0.00  0.00    +0.000 C 
BRANCH  27  28
ATOM     28  C   UNL     1       1.656   6.526  20.063  0.00  0.00    +0.000 A 
ATOM     29  C   UNL     1       1.296   7.706  20.739  0.00  0.00    +0.000 A 
ATOM     30  C   UNL     1       1.370   8.952  20.103  0.00  0.00    +0.000 A 
ATOM     31  C   UNL     1       1.797   9.047  18.775  0.00  0.00    +0.000 A 
ATOM     32  C   UNL     1       1.803  10.364  18.054  0.00  0.00    +0.000 C 
ATOM     33  C   UNL     1       2.210   7.884  18.116  0.00  0.00    +0.000 A 
ATOM     34  C   UNL     1       2.137   6.638  18.751  0.00  0.00    +0.000 A 
ENDBRANCH  27  28
ENDBRANCH  26  27
ENDBRANCH  23  26
ENDBRANCH  18  20
ENDBRANCH  13  18
TORSDOF 6
ENDMDL
MODEL 5
REMARK VINA RESULT:      -7.1      6.000     11.208
REMARK  Name = 
REMARK  8 active torsions:
REMARK  status: ('A' for Active; 'I' for Inactive)
REMARK    1  A    between atoms: C_1  and  O_2
REMARK    2  A    between atoms: O_2  and  C_3
REMARK    3  A    between atoms: C_15  and  N_16
REMARK    4  A    between atoms: N_16  and  C_17
REMARK    5  A    between atoms: N_20  and  C_21
REMARK    6  A    between atoms: C_21  and  C_22
REMARK    7  A    between atoms: C_22  and  C_23
REMARK    8  A    between atoms: C_26  and  C_27
REMARK                            x       y       z     vdW  Elec       q    Type
REMARK                         _______ _______ _______ _____ _____    ______ ____
ROOT
ATOM      1  C   UNL     1      -3.191  10.870  17.011  0.00  0.00    +0.000 A 
ATOM      2  C   UNL     1      -4.563  10.702  16.922  0.00  0.00    +0.000 A 
ATOM      3  C   UNL     1      -5.383  11.335  17.848  0.00  0.00    +0.000 A 
ATOM      4  C   UNL     1      -4.871  12.064  18.905  0.00  0.00    +0.000 A 
ATOM      5  N   UNL     1      -5.763  12.512  19.781  0.00  0.00    +0.000 NA
ATOM      6  C   UNL     1      -5.322  12.846  20.990  0.00  0.00    +0.000 A 
ATOM      7  C   UNL     1      -6.310  13.016  21.945  0.00  0.00    +0.000 A 
ATOM      8  C   UNL     1      -5.983  13.104  23.289  0.00  0.00    +0.000 A 
ATOM      9 CL   UNL     1      -7.222  13.208  24.473  0.00  0.00    +0.000 Cl
ATOM     10  C   UNL     1      -4.659  13.017  23.679  0.00  0.00    +0.000 A 
ATOM     11  C   UNL     1      -3.663  12.931  22.705  0.00  0.00    +0.000 A 
ATOM     12  C   UNL     1      -3.943  12.916  21.320  0.00  0.00    +0.000 A 
ATOM     13  C   UNL     1      -3.002  12.852  20.258  0.00  0.00    +0.000 A 
ATOM     14  C   UNL     1      -3.478  12.217  19.062  0.00  0.00    +0.000 A 
ATOM     15  C   UNL     1      -2.655  11.633  18.060  0.00  0.00    +0.000 A 
ENDROOT
BRANCH   1  17
ATOM     16  C   UNL     1      -2.740  10.010  14.854  0.00  0.00    +0.000 C 
ATOM     17  O   UNL     1      -2.280  10.278  16.177  0.00  0.00    +0.000 OA
ENDBRANCH   1  17
BRANCH  13  18
ATOM     18  N   UNL     1      -1.632  13.192  20.342  0.00  0.00    +0.000 N 
ATOM     19  H   UNL     1      -1.520  14.194  20.181  0.00  0.00    +0.000 HD
BRANCH  18  20
ATOM     20  C   UNL     1      -0.604  12.702  21.293  0.00  0.00    +0.000 C 
ATOM     21  C   UNL     1       0.827  13.162  21.032  0.00  0.00    +0.000 C 
ATOM     22  C   UNL     1       1.650  12.346  20.017  0.00  0.00    +0.000 C 
ATOM     23  N   UNL     1       1.345  10.924  19.816  0.00  0.00    +0.000 NA
ATOM     24  C   UNL     1      -0.038  10.532  20.129  0.00  0.00    +0.000 C 
ATOM     25  C   UNL     1      -0.626  11.178  21.371  0.00  0.00    +0.000 C 
BRANCH  23  26
ATOM     26  C   UNL     1       1.633  10.487  18.419  0.00  0.00    +0.000 C 
BRANCH  26  27
ATOM     27  C   UNL     1       1.042   9.147  17.929  0.00  0.00    +0.000 C 
BRANCH  27  28
ATOM     28  C   UNL     1       2.069   8.040  18.088  0.00  0.00    +0.000 A 
ATOM     29  C   UNL     1       1.866   7.000  19.014  0.00  0.00    +0.000 A 
ATOM     30  C   UNL     1       2.864   6.049  19.261  0.00  0.00    +0.000 A 
ATOM     31  C   UNL     1       4.092   6.120  18.596  0.00  0.00    +0.000 A 
ATOM     32  C   UNL     1       5.201   5.159  18.911  0.00  0.00    +0.000 C 
ATOM     33  C   UNL     1       4.279   7.118  17.634  0.00  0.00    +0.000 A 
ATOM     34  C   UNL     1       3.282   8.069  17.386  0.00  0.00    +0.000 A 
ENDBRANCH  27  28
ENDBRANCH  26  27
ENDBRANCH  23  26
ENDBRANCH  18  20
ENDBRANCH  13  18
TORSDOF 6
ENDMDL
MODEL 6
REMARK VINA RESULT:      -7.0      6.287     11.843
REMARK  Name = 
REMARK  8 active torsions:
REMARK  status: ('A' for Active; 'I' for Inactive)
REMARK    1  A    between atoms: C_1  and  O_2
REMARK    2  A    between atoms: O_2  and  C_3
REMARK    3  A    between atoms: C_15  and  N_16
REMARK    4  A    between atoms: N_16  and  C_17
REMARK    5  A    between atoms: N_20  and  C_21
REMARK    6  A    between atoms: C_21  and  C_22
REMARK    7  A    between atoms: C_22  and  C_23
REMARK    8  A    between atoms: C_26  and  C_27
REMARK                            x       y       z     vdW  Elec       q    Type
REMARK                         _______ _______ _______ _____ _____    ______ ____
ROOT
ATOM      1  C   UNL     1      -5.408  14.665  21.268  0.00  0.00    +0.000 A 
ATOM      2  C   UNL     1      -6.513  14.622  20.434  0.00  0.00    +0.000 A 
ATOM      3  C   UNL     1      -6.561  13.671  19.422  0.00  0.00    +0.000 A 
ATOM      4  C   UNL     1      -5.505  12.815  19.169  0.00  0.00    +0.000 A 
ATOM      5  N   UNL     1      -5.635  12.042  18.098  0.00  0.00    +0.000 NA
ATOM      6  C   UNL     1      -4.528  11.519  17.579  0.00  0.00    +0.000 A 
ATOM      7  C   UNL     1      -4.676  10.980  16.313  0.00  0.00    +0.000 A 
ATOM      8  C   UNL     1      -3.564  10.645  15.556  0.00  0.00    +0.000 A 
ATOM      9 CL   UNL     1      -3.756  10.074  13.947  0.00  0.00    +0.000 Cl
ATOM     10  C   UNL     1      -2.297  10.856  16.068  0.00  0.00    +0.000 A 
ATOM     11  C   UNL     1      -2.158  11.322  17.376  0.00  0.00    +0.000 A 
ATOM     12  C   UNL     1      -3.261  11.604  18.213  0.00  0.00    +0.000 A 
ATOM     13  C   UNL     1      -3.220  12.059  19.558  0.00  0.00    +0.000 A 
ATOM     14  C   UNL     1      -4.340  12.861  19.961  0.00  0.00    +0.000 A 
ATOM     15  C   UNL     1      -4.339  13.783  21.044  0.00  0.00    +0.000 A 
ENDROOT
BRANCH   1  17
ATOM     16  C   UNL     1      -4.341  16.647  21.997  0.00  0.00    +0.000 C 
ATOM     17  O   UNL     1      -5.233  15.571  22.280  0.00  0.00    +0.000 OA
ENDBRANCH   1  17
BRANCH  13  18
ATOM     18  N   UNL     1      -2.122  11.937  20.442  0.00  0.00    +0.000 N 
ATOM     19  H   UNL     1      -1.734  10.995  20.373  0.00  0.00    +0.000 HD
BRANCH  18  20
ATOM     20  C   UNL     1      -1.053  12.919  20.745  0.00  0.00    +0.000 C 
ATOM     21  C   UNL     1      -0.504  13.703  19.557  0.00  0.00    +0.000 C 
ATOM     22  C   UNL     1       0.610  13.032  18.731  0.00  0.00    +0.000 C 
ATOM     23  N   UNL     1       1.501  12.058  19.376  0.00  0.00    +0.000 NA
ATOM     24  C   UNL     1       0.933  11.369  20.544  0.00  0.00    +0.000 C 
ATOM     25  C   UNL     1       0.108  12.245  21.471  0.00  0.00    +0.000 C 
BRANCH  23  26
ATOM     26  C   UNL     1       1.968  11.014  18.419  0.00  0.00    +0.000 C 
BRANCH  26  27
ATOM     27  C   UNL     1       1.111   9.741  18.241  0.00  0.00    +0.000 C 
BRANCH  27  28
ATOM     28  C   UNL     1       1.936   8.512  18.580  0.00  0.00    +0.000 A 
ATOM     29  C   UNL     1       2.837   7.971  17.645  0.00  0.00    +0.000 A 
ATOM     30  C   UNL     1       3.503   6.766  17.899  0.00  0.00    +0.000 A 
ATOM     31  C   UNL     1       3.278   6.067  19.090  0.00  0.00    +0.000 A 
ATOM     32  C   UNL     1       3.920   4.733  19.340  0.00  0.00    +0.000 C 
ATOM     33  C   UNL     1       2.426   6.628  20.048  0.00  0.00    +0.000 A 
ATOM     34  C   UNL     1       1.760   7.834  19.794  0.00  0.00    +0.000 A 
ENDBRANCH  27  28
ENDBRANCH  26  27
ENDBRANCH  23  26
ENDBRANCH  18  20
ENDBRANCH  13  18
TORSDOF 6
ENDMDL
MODEL 7
REMARK VINA RESULT:      -7.0      6.004     10.701
REMARK  Name = 
REMARK  8 active torsions:
REMARK  status: ('A' for Active; 'I' for Inactive)
REMARK    1  A    between atoms: C_1  and  O_2
REMARK    2  A    between atoms: O_2  and  C_3
REMARK    3  A    between atoms: C_15  and  N_16
REMARK    4  A    between atoms: N_16  and  C_17
REMARK    5  A    between atoms: N_20  and  C_21
REMARK    6  A    between atoms: C_21  and  C_22
REMARK    7  A    between atoms: C_22  and  C_23
REMARK    8  A    between atoms: C_26  and  C_27
REMARK                            x       y       z     vdW  Elec       q    Type
REMARK                         _______ _______ _______ _____ _____    ______ ____
ROOT
ATOM      1  C   UNL     1      -1.425  11.865  22.747  0.00  0.00    +0.000 A 
ATOM      2  C   UNL     1      -1.367  10.646  23.403  0.00  0.00    +0.000 A 
ATOM      3  C   UNL     1      -0.447   9.693  22.981  0.00  0.00    +0.000 A 
ATOM      4  C   UNL     1       0.360   9.891  21.876  0.00  0.00    +0.000 A 
ATOM      5  N   UNL     1       1.103   8.853  21.513  0.00  0.00    +0.000 NA
ATOM      6  C   UNL     1       1.567   8.834  20.268  0.00  0.00    +0.000 A 
ATOM      7  C   UNL     1       2.071   7.615  19.851  0.00  0.00    +0.000 A 
ATOM      8  C   UNL     1       2.340   7.384  18.510  0.00  0.00    +0.000 A 
ATOM      9 CL   UNL     1       2.866   5.834  17.990  0.00  0.00    +0.000 Cl
ATOM     10  C   UNL     1       2.098   8.380  17.582  0.00  0.00    +0.000 A 
ATOM     11  C   UNL     1       1.668   9.633  18.020  0.00  0.00    +0.000 A 
ATOM     12  C   UNL     1       1.455   9.939  19.383  0.00  0.00    +0.000 A 
ATOM     13  C   UNL     1       1.042  11.185  19.926  0.00  0.00    +0.000 A 
ATOM     14  C   UNL     1       0.296  11.097  21.148  0.00  0.00    +0.000 A 
ATOM     15  C   UNL     1      -0.591  12.094  21.641  0.00  0.00    +0.000 A 
ENDROOT
BRANCH   1  17
ATOM     16  C   UNL     1      -3.644  12.672  22.604  0.00  0.00    +0.000 C 
ATOM     17  O   UNL     1      -2.304  12.869  23.051  0.00  0.00    +0.000 OA
ENDBRANCH   1  17
BRANCH  13  18
ATOM     18  N   UNL     1       1.151  12.444  19.290  0.00  0.00    +0.000 N 
ATOM     19  H   UNL     1       0.557  12.458  18.460  0.00  0.00    +0.000 HD
BRANCH  18  20
ATOM     20  C   UNL     1       1.225  13.795  19.898  0.00  0.00    +0.000 C 
ATOM     21  C   UNL     1       1.175  14.971  18.929  0.00  0.00    +0.000 C 
ATOM     22  C   UNL     1       2.506  15.400  18.280  0.00  0.00    +0.000 C 
ATOM     23  N   UNL     1       3.768  15.153  18.990  0.00  0.00    +0.000 NA
ATOM     24  C   UNL     1       3.739  14.036  19.945  0.00  0.00    +0.000 C 
ATOM     25  C   UNL     1       2.469  13.925  20.771  0.00  0.00    +0.000 C 
BRANCH  23  26
ATOM     26  C   UNL     1       4.897  14.912  18.046  0.00  0.00    +0.000 C 
BRANCH  26  27
ATOM     27  C   UNL     1       6.219  15.680  18.266  0.00  0.00    +0.000 C 
BRANCH  27  28
ATOM     28  C   UNL     1       7.400  14.769  17.980  0.00  0.00    +0.000 A 
ATOM     29  C   UNL     1       7.197  13.450  17.536  0.00  0.00    +0.000 A 
ATOM     30  C   UNL     1       8.272  12.563  17.395  0.00  0.00    +0.000 A 
ATOM     31  C   UNL     1       9.574  12.971  17.704  0.00  0.00    +0.000 A 
ATOM     32  C   UNL     1      10.725  12.009  17.638  0.00  0.00    +0.000 C 
ATOM     33  C   UNL     1       9.789  14.298  18.091  0.00  0.00    +0.000 A 
ATOM     34  C   UNL     1       8.714  15.185  18.232  0.00  0.00    +0.000 A 
ENDBRANCH  27  28
ENDBRANCH  26  27
ENDBRANCH  23  26
ENDBRANCH  18  20
ENDBRANCH  13  18
TORSDOF 6
ENDMDL
MODEL 8
REMARK VINA RESULT:      -6.9      6.356     11.684
REMARK  Name = 
REMARK  8 active torsions:
REMARK  status: ('A' for Active; 'I' for Inactive)
REMARK    1  A    between atoms: C_1  and  O_2
REMARK    2  A    between atoms: O_2  and  C_3
REMARK    3  A    between atoms: C_15  and  N_16
REMARK    4  A    between atoms: N_16  and  C_17
REMARK    5  A    between atoms: N_20  and  C_21
REMARK    6  A    between atoms: C_21  and  C_22
REMARK    7  A    between atoms: C_22  and  C_23
REMARK    8  A    between atoms: C_26  and  C_27
REMARK                            x       y       z     vdW  Elec       q    Type
REMARK                         _______ _______ _______ _____ _____    ______ ____
ROOT
ATOM      1  C   UNL     1      -4.036  11.125  17.165  0.00  0.00    +0.000 A 
ATOM      2  C   UNL     1      -5.300  11.615  16.883  0.00  0.00    +0.000 A 
ATOM      3  C   UNL     1      -5.913  12.469  17.792  0.00  0.00    +0.000 A 
ATOM      4  C   UNL     1      -5.335  12.784  19.008  0.00  0.00    +0.000 A 
ATOM      5  N   UNL     1      -6.082  13.512  19.829  0.00  0.00    +0.000 NA
ATOM      6  C   UNL     1      -5.768  13.498  21.121  0.00  0.00    +0.000 A 
ATOM      7  C   UNL     1      -6.737  14.017  21.962  0.00  0.00    +0.000 A 
ATOM      8  C   UNL     1      -6.655  13.825  23.333  0.00  0.00    +0.000 A 
ATOM      9 CL   UNL     1      -7.916  14.382  24.358  0.00  0.00    +0.000 Cl
ATOM     10  C   UNL     1      -5.600  13.105  23.863  0.00  0.00    +0.000 A 
ATOM     11  C   UNL     1      -4.585  12.657  23.017  0.00  0.00    +0.000 A 
ATOM     12  C   UNL     1      -4.585  12.895  21.624  0.00  0.00    +0.000 A 
ATOM     13  C   UNL     1      -3.591  12.500  20.688  0.00  0.00    +0.000 A 
ATOM     14  C   UNL     1      -4.071  12.265  19.357  0.00  0.00    +0.000 A 
ATOM     15  C   UNL     1      -3.421  11.459  18.382  0.00  0.00    +0.000 A 
ENDROOT
BRANCH   1  17
ATOM     16  C   UNL     1      -2.057   9.868  16.842  0.00  0.00    +0.000 C 
ATOM     17  O   UNL     1      -3.343  10.257  16.364  0.00  0.00    +0.000 OA
ENDBRANCH   1  17
BRANCH  13  18
ATOM     18  N   UNL     1      -2.252  12.164  20.994  0.00  0.00    +0.000 N 
ATOM     19  H   UNL     1      -2.098  11.173  20.802  0.00  0.00    +0.000 HD
BRANCH  18  20
ATOM     20  C   UNL     1      -1.013  12.940  20.743  0.00  0.00    +0.000 C 
ATOM     21  C   UNL     1      -0.579  13.059  19.285  0.00  0.00    +0.000 C 
ATOM     22  C   UNL     1       0.257  11.902  18.708  0.00  0.00    +0.000 C 
ATOM     23  N   UNL     1       1.098  11.098  19.606  0.00  0.00    +0.000 NA
ATOM     24  C   UNL     1       0.654  11.060  21.007  0.00  0.00    +0.000 C 
ATOM     25  C   UNL     1       0.148  12.381  21.560  0.00  0.00    +0.000 C 
BRANCH  23  26
ATOM     26  C   UNL     1       1.225   9.689  19.133  0.00  0.00    +0.000 C 
BRANCH  26  27
ATOM     27  C   UNL     1       2.068   9.409  17.869  0.00  0.00    +0.000 C 
BRANCH  27  28
ATOM     28  C   UNL     1       2.637   8.003  17.929  0.00  0.00    +0.000 A 
ATOM     29  C   UNL     1       3.851   7.692  17.290  0.00  0.00    +0.000 A 
ATOM     30  C   UNL     1       4.317   6.373  17.229  0.00  0.00    +0.000 A 
ATOM     31  C   UNL     1       3.577   5.331  17.797  0.00  0.00    +0.000 A 
ATOM     32  C   UNL     1       4.022   3.903  17.668  0.00  0.00    +0.000 C 
ATOM     33  C   UNL     1       2.398   5.641  18.483  0.00  0.00    +0.000 A 
ATOM     34  C   UNL     1       1.931   6.960  18.545  0.00  0.00    +0.000 A 
ENDBRANCH  27  28
ENDBRANCH  26  27
ENDBRANCH  23  26
ENDBRANCH  18  20
ENDBRANCH  13  18
TORSDOF 6
ENDMDL
MODEL 9
REMARK VINA RESULT:      -6.9      8.045     11.405
REMARK  Name = 
REMARK  8 active torsions:
REMARK  status: ('A' for Active; 'I' for Inactive)
REMARK    1  A    between atoms: C_1  and  O_2
REMARK    2  A    between atoms: O_2  and  C_3
REMARK    3  A    between atoms: C_15  and  N_16
REMARK    4  A    between atoms: N_16  and  C_17
REMARK    5  A    between atoms: N_20  and  C_21
REMARK    6  A    between atoms: C_21  and  C_22
REMARK    7  A    between atoms: C_22  and  C_23
REMARK    8  A    between atoms: C_26  and  C_27
REMARK                            x       y       z     vdW  Elec       q    Type
REMARK                         _______ _______ _______ _____ _____    ______ ____
ROOT
ATOM      1  C   UNL     1      -0.230  10.514  21.860  0.00  0.00    +0.000 A 
ATOM      2  C   UNL     1       0.412   9.586  21.058  0.00  0.00    +0.000 A 
ATOM      3  C   UNL     1       0.180   9.599  19.688  0.00  0.00    +0.000 A 
ATOM      4  C   UNL     1      -0.733  10.459  19.107  0.00  0.00    +0.000 A 
ATOM      5  N   UNL     1      -0.945  10.282  17.808  0.00  0.00    +0.000 NA
ATOM      6  C   UNL     1      -2.068  10.775  17.296  0.00  0.00    +0.000 A 
ATOM      7  C   UNL     1      -2.384  10.313  16.030  0.00  0.00    +0.000 A 
ATOM      8  C   UNL     1      -3.642  10.535  15.492  0.00  0.00    +0.000 A 
ATOM      9 CL   UNL     1      -4.058   9.868  13.965  0.00  0.00    +0.000 Cl
ATOM     10  C   UNL     1      -4.591  11.220  16.229  0.00  0.00    +0.000 A 
ATOM     11  C   UNL     1      -4.239  11.754  17.469  0.00  0.00    +0.000 A 
ATOM     12  C   UNL     1      -2.947  11.620  18.024  0.00  0.00    +0.000 A 
ATOM     13  C   UNL     1      -2.489  12.144  19.263  0.00  0.00    +0.000 A 
ATOM     14  C   UNL     1      -1.447  11.385  19.894  0.00  0.00    +0.000 A 
ATOM     15  C   UNL     1      -1.138  11.415  21.283  0.00  0.00    +0.000 A 
ENDROOT
BRANCH   1  17
ATOM     16  C   UNL     1       0.281   9.371  23.867  0.00  0.00    +0.000 C 
ATOM     17  O   UNL     1      -0.104  10.583  23.222  0.00  0.00    +0.000 OA
ENDBRANCH   1  17
BRANCH  13  18
ATOM     18  N   UNL     1      -3.077  13.212  19.979  0.00  0.00    +0.000 N 
ATOM     19  H   UNL     1      -2.899  14.089  19.489  0.00  0.00    +0.000 HD
BRANCH  18  20
ATOM     20  C   UNL     1      -4.386  13.263  20.674  0.00  0.00    +0.000 C 
ATOM     21  C   UNL     1      -5.075  14.623  20.713  0.00  0.00    +0.000 C 
ATOM     22  C   UNL     1      -4.656  15.587  21.840  0.00  0.00    +0.000 C 
ATOM     23  N   UNL     1      -4.151  15.041  23.107  0.00  0.00    +0.000 NA
ATOM     24  C   UNL     1      -3.542  13.706  23.013  0.00  0.00    +0.000 C 
ATOM     25  C   UNL     1      -4.262  12.731  22.099  0.00  0.00    +0.000 C 
BRANCH  23  26
ATOM     26  C   UNL     1      -3.155  15.950  23.745  0.00  0.00    +0.000 C 
BRANCH  26  27
ATOM     27  C   UNL     1      -2.374  16.934  22.846  0.00  0.00    +0.000 C 
BRANCH  27  28
ATOM     28  C   UNL     1      -1.296  16.189  22.079  0.00  0.00    +0.000 A 
ATOM     29  C   UNL     1      -1.267  16.214  20.673  0.00  0.00    +0.000 A 
ATOM     30  C   UNL     1      -0.358  15.427  19.956  0.00  0.00    +0.000 A 
ATOM     31  C   UNL     1       0.538  14.589  20.626  0.00  0.00    +0.000 A 
ATOM     32  C   UNL     1       1.462  13.677  19.870  0.00  0.00    +0.000 C 
ATOM     33  C   UNL     1       0.554  14.602  22.024  0.00  0.00    +0.000 A 
ATOM     34  C   UNL     1      -0.355  15.389  22.743  0.00  0.00    +0.000 A 
ENDBRANCH  27  28
ENDBRANCH  26  27
ENDBRANCH  23  26
ENDBRANCH  18  20
ENDBRANCH  13  18
TORSDOF 6
ENDMDL
