MODEL 1
REMARK VINA RESULT:      -7.4      0.000      0.000
REMARK  Name = 
REMARK  7 active torsions:
REMARK  status: ('A' for Active; 'I' for Inactive)
REMARK    1  A    between atoms: C_1  and  C_2
REMARK    2  A    between atoms: N_4  and  C_5
REMARK    3  A    between atoms: C_5  and  C_6
REMARK    4  A    between atoms: N_8  and  C_9
REMARK    5  A    between atoms: C_12  and  S_13
REMARK    6  A    between atoms: S_13  and  N_14
REMARK    7  A    between atoms: C_20  and  C_21
REMARK                            x       y       z     vdW  Elec       q    Type
REMARK                         _______ _______ _______ _____ _____    ______ ____
ROOT
ATOM      1  C   UNL     1       2.679   5.213  18.135  0.00  0.00    +0.000 C 
ATOM      2  O   UNL     1       1.493   4.918  18.013  0.00  0.00    +0.000 OA
ATOM      3  N   UNL     1       3.161   6.487  18.396  0.00  0.00    +0.000 N 
ATOM      4  H   UNL     1       4.138   6.650  18.177  0.00  0.00    +0.000 HD
ENDROOT
BRANCH   3   5
ATOM      5  C   UNL     1       2.357   7.573  18.772  0.00  0.00    +0.000 A 
ATOM      6  C   UNL     1       1.897   7.721  20.085  0.00  0.00    +0.000 A 
ATOM      7  C   UNL     1       1.101   8.813  20.434  0.00  0.00    +0.000 A 
ATOM      8  C   UNL     1       0.749   9.743  19.455  0.00  0.00    +0.000 A 
ATOM      9  C   UNL     1       1.196   9.598  18.138  0.00  0.00    +0.000 A 
ATOM     10  C   UNL     1       2.037   8.532  17.808  0.00  0.00    +0.000 A 
BRANCH   8  11
ATOM     11  S   UNL     1      -0.298  11.101  19.879  0.00  0.00    +0.000 S 
ATOM     12  O   UNL     1      -0.754  10.943  21.240  0.00  0.00    +0.000 OA
ATOM     13  O   UNL     1       0.288  12.331  19.396  0.00  0.00    +0.000 OA
BRANCH  11  14
ATOM     14  N   UNL     1      -1.630  10.813  18.907  0.00  0.00    +0.000 NA
ATOM     15  H   UNL     1      -2.253  10.143  19.358  0.00  0.00    +0.000 HD
ATOM     16  H   UNL     1      -2.075  11.693  18.656  0.00  0.00    +0.000 HD
ENDBRANCH  11  14
ENDBRANCH   8  11
ENDBRANCH   3   5
BRANCH   1  17
ATOM     17  C   UNL     1       3.781   4.168  17.935  0.00  0.00    +0.000 C 
BRANCH  17  21
ATOM     18  C   UNL     1       7.441   6.622  17.644  0.00  0.00    +0.000 C 
ATOM     19  C   UNL     1       7.455   5.098  17.514  0.00  0.00    +0.000 C 
ATOM     20  C   UNL     1       6.202   4.445  18.127  0.00  0.00    +0.000 C 
ATOM     21  N   UNL     1       4.989   4.777  17.336  0.00  0.00    +0.000 NA
ATOM     22  C   UNL     1       5.208   4.260  15.967  0.00  0.00    +0.000 C 
ATOM     23  C   UNL     1       6.464   4.905  15.339  0.00  0.00    +0.000 C 
ATOM     24  C   UNL     1       6.747   4.320  13.962  0.00  0.00    +0.000 C 
ATOM     25  O   UNL     1       7.632   4.684  16.149  0.00  0.00    +0.000 OA
ENDBRANCH  17  21
ENDBRANCH   1  17
TORSDOF 5
ENDMDL
MODEL 2
REMARK VINA RESULT:      -7.3      0.780      1.388
REMARK  Name = 
REMARK  7 active torsions:
REMARK  status: ('A' for Active; 'I' for Inactive)
REMARK    1  A    between atoms: C_1  and  C_2
REMARK    2  A    between atoms: N_4  and  C_5
REMARK    3  A    between atoms: C_5  and  C_6
REMARK    4  A    between atoms: N_8  and  C_9
REMARK    5  A    between atoms: C_12  and  S_13
REMARK    6  A    between atoms: S_13  and  N_14
REMARK    7  A    between atoms: C_20  and  C_21
REMARK                            x       y       z     vdW  Elec       q    Type
REMARK                         _______ _______ _______ _____ _____    ______ ____
ROOT
ATOM      1  C   UNL     1       2.677   5.343  18.128  0.00  0.00    +0.000 C 
ATOM      2  O   UNL     1       1.514   5.078  17.833  0.00  0.00    +0.000 OA
ATOM      3  N   UNL     1       3.136   6.593  18.515  0.00  0.00    +0.000 N 
ATOM      4  H   UNL     1       4.136   6.746  18.439  0.00  0.00    +0.000 HD
ENDROOT
BRANCH   3   5
ATOM      5  C   UNL     1       2.304   7.676  18.832  0.00  0.00    +0.000 A 
ATOM      6  C   UNL     1       1.922   8.612  17.863  0.00  0.00    +0.000 A 
ATOM      7  C   UNL     1       1.091   9.679  18.204  0.00  0.00    +0.000 A 
ATOM      8  C   UNL     1       0.663   9.818  19.525  0.00  0.00    +0.000 A 
ATOM      9  C   UNL     1       1.046   8.893  20.501  0.00  0.00    +0.000 A 
ATOM     10  C   UNL     1       1.835   7.797  20.142  0.00  0.00    +0.000 A 
BRANCH   8  11
ATOM     11  S   UNL     1      -0.351  11.194  19.974  0.00  0.00    +0.000 S 
ATOM     12  O   UNL     1       0.447  12.397  19.958  0.00  0.00    +0.000 OA
ATOM     13  O   UNL     1      -1.623  11.098  19.292  0.00  0.00    +0.000 OA
BRANCH  11  14
ATOM     14  N   UNL     1      -0.666  10.866  21.584  0.00  0.00    +0.000 NA
ATOM     15  H   UNL     1      -1.671  10.890  21.755  0.00  0.00    +0.000 HD
ATOM     16  H   UNL     1      -0.217   9.995  21.857  0.00  0.00    +0.000 HD
ENDBRANCH  11  14
ENDBRANCH   8  11
ENDBRANCH   3   5
BRANCH   1  17
ATOM     17  C   UNL     1       3.781   4.286  18.027  0.00  0.00    +0.000 C 
BRANCH  17  21
ATOM     18  C   UNL     1       7.541   6.589  17.765  0.00  0.00    +0.000 C 
ATOM     19  C   UNL     1       7.489   5.069  17.601  0.00  0.00    +0.000 C 
ATOM     20  C   UNL     1       6.213   4.456  18.208  0.00  0.00    +0.000 C 
ATOM     21  N   UNL     1       5.010   4.857  17.433  0.00  0.00    +0.000 NA
ATOM     22  C   UNL     1       5.198   4.362  16.052  0.00  0.00    +0.000 C 
ATOM     23  C   UNL     1       6.477   4.967  15.429  0.00  0.00    +0.000 C 
ATOM     24  C   UNL     1       6.727   4.401  14.038  0.00  0.00    +0.000 C 
ATOM     25  O   UNL     1       7.640   4.679  16.225  0.00  0.00    +0.000 OA
ENDBRANCH  17  21
ENDBRANCH   1  17
TORSDOF 5
ENDMDL
MODEL 3
REMARK VINA RESULT:      -7.3      0.281      1.069
REMARK  Name = 
REMARK  7 active torsions:
REMARK  status: ('A' for Active; 'I' for Inactive)
REMARK    1  A    between atoms: C_1  and  C_2
REMARK    2  A    between atoms: N_4  and  C_5
REMARK    3  A    between atoms: C_5  and  C_6
REMARK    4  A    between atoms: N_8  and  C_9
REMARK    5  A    between atoms: C_12  and  S_13
REMARK    6  A    between atoms: S_13  and  N_14
REMARK    7  A    between atoms: C_20  and  C_21
REMARK                            x       y       z     vdW  Elec       q    Type
REMARK                         _______ _______ _______ _____ _____    ______ ____
ROOT
ATOM      1  C   UNL     1       2.697   5.088  18.197  0.00  0.00    +0.000 C 
ATOM      2  O   UNL     1       1.521   4.747  18.296  0.00  0.00    +0.000 OA
ATOM      3  N   UNL     1       3.160   6.392  18.292  0.00  0.00    +0.000 N 
ATOM      4  H   UNL     1       4.078   6.571  17.901  0.00  0.00    +0.000 HD
ENDROOT
BRANCH   3   5
ATOM      5  C   UNL     1       2.383   7.475  18.729  0.00  0.00    +0.000 A 
ATOM      6  C   UNL     1       1.969   8.480  17.847  0.00  0.00    +0.000 A 
ATOM      7  C   UNL     1       1.195   9.546  18.306  0.00  0.00    +0.000 A 
ATOM      8  C   UNL     1       0.857   9.612  19.659  0.00  0.00    +0.000 A 
ATOM      9  C   UNL     1       1.274   8.617  20.549  0.00  0.00    +0.000 A 
ATOM     10  C   UNL     1       2.004   7.525  20.072  0.00  0.00    +0.000 A 
BRANCH   8  11
ATOM     11  S   UNL     1      -0.083  10.983  20.257  0.00  0.00    +0.000 S 
ATOM     12  O   UNL     1      -0.715  10.619  21.503  0.00  0.00    +0.000 OA
ATOM     13  O   UNL     1       0.687  12.198  20.105  0.00  0.00    +0.000 OA
BRANCH  11  14
ATOM     14  N   UNL     1      -1.309  11.070  19.122  0.00  0.00    +0.000 NA
ATOM     15  H   UNL     1      -2.122  11.539  19.522  0.00  0.00    +0.000 HD
ATOM     16  H   UNL     1      -0.962  11.495  18.265  0.00  0.00    +0.000 HD
ENDBRANCH  11  14
ENDBRANCH   8  11
ENDBRANCH   3   5
BRANCH   1  17
ATOM     17  C   UNL     1       3.794   4.067  17.879  0.00  0.00    +0.000 C 
BRANCH  17  21
ATOM     18  C   UNL     1       7.370   6.646  17.618  0.00  0.00    +0.000 C 
ATOM     19  C   UNL     1       7.433   5.126  17.458  0.00  0.00    +0.000 C 
ATOM     20  C   UNL     1       6.205   4.420  18.065  0.00  0.00    +0.000 C 
ATOM     21  N   UNL     1       4.978   4.727  17.286  0.00  0.00    +0.000 NA
ATOM     22  C   UNL     1       5.206   4.244  15.906  0.00  0.00    +0.000 C 
ATOM     23  C   UNL     1       6.437   4.942  15.285  0.00  0.00    +0.000 C 
ATOM     24  C   UNL     1       6.732   4.392  13.895  0.00  0.00    +0.000 C 
ATOM     25  O   UNL     1       7.616   4.744  16.084  0.00  0.00    +0.000 OA
ENDBRANCH  17  21
ENDBRANCH   1  17
TORSDOF 5
ENDMDL
MODEL 4
REMARK VINA RESULT:      -7.2      1.085      1.113
REMARK  Name = 
REMARK  7 active torsions:
REMARK  status: ('A' for Active; 'I' for Inactive)
REMARK    1  A    between atoms: C_1  and  C_2
REMARK    2  A    between atoms: N_4  and  C_5
REMARK    3  A    between atoms: C_5  and  C_6
REMARK    4  A    between atoms: N_8  and  C_9
REMARK    5  A    between atoms: C_12  and  S_13
REMARK    6  A    between atoms: S_13  and  N_14
REMARK    7  A    between atoms: C_20  and  C_21
REMARK                            x       y       z     vdW  Elec       q    Type
REMARK                         _______ _______ _______ _____ _____    ______ ____
ROOT
ATOM      1  C   UNL     1       2.818   5.515  19.072  0.00  0.00    +0.000 C 
ATOM      2  O   UNL     1       1.680   5.053  19.049  0.00  0.00    +0.000 OA
ATOM      3  N   UNL     1       3.133   6.863  18.983  0.00  0.00    +0.000 N 
ATOM      4  H   UNL     1       4.086   7.083  18.715  0.00  0.00    +0.000 HD
ENDROOT
BRANCH   3   5
ATOM      5  C   UNL     1       2.194   7.900  19.072  0.00  0.00    +0.000 A 
ATOM      6  C   UNL     1       1.594   8.240  20.290  0.00  0.00    +0.000 A 
ATOM      7  C   UNL     1       0.665   9.279  20.353  0.00  0.00    +0.000 A 
ATOM      8  C   UNL     1       0.321   9.960  19.185  0.00  0.00    +0.000 A 
ATOM      9  C   UNL     1       0.908   9.621  17.961  0.00  0.00    +0.000 A 
ATOM     10  C   UNL     1       1.877   8.616  17.915  0.00  0.00    +0.000 A 
BRANCH   8  11
ATOM     11  S   UNL     1      -0.890  11.244  19.248  0.00  0.00    +0.000 S 
ATOM     12  O   UNL     1      -2.125  10.761  18.677  0.00  0.00    +0.000 OA
ATOM     13  O   UNL     1      -0.835  11.896  20.537  0.00  0.00    +0.000 OA
BRANCH  11  14
ATOM     14  N   UNL     1      -0.270  12.344  18.149  0.00  0.00    +0.000 NA
ATOM     15  H   UNL     1       0.652  12.658  18.453  0.00  0.00    +0.000 HD
ATOM     16  H   UNL     1      -0.288  11.949  17.212  0.00  0.00    +0.000 HD
ENDBRANCH  11  14
ENDBRANCH   8  11
ENDBRANCH   3   5
BRANCH   1  17
ATOM     17  C   UNL     1       4.044   4.599  19.137  0.00  0.00    +0.000 C 
BRANCH  17  21
ATOM     18  C   UNL     1       7.516   6.908  17.682  0.00  0.00    +0.000 C 
ATOM     19  C   UNL     1       7.549   5.389  17.860  0.00  0.00    +0.000 C 
ATOM     20  C   UNL     1       6.450   4.886  18.815  0.00  0.00    +0.000 C 
ATOM     21  N   UNL     1       5.103   5.063  18.214  0.00  0.00    +0.000 NA
ATOM     22  C   UNL     1       5.080   4.277  16.960  0.00  0.00    +0.000 C 
ATOM     23  C   UNL     1       6.179   4.770  15.992  0.00  0.00    +0.000 C 
ATOM     24  C   UNL     1       6.220   3.914  14.733  0.00  0.00    +0.000 C 
ATOM     25  O   UNL     1       7.483   4.706  16.597  0.00  0.00    +0.000 OA
ENDBRANCH  17  21
ENDBRANCH   1  17
TORSDOF 5
ENDMDL
MODEL 5
REMARK VINA RESULT:      -6.9      1.353      1.740
REMARK  Name = 
REMARK  7 active torsions:
REMARK  status: ('A' for Active; 'I' for Inactive)
REMARK    1  A    between atoms: C_1  and  C_2
REMARK    2  A    between atoms: N_4  and  C_5
REMARK    3  A    between atoms: C_5  and  C_6
REMARK    4  A    between atoms: N_8  and  C_9
REMARK    5  A    between atoms: C_12  and  S_13
REMARK    6  A    between atoms: S_13  and  N_14
REMARK    7  A    between atoms: C_20  and  C_21
REMARK                            x       y       z     vdW  Elec       q    Type
REMARK                         _______ _______ _______ _____ _____    ______ ____
ROOT
ATOM      1  C   UNL     1       2.788   6.083  18.772  0.00  0.00    +0.000 C 
ATOM      2  O   UNL     1       1.885   5.675  18.045  0.00  0.00    +0.000 OA
ATOM      3  N   UNL     1       2.890   7.375  19.267  0.00  0.00    +0.000 N 
ATOM      4  H   UNL     1       3.808   7.658  19.592  0.00  0.00    +0.000 HD
ENDROOT
BRANCH   3   5
ATOM      5  C   UNL     1       1.871   8.334  19.186  0.00  0.00    +0.000 A 
ATOM      6  C   UNL     1       1.560   8.970  17.979  0.00  0.00    +0.000 A 
ATOM      7  C   UNL     1       0.539   9.919  17.924  0.00  0.00    +0.000 A 
ATOM      8  C   UNL     1      -0.154  10.245  19.090  0.00  0.00    +0.000 A 
ATOM      9  C   UNL     1       0.156   9.622  20.303  0.00  0.00    +0.000 A 
ATOM     10  C   UNL     1       1.143   8.634  20.340  0.00  0.00    +0.000 A 
BRANCH   8  11
ATOM     11  S   UNL     1      -1.416  11.481  19.039  0.00  0.00    +0.000 S 
ATOM     12  O   UNL     1      -2.602  10.923  18.433  0.00  0.00    +0.000 OA
ATOM     13  O   UNL     1      -1.449  12.189  20.299  0.00  0.00    +0.000 OA
BRANCH  11  14
ATOM     14  N   UNL     1      -0.786  12.556  17.922  0.00  0.00    +0.000 NA
ATOM     15  H   UNL     1       0.189  12.758  18.144  0.00  0.00    +0.000 HD
ATOM     16  H   UNL     1      -0.935  12.207  16.979  0.00  0.00    +0.000 HD
ENDBRANCH  11  14
ENDBRANCH   8  11
ENDBRANCH   3   5
BRANCH   1  17
ATOM     17  C   UNL     1       3.964   5.181  19.159  0.00  0.00    +0.000 C 
BRANCH  17  21
ATOM     18  C   UNL     1       7.795   7.098  18.086  0.00  0.00    +0.000 C 
ATOM     19  C   UNL     1       7.659   5.591  18.309  0.00  0.00    +0.000 C 
ATOM     20  C   UNL     1       6.407   5.231  19.133  0.00  0.00    +0.000 C 
ATOM     21  N   UNL     1       5.167   5.507  18.363  0.00  0.00    +0.000 NA
ATOM     22  C   UNL     1       5.222   4.677  17.139  0.00  0.00    +0.000 C 
ATOM     23  C   UNL     1       6.474   5.027  16.303  0.00  0.00    +0.000 C 
ATOM     24  C   UNL     1       6.585   4.121  15.083  0.00  0.00    +0.000 C 
ATOM     25  O   UNL     1       7.681   4.867  17.068  0.00  0.00    +0.000 OA
ENDBRANCH  17  21
ENDBRANCH   1  17
TORSDOF 5
ENDMDL
MODEL 6
REMARK VINA RESULT:      -6.9      1.283      1.471
REMARK  Name = 
REMARK  7 active torsions:
REMARK  status: ('A' for Active; 'I' for Inactive)
REMARK    1  A    between atoms: C_1  and  C_2
REMARK    2  A    between atoms: N_4  and  C_5
REMARK    3  A    between atoms: C_5  and  C_6
REMARK    4  A    between atoms: N_8  and  C_9
REMARK    5  A    between atoms: C_12  and  S_13
REMARK    6  A    between atoms: S_13  and  N_14
REMARK    7  A    between atoms: C_20  and  C_21
REMARK                            x       y       z     vdW  Elec       q    Type
REMARK                         _______ _______ _______ _____ _____    ______ ____
ROOT
ATOM      1  C   UNL     1       3.185   5.033  19.209  0.00  0.00    +0.000 C 
ATOM      2  O   UNL     1       3.018   4.753  20.394  0.00  0.00    +0.000 OA
ATOM      3  N   UNL     1       2.690   6.166  18.580  0.00  0.00    +0.000 N 
ATOM      4  H   UNL     1       2.639   6.130  17.568  0.00  0.00    +0.000 HD
ENDROOT
BRANCH   3   5
ATOM      5  C   UNL     1       2.117   7.255  19.252  0.00  0.00    +0.000 A 
ATOM      6  C   UNL     1       1.760   7.173  20.603  0.00  0.00    +0.000 A 
ATOM      7  C   UNL     1       1.194   8.272  21.250  0.00  0.00    +0.000 A 
ATOM      8  C   UNL     1       0.965   9.446  20.530  0.00  0.00    +0.000 A 
ATOM      9  C   UNL     1       1.310   9.533  19.178  0.00  0.00    +0.000 A 
ATOM     10  C   UNL     1       1.925   8.447  18.550  0.00  0.00    +0.000 A 
BRANCH   8  11
ATOM     11  S   UNL     1       0.204  10.825  21.330  0.00  0.00    +0.000 S 
ATOM     12  O   UNL     1      -0.979  11.207  20.595  0.00  0.00    +0.000 OA
ATOM     13  O   UNL     1       0.192  10.608  22.759  0.00  0.00    +0.000 OA
BRANCH  11  14
ATOM     14  N   UNL     1       1.330  12.033  21.058  0.00  0.00    +0.000 NA
ATOM     15  H   UNL     1       0.953  12.720  20.405  0.00  0.00    +0.000 HD
ATOM     16  H   UNL     1       1.642  12.426  21.943  0.00  0.00    +0.000 HD
ENDBRANCH  11  14
ENDBRANCH   8  11
ENDBRANCH   3   5
BRANCH   1  17
ATOM     17  C   UNL     1       3.930   4.082  18.267  0.00  0.00    +0.000 C 
BRANCH  17  21
ATOM     18  C   UNL     1       7.212   6.941  17.515  0.00  0.00    +0.000 C 
ATOM     19  C   UNL     1       7.409   5.425  17.471  0.00  0.00    +0.000 C 
ATOM     20  C   UNL     1       6.303   4.666  18.229  0.00  0.00    +0.000 C 
ATOM     21  N   UNL     1       4.998   4.793  17.530  0.00  0.00    +0.000 NA
ATOM     22  C   UNL     1       5.170   4.215  16.179  0.00  0.00    +0.000 C 
ATOM     23  C   UNL     1       6.279   4.966  15.407  0.00  0.00    +0.000 C 
ATOM     24  C   UNL     1       6.523   4.328  14.046  0.00  0.00    +0.000 C 
ATOM     25  O   UNL     1       7.528   4.945  16.121  0.00  0.00    +0.000 OA
ENDBRANCH  17  21
ENDBRANCH   1  17
TORSDOF 5
ENDMDL
MODEL 7
REMARK VINA RESULT:      -6.8      5.628      7.233
REMARK  Name = 
REMARK  7 active torsions:
REMARK  status: ('A' for Active; 'I' for Inactive)
REMARK    1  A    between atoms: C_1  and  C_2
REMARK    2  A    between atoms: N_4  and  C_5
REMARK    3  A    between atoms: C_5  and  C_6
REMARK    4  A    between atoms: N_8  and  C_9
REMARK    5  A    between atoms: C_12  and  S_13
REMARK    6  A    between atoms: S_13  and  N_14
REMARK    7  A    between atoms: C_20  and  C_21
REMARK                            x       y       z     vdW  Elec       q    Type
REMARK                         _______ _______ _______ _____ _____    ______ ____
ROOT
ATOM      1  C   UNL     1       8.049   8.026  18.170  0.00  0.00    +0.000 C 
ATOM      2  O   UNL     1       7.544   8.581  17.198  0.00  0.00    +0.000 OA
ATOM      3  N   UNL     1       8.928   8.622  19.062  0.00  0.00    +0.000 N 
ATOM      4  H   UNL     1       9.491   7.994  19.624  0.00  0.00    +0.000 HD
ENDROOT
BRANCH   3   5
ATOM      5  C   UNL     1       9.196   9.998  19.105  0.00  0.00    +0.000 A 
ATOM      6  C   UNL     1       9.257  10.693  20.319  0.00  0.00    +0.000 A 
ATOM      7  C   UNL     1       9.528  12.061  20.335  0.00  0.00    +0.000 A 
ATOM      8  C   UNL     1       9.714  12.735  19.127  0.00  0.00    +0.000 A 
ATOM      9  C   UNL     1       9.647  12.051  17.909  0.00  0.00    +0.000 A 
ATOM     10  C   UNL     1       9.428  10.671  17.903  0.00  0.00    +0.000 A 
BRANCH   8  11
ATOM     11  S   UNL     1      10.010  14.477  19.137  0.00  0.00    +0.000 S 
ATOM     12  O   UNL     1       9.159  15.099  20.123  0.00  0.00    +0.000 OA
ATOM     13  O   UNL     1      11.434  14.725  19.076  0.00  0.00    +0.000 OA
BRANCH  11  14
ATOM     14  N   UNL     1       9.400  14.929  17.646  0.00  0.00    +0.000 NA
ATOM     15  H   UNL     1       8.711  15.672  17.762  0.00  0.00    +0.000 HD
ATOM     16  H   UNL     1      10.162  15.162  17.013  0.00  0.00    +0.000 HD
ENDBRANCH  11  14
ENDBRANCH   8  11
ENDBRANCH   3   5
BRANCH   1  17
ATOM     17  C   UNL     1       7.792   6.544  18.459  0.00  0.00    +0.000 C 
BRANCH  17  21
ATOM     18  C   UNL     1       6.320   4.824  14.666  0.00  0.00    +0.000 C 
ATOM     19  C   UNL     1       6.311   4.048  15.984  0.00  0.00    +0.000 C 
ATOM     20  C   UNL     1       7.293   4.634  17.016  0.00  0.00    +0.000 C 
ATOM     21  N   UNL     1       6.840   5.970  17.482  0.00  0.00    +0.000 NA
ATOM     22  C   UNL     1       5.508   5.786  18.100  0.00  0.00    +0.000 C 
ATOM     23  C   UNL     1       4.513   5.197  17.076  0.00  0.00    +0.000 C 
ATOM     24  C   UNL     1       3.161   4.926  17.723  0.00  0.00    +0.000 C 
ATOM     25  O   UNL     1       4.987   3.952  16.533  0.00  0.00    +0.000 OA
ENDBRANCH  17  21
ENDBRANCH   1  17
TORSDOF 5
ENDMDL
MODEL 8
REMARK VINA RESULT:      -6.8      5.678      7.368
REMARK  Name = 
REMARK  7 active torsions:
REMARK  status: ('A' for Active; 'I' for Inactive)
REMARK    1  A    between atoms: C_1  and  C_2
REMARK    2  A    between atoms: N_4  and  C_5
REMARK    3  A    between atoms: C_5  and  C_6
REMARK    4  A    between atoms: N_8  and  C_9
REMARK    5  A    between atoms: C_12  and  S_13
REMARK    6  A    between atoms: S_13  and  N_14
REMARK    7  A    between atoms: C_20  and  C_21
REMARK                            x       y       z     vdW  Elec       q    Type
REMARK                         _______ _______ _______ _____ _____    ______ ____
ROOT
ATOM      1  C   UNL     1       8.077   8.029  18.164  0.00  0.00    +0.000 C 
ATOM      2  O   UNL     1       7.661   8.542  17.129  0.00  0.00    +0.000 OA
ATOM      3  N   UNL     1       8.895   8.657  19.092  0.00  0.00    +0.000 N 
ATOM      4  H   UNL     1       9.401   8.049  19.727  0.00  0.00    +0.000 HD
ENDROOT
BRANCH   3   5
ATOM      5  C   UNL     1       9.185  10.029  19.088  0.00  0.00    +0.000 A 
ATOM      6  C   UNL     1       9.337  10.740  17.892  0.00  0.00    +0.000 A 
ATOM      7  C   UNL     1       9.622  12.106  17.915  0.00  0.00    +0.000 A 
ATOM      8  C   UNL     1       9.778  12.751  19.143  0.00  0.00    +0.000 A 
ATOM      9  C   UNL     1       9.637  12.046  20.343  0.00  0.00    +0.000 A 
ATOM     10  C   UNL     1       9.299  10.691  20.312  0.00  0.00    +0.000 A 
BRANCH   8  11
ATOM     11  S   UNL     1      10.186  14.469  19.180  0.00  0.00    +0.000 S 
ATOM     12  O   UNL     1       9.357  15.133  20.158  0.00  0.00    +0.000 OA
ATOM     13  O   UNL     1      11.623  14.624  19.149  0.00  0.00    +0.000 OA
BRANCH  11  14
ATOM     14  N   UNL     1       9.636  14.976  17.683  0.00  0.00    +0.000 NA
ATOM     15  H   UNL     1      10.426  15.216  17.084  0.00  0.00    +0.000 HD
ATOM     16  H   UNL     1       9.009  14.280  17.288  0.00  0.00    +0.000 HD
ENDBRANCH  11  14
ENDBRANCH   8  11
ENDBRANCH   3   5
BRANCH   1  17
ATOM     17  C   UNL     1       7.770   6.567  18.504  0.00  0.00    +0.000 C 
BRANCH  17  21
ATOM     18  C   UNL     1       6.324   4.808  14.720  0.00  0.00    +0.000 C 
ATOM     19  C   UNL     1       6.310   4.045  16.045  0.00  0.00    +0.000 C 
ATOM     20  C   UNL     1       7.284   4.643  17.078  0.00  0.00    +0.000 C 
ATOM     21  N   UNL     1       6.825   5.982  17.528  0.00  0.00    +0.000 NA
ATOM     22  C   UNL     1       5.490   5.802  18.140  0.00  0.00    +0.000 C 
ATOM     23  C   UNL     1       4.502   5.200  17.116  0.00  0.00    +0.000 C 
ATOM     24  C   UNL     1       3.147   4.932  17.758  0.00  0.00    +0.000 C 
ATOM     25  O   UNL     1       4.982   3.951  16.588  0.00  0.00    +0.000 OA
ENDBRANCH  17  21
ENDBRANCH   1  17
TORSDOF 5
ENDMDL
MODEL 9
REMARK VINA RESULT:      -6.7      5.662      7.315
REMARK  Name = 
REMARK  7 active torsions:
REMARK  status: ('A' for Active; 'I' for Inactive)
REMARK    1  A    between atoms: C_1  and  C_2
REMARK    2  A    between atoms: N_4  and  C_5
REMARK    3  A    between atoms: C_5  and  C_6
REMARK    4  A    between atoms: N_8  and  C_9
REMARK    5  A    between atoms: C_12  and  S_13
REMARK    6  A    between atoms: S_13  and  N_14
REMARK    7  A    between atoms: C_20  and  C_21
REMARK                            x       y       z     vdW  Elec       q    Type
REMARK                         _______ _______ _______ _____ _____    ______ ____
ROOT
ATOM      1  C   UNL     1       8.025   8.077  18.168  0.00  0.00    +0.000 C 
ATOM      2  O   UNL     1       7.469   8.653  17.236  0.00  0.00    +0.000 OA
ATOM      3  N   UNL     1       8.934   8.662  19.037  0.00  0.00    +0.000 N 
ATOM      4  H   UNL     1       9.531   8.026  19.555  0.00  0.00    +0.000 HD
ENDROOT
BRANCH   3   5
ATOM      5  C   UNL     1       9.183  10.040  19.110  0.00  0.00    +0.000 A 
ATOM      6  C   UNL     1       9.269  10.703  20.340  0.00  0.00    +0.000 A 
ATOM      7  C   UNL     1       9.520  12.074  20.386  0.00  0.00    +0.000 A 
ATOM      8  C   UNL     1       9.661  12.783  19.192  0.00  0.00    +0.000 A 
ATOM      9  C   UNL     1       9.568  12.131  17.958  0.00  0.00    +0.000 A 
ATOM     10  C   UNL     1       9.369  10.749  17.921  0.00  0.00    +0.000 A 
BRANCH   8  11
ATOM     11  S   UNL     1       9.932  14.529  19.241  0.00  0.00    +0.000 S 
ATOM     12  O   UNL     1      10.211  15.003  17.906  0.00  0.00    +0.000 OA
ATOM     13  O   UNL     1       8.939  15.147  20.091  0.00  0.00    +0.000 OA
BRANCH  11  14
ATOM     14  N   UNL     1      11.377  14.620  20.079  0.00  0.00    +0.000 NA
ATOM     15  H   UNL     1      11.816  13.700  20.119  0.00  0.00    +0.000 HD
ATOM     16  H   UNL     1      11.967  15.346  19.679  0.00  0.00    +0.000 HD
ENDBRANCH  11  14
ENDBRANCH   8  11
ENDBRANCH   3   5
BRANCH   1  17
ATOM     17  C   UNL     1       7.803   6.583  18.423  0.00  0.00    +0.000 C 
BRANCH  17  21
ATOM     18  C   UNL     1       6.289   4.873  14.642  0.00  0.00    +0.000 C 
ATOM     19  C   UNL     1       6.285   4.098  15.961  0.00  0.00    +0.000 C 
ATOM     20  C   UNL     1       7.279   4.677  16.986  0.00  0.00    +0.000 C 
ATOM     21  N   UNL     1       6.840   6.017  17.454  0.00  0.00    +0.000 NA
ATOM     22  C   UNL     1       5.511   5.844  18.082  0.00  0.00    +0.000 C 
ATOM     23  C   UNL     1       4.503   5.262  17.066  0.00  0.00    +0.000 C 
ATOM     24  C   UNL     1       3.154   5.001  17.724  0.00  0.00    +0.000 C 
ATOM     25  O   UNL     1       4.963   4.013  16.521  0.00  0.00    +0.000 OA
ENDBRANCH  17  21
ENDBRANCH   1  17
TORSDOF 5
ENDMDL
