MODEL 1
REMARK VINA RESULT:      -7.6      0.000      0.000
REMARK  Name = 
REMARK  7 active torsions:
REMARK  status: ('A' for Active; 'I' for Inactive)
REMARK    1  A    between atoms: C_1  and  C_2
REMARK    2  A    between atoms: C_2  and  C_3
REMARK    3  A    between atoms: C_3  and  C_4
REMARK    4  A    between atoms: C_9  and  C_10
REMARK    5  A    between atoms: C_14  and  N_15
REMARK    6  A    between atoms: C_16  and  C_18
REMARK    7  A    between atoms: C_21  and  C_22
REMARK                            x       y       z     vdW  Elec       q    Type
REMARK                         _______ _______ _______ _____ _____    ______ ____
ROOT
ATOM      1  N   UNL     1       0.477  10.257  18.955  0.00  0.00    +0.000 N 
ATOM      2  C   UNL     1       1.539   9.618  18.363  0.00  0.00    +0.000 C 
ATOM      3  O   UNL     1       2.226  10.074  17.458  0.00  0.00    +0.000 OA
ATOM      4  H   UNL     1       0.100   9.846  19.807  0.00  0.00    +0.000 HD
ENDROOT
BRANCH   1  15
ATOM      5  C   UNL     1       0.391  12.752  19.433  0.00  0.00    +0.000 C 
ATOM      6  C   UNL     1      -0.383  12.793  20.754  0.00  0.00    +0.000 C 
ATOM      7  C   UNL     1      -1.893  12.854  20.525  0.00  0.00    +0.000 C 
ATOM      8  C   UNL     1      -2.416  12.080  19.337  0.00  0.00    +0.000 A 
ATOM      9  C   UNL     1      -3.806  11.966  19.172  0.00  0.00    +0.000 A 
ATOM     10  C   UNL     1      -4.354  11.294  18.073  0.00  0.00    +0.000 A 
ATOM     11  C   UNL     1      -5.837  11.176  17.903  0.00  0.00    +0.000 C 
ATOM     12  C   UNL     1      -3.497  10.722  17.130  0.00  0.00    +0.000 A 
ATOM     13  C   UNL     1      -2.112  10.822  17.284  0.00  0.00    +0.000 A 
ATOM     14  C   UNL     1      -1.563  11.503  18.381  0.00  0.00    +0.000 A 
ATOM     15  C   UNL     1      -0.060  11.554  18.553  0.00  0.00    +0.000 C 
BRANCH   5  16
ATOM     16  C   UNL     1       1.906  12.809  19.706  0.00  0.00    +0.000 C 
BRANCH  16  18
ATOM     17  C   UNL     1       2.668  14.904  18.557  0.00  0.00    +0.000 C 
ATOM     18  C   UNL     1       2.717  13.384  18.544  0.00  0.00    +0.000 C 
ENDBRANCH  16  18
ENDBRANCH   5  16
ENDBRANCH   1  15
BRANCH   2  19
ATOM     19  C   UNL     1       1.820   8.254  18.866  0.00  0.00    +0.000 A 
ATOM     20  C   UNL     1       2.187   7.334  17.954  0.00  0.00    +0.000 A 
ATOM     21  C   UNL     1       2.535   5.988  18.338  0.00  0.00    +0.000 A 
ATOM     22  C   UNL     1       2.534   5.635  19.635  0.00  0.00    +0.000 A 
ATOM     23  N   UNL     1       2.149   6.574  20.584  0.00  0.00    +0.000 N 
ATOM     24  C   UNL     1       1.742   7.855  20.294  0.00  0.00    +0.000 A 
ATOM     25  O   UNL     1       1.330   8.613  21.166  0.00  0.00    +0.000 OA
ATOM     26  H   UNL     1       2.131   6.312  21.566  0.00  0.00    +0.000 HD
BRANCH  22  27
ATOM     27  C   UNL     1       2.925   4.253  20.099  0.00  0.00    +0.000 C 
ATOM     28  F   UNL     1       2.637   4.069  21.414  0.00  0.00    +0.000 F 
ATOM     29  F   UNL     1       2.269   3.286  19.411  0.00  0.00    +0.000 F 
ATOM     30  F   UNL     1       4.253   4.023  19.947  0.00  0.00    +0.000 F 
ENDBRANCH  22  27
ENDBRANCH   2  19
TORSDOF 5
ENDMDL
MODEL 2
REMARK VINA RESULT:      -7.2      5.167      7.838
REMARK  Name = 
REMARK  7 active torsions:
REMARK  status: ('A' for Active; 'I' for Inactive)
REMARK    1  A    between atoms: C_1  and  C_2
REMARK    2  A    between atoms: C_2  and  C_3
REMARK    3  A    between atoms: C_3  and  C_4
REMARK    4  A    between atoms: C_9  and  C_10
REMARK    5  A    between atoms: C_14  and  N_15
REMARK    6  A    between atoms: C_16  and  C_18
REMARK    7  A    between atoms: C_21  and  C_22
REMARK                            x       y       z     vdW  Elec       q    Type
REMARK                         _______ _______ _______ _____ _____    ______ ____
ROOT
ATOM      1  N   UNL     1       1.379  11.842  19.849  0.00  0.00    +0.000 N 
ATOM      2  C   UNL     1       1.317  12.981  19.085  0.00  0.00    +0.000 C 
ATOM      3  O   UNL     1       0.452  13.234  18.257  0.00  0.00    +0.000 OA
ATOM      4  H   UNL     1       2.046  11.831  20.618  0.00  0.00    +0.000 HD
ENDROOT
BRANCH   1  15
ATOM      5  C   UNL     1      -0.422  10.464  20.997  0.00  0.00    +0.000 C 
ATOM      6  C   UNL     1       0.370   9.784  22.119  0.00  0.00    +0.000 C 
ATOM      7  C   UNL     1       0.989   8.464  21.656  0.00  0.00    +0.000 C 
ATOM      8  C   UNL     1       1.470   8.423  20.224  0.00  0.00    +0.000 A 
ATOM      9  C   UNL     1       2.191   7.298  19.793  0.00  0.00    +0.000 A 
ATOM     10  C   UNL     1       2.632   7.182  18.469  0.00  0.00    +0.000 A 
ATOM     11  C   UNL     1       3.401   5.979  18.017  0.00  0.00    +0.000 C 
ATOM     12  C   UNL     1       2.353   8.211  17.568  0.00  0.00    +0.000 A 
ATOM     13  C   UNL     1       1.642   9.339  17.983  0.00  0.00    +0.000 A 
ATOM     14  C   UNL     1       1.192   9.451  19.307  0.00  0.00    +0.000 A 
ATOM     15  C   UNL     1       0.468  10.706  19.748  0.00  0.00    +0.000 C 
BRANCH   5  16
ATOM     16  C   UNL     1      -1.123  11.725  21.536  0.00  0.00    +0.000 C 
BRANCH  16  18
ATOM     17  C   UNL     1      -2.868  12.184  23.278  0.00  0.00    +0.000 C 
ATOM     18  C   UNL     1      -1.468  11.647  23.024  0.00  0.00    +0.000 C 
ENDBRANCH  16  18
ENDBRANCH   5  16
ENDBRANCH   1  15
BRANCH   2  19
ATOM     19  C   UNL     1       2.426  13.941  19.285  0.00  0.00    +0.000 A 
ATOM     20  C   UNL     1       2.781  14.691  18.224  0.00  0.00    +0.000 A 
ATOM     21  C   UNL     1       3.813  15.694  18.320  0.00  0.00    +0.000 A 
ATOM     22  C   UNL     1       4.421  15.926  19.496  0.00  0.00    +0.000 A 
ATOM     23  N   UNL     1       4.070  15.153  20.596  0.00  0.00    +0.000 N 
ATOM     24  C   UNL     1       3.144  14.137  20.571  0.00  0.00    +0.000 A 
ATOM     25  O   UNL     1       2.936  13.430  21.553  0.00  0.00    +0.000 OA
ATOM     26  H   UNL     1       4.533  15.312  21.486  0.00  0.00    +0.000 HD
BRANCH  22  27
ATOM     27  C   UNL     1       5.480  16.988  19.664  0.00  0.00    +0.000 C 
ATOM     28  F   UNL     1       4.969  18.117  20.224  0.00  0.00    +0.000 F 
ATOM     29  F   UNL     1       6.491  16.570  20.466  0.00  0.00    +0.000 F 
ATOM     30  F   UNL     1       6.030  17.348  18.478  0.00  0.00    +0.000 F 
ENDBRANCH  22  27
ENDBRANCH   2  19
TORSDOF 5
ENDMDL
MODEL 3
REMARK VINA RESULT:      -7.1      2.033      2.900
REMARK  Name = 
REMARK  7 active torsions:
REMARK  status: ('A' for Active; 'I' for Inactive)
REMARK    1  A    between atoms: C_1  and  C_2
REMARK    2  A    between atoms: C_2  and  C_3
REMARK    3  A    between atoms: C_3  and  C_4
REMARK    4  A    between atoms: C_9  and  C_10
REMARK    5  A    between atoms: C_14  and  N_15
REMARK    6  A    between atoms: C_16  and  C_18
REMARK    7  A    between atoms: C_21  and  C_22
REMARK                            x       y       z     vdW  Elec       q    Type
REMARK                         _______ _______ _______ _____ _____    ______ ____
ROOT
ATOM      1  N   UNL     1       1.216  11.400  19.434  0.00  0.00    +0.000 N 
ATOM      2  C   UNL     1       0.696  10.327  18.752  0.00  0.00    +0.000 C 
ATOM      3  O   UNL     1      -0.258  10.369  17.986  0.00  0.00    +0.000 OA
ATOM      4  H   UNL     1       2.111  11.267  19.901  0.00  0.00    +0.000 HD
ENDROOT
BRANCH   1  15
ATOM      5  C   UNL     1       1.726  13.885  19.289  0.00  0.00    +0.000 C 
ATOM      6  C   UNL     1       2.439  14.139  20.621  0.00  0.00    +0.000 C 
ATOM      7  C   UNL     1       1.451  14.476  21.738  0.00  0.00    +0.000 C 
ATOM      8  C   UNL     1       0.122  13.759  21.687  0.00  0.00    +0.000 A 
ATOM      9  C   UNL     1      -0.758  13.905  22.771  0.00  0.00    +0.000 A 
ATOM     10  C   UNL     1      -2.020  13.297  22.769  0.00  0.00    +0.000 A 
ATOM     11  C   UNL     1      -2.954  13.457  23.929  0.00  0.00    +0.000 C 
ATOM     12  C   UNL     1      -2.400  12.526  21.669  0.00  0.00    +0.000 A 
ATOM     13  C   UNL     1      -1.532  12.366  20.586  0.00  0.00    +0.000 A 
ATOM     14  C   UNL     1      -0.272  12.983  20.584  0.00  0.00    +0.000 A 
ATOM     15  C   UNL     1       0.671  12.754  19.422  0.00  0.00    +0.000 C 
BRANCH   5  16
ATOM     16  C   UNL     1       2.761  13.664  18.170  0.00  0.00    +0.000 C 
BRANCH  16  18
ATOM     17  C   UNL     1       3.324  15.999  17.447  0.00  0.00    +0.000 C 
ATOM     18  C   UNL     1       3.848  14.739  18.119  0.00  0.00    +0.000 C 
ENDBRANCH  16  18
ENDBRANCH   5  16
ENDBRANCH   1  15
BRANCH   2  19
ATOM     19  C   UNL     1       1.351   9.026  19.020  0.00  0.00    +0.000 A 
ATOM     20  C   UNL     1       1.938   8.414  17.974  0.00  0.00    +0.000 A 
ATOM     21  C   UNL     1       2.649   7.169  18.130  0.00  0.00    +0.000 A 
ATOM     22  C   UNL     1       2.772   6.611  19.346  0.00  0.00    +0.000 A 
ATOM     23  N   UNL     1       2.164   7.229  20.432  0.00  0.00    +0.000 N 
ATOM     24  C   UNL     1       1.416   8.379  20.355  0.00  0.00    +0.000 A 
ATOM     25  O   UNL     1       0.830   8.834  21.333  0.00  0.00    +0.000 OA
ATOM     26  H   UNL     1       2.240   6.807  21.353  0.00  0.00    +0.000 HD
BRANCH  22  27
ATOM     27  C   UNL     1       3.537   5.330  19.575  0.00  0.00    +0.000 C 
ATOM     28  F   UNL     1       3.061   4.651  20.652  0.00  0.00    +0.000 F 
ATOM     29  F   UNL     1       3.450   4.494  18.511  0.00  0.00    +0.000 F 
ATOM     30  F   UNL     1       4.854   5.558  19.800  0.00  0.00    +0.000 F 
ENDBRANCH  22  27
ENDBRANCH   2  19
TORSDOF 5
ENDMDL
MODEL 4
REMARK VINA RESULT:      -6.9      1.310      1.657
REMARK  Name = 
REMARK  7 active torsions:
REMARK  status: ('A' for Active; 'I' for Inactive)
REMARK    1  A    between atoms: C_1  and  C_2
REMARK    2  A    between atoms: C_2  and  C_3
REMARK    3  A    between atoms: C_3  and  C_4
REMARK    4  A    between atoms: C_9  and  C_10
REMARK    5  A    between atoms: C_14  and  N_15
REMARK    6  A    between atoms: C_16  and  C_18
REMARK    7  A    between atoms: C_21  and  C_22
REMARK                            x       y       z     vdW  Elec       q    Type
REMARK                         _______ _______ _______ _____ _____    ______ ____
ROOT
ATOM      1  N   UNL     1      -0.289  11.091  19.786  0.00  0.00    +0.000 N 
ATOM      2  C   UNL     1       0.904  10.756  19.193  0.00  0.00    +0.000 C 
ATOM      3  O   UNL     1       1.586  11.500  18.502  0.00  0.00    +0.000 OA
ATOM      4  H   UNL     1      -0.668  10.442  20.472  0.00  0.00    +0.000 HD
ENDROOT
BRANCH   1  15
ATOM      5  C   UNL     1      -0.856  13.336  20.832  0.00  0.00    +0.000 C 
ATOM      6  C   UNL     1      -1.786  12.924  21.978  0.00  0.00    +0.000 C 
ATOM      7  C   UNL     1      -3.244  12.844  21.523  0.00  0.00    +0.000 C 
ATOM      8  C   UNL     1      -3.473  12.351  20.114  0.00  0.00    +0.000 A 
ATOM      9  C   UNL     1      -4.792  12.104  19.699  0.00  0.00    +0.000 A 
ATOM     10  C   UNL     1      -5.075  11.681  18.394  0.00  0.00    +0.000 A 
ATOM     11  C   UNL     1      -6.483  11.418  17.958  0.00  0.00    +0.000 C 
ATOM     12  C   UNL     1      -4.022  11.496  17.496  0.00  0.00    +0.000 A 
ATOM     13  C   UNL     1      -2.704  11.732  17.897  0.00  0.00    +0.000 A 
ATOM     14  C   UNL     1      -2.421  12.165  19.201  0.00  0.00    +0.000 A 
ATOM     15  C   UNL     1      -0.982  12.365  19.627  0.00  0.00    +0.000 C 
BRANCH   5  16
ATOM     16  C   UNL     1       0.581  13.517  21.358  0.00  0.00    +0.000 C 
BRANCH  16  18
ATOM     17  C   UNL     1       2.658  14.924  21.359  0.00  0.00    +0.000 C 
ATOM     18  C   UNL     1       1.378  14.585  20.609  0.00  0.00    +0.000 C 
ENDBRANCH  16  18
ENDBRANCH   5  16
ENDBRANCH   1  15
BRANCH   2  19
ATOM     19  C   UNL     1       1.348   9.359  19.405  0.00  0.00    +0.000 A 
ATOM     20  C   UNL     1       1.894   8.728  18.348  0.00  0.00    +0.000 A 
ATOM     21  C   UNL     1       2.408   7.384  18.455  0.00  0.00    +0.000 A 
ATOM     22  C   UNL     1       2.383   6.744  19.636  0.00  0.00    +0.000 A 
ATOM     23  N   UNL     1       1.814   7.381  20.731  0.00  0.00    +0.000 N 
ATOM     24  C   UNL     1       1.246   8.633  20.697  0.00  0.00    +0.000 A 
ATOM     25  O   UNL     1       0.680   9.112  21.676  0.00  0.00    +0.000 OA
ATOM     26  H   UNL     1       1.778   6.900  21.626  0.00  0.00    +0.000 HD
BRANCH  22  27
ATOM     27  C   UNL     1       2.940   5.352  19.815  0.00  0.00    +0.000 C 
ATOM     28  F   UNL     1       4.299   5.362  19.853  0.00  0.00    +0.000 F 
ATOM     29  F   UNL     1       2.515   4.783  20.970  0.00  0.00    +0.000 F 
ATOM     30  F   UNL     1       2.577   4.527  18.802  0.00  0.00    +0.000 F 
ENDBRANCH  22  27
ENDBRANCH   2  19
TORSDOF 5
ENDMDL
MODEL 5
REMARK VINA RESULT:      -6.9      4.124      8.915
REMARK  Name = 
REMARK  7 active torsions:
REMARK  status: ('A' for Active; 'I' for Inactive)
REMARK    1  A    between atoms: C_1  and  C_2
REMARK    2  A    between atoms: C_2  and  C_3
REMARK    3  A    between atoms: C_3  and  C_4
REMARK    4  A    between atoms: C_9  and  C_10
REMARK    5  A    between atoms: C_14  and  N_15
REMARK    6  A    between atoms: C_16  and  C_18
REMARK    7  A    between atoms: C_21  and  C_22
REMARK                            x       y       z     vdW  Elec       q    Type
REMARK                         _______ _______ _______ _____ _____    ______ ____
ROOT
ATOM      1  N   UNL     1       3.201   5.354  17.956  0.00  0.00    +0.000 N 
ATOM      2  C   UNL     1       3.680   6.642  17.956  0.00  0.00    +0.000 C 
ATOM      3  O   UNL     1       4.826   6.972  17.679  0.00  0.00    +0.000 OA
ATOM      4  H   UNL     1       2.194   5.231  18.034  0.00  0.00    +0.000 HD
ENDROOT
BRANCH   1  15
ATOM      5  C   UNL     1       4.660   3.531  18.958  0.00  0.00    +0.000 C 
ATOM      6  C   UNL     1       5.904   4.319  19.380  0.00  0.00    +0.000 C 
ATOM      7  C   UNL     1       6.925   4.418  18.245  0.00  0.00    +0.000 C 
ATOM      8  C   UNL     1       6.356   4.542  16.851  0.00  0.00    +0.000 A 
ATOM      9  C   UNL     1       7.240   4.798  15.790  0.00  0.00    +0.000 A 
ATOM     10  C   UNL     1       6.781   4.887  14.469  0.00  0.00    +0.000 A 
ATOM     11  C   UNL     1       7.729   5.160  13.342  0.00  0.00    +0.000 C 
ATOM     12  C   UNL     1       5.419   4.724  14.211  0.00  0.00    +0.000 A 
ATOM     13  C   UNL     1       4.527   4.475  15.257  0.00  0.00    +0.000 A 
ATOM     14  C   UNL     1       4.988   4.377  16.579  0.00  0.00    +0.000 A 
ATOM     15  C   UNL     1       3.996   4.157  17.702  0.00  0.00    +0.000 C 
BRANCH   5  16
ATOM     16  C   UNL     1       3.713   3.357  20.161  0.00  0.00    +0.000 C 
BRANCH  16  18
ATOM     17  C   UNL     1       1.213   3.264  20.338  0.00  0.00    +0.000 C 
ATOM     18  C   UNL     1       2.458   2.545  19.839  0.00  0.00    +0.000 C 
ENDBRANCH  16  18
ENDBRANCH   5  16
ENDBRANCH   1  15
BRANCH   2  19
ATOM     19  C   UNL     1       2.708   7.681  18.364  0.00  0.00    +0.000 A 
ATOM     20  C   UNL     1       2.499   8.692  17.499  0.00  0.00    +0.000 A 
ATOM     21  C   UNL     1       1.536   9.730  17.769  0.00  0.00    +0.000 A 
ATOM     22  C   UNL     1       0.792   9.686  18.888  0.00  0.00    +0.000 A 
ATOM     23  N   UNL     1       1.004   8.653  19.792  0.00  0.00    +0.000 N 
ATOM     24  C   UNL     1       1.946   7.663  19.639  0.00  0.00    +0.000 A 
ATOM     25  O   UNL     1       2.148   6.824  20.512  0.00  0.00    +0.000 OA
ATOM     26  H   UNL     1       0.457   8.618  20.648  0.00  0.00    +0.000 HD
BRANCH  22  27
ATOM     27  C   UNL     1      -0.256  10.724  19.205  0.00  0.00    +0.000 C 
ATOM     28  F   UNL     1      -0.368  10.926  20.545  0.00  0.00    +0.000 F 
ATOM     29  F   UNL     1       0.038  11.925  18.647  0.00  0.00    +0.000 F 
ATOM     30  F   UNL     1      -1.483  10.361  18.755  0.00  0.00    +0.000 F 
ENDBRANCH  22  27
ENDBRANCH   2  19
TORSDOF 5
ENDMDL
MODEL 6
REMARK VINA RESULT:      -6.9      0.998      1.331
REMARK  Name = 
REMARK  7 active torsions:
REMARK  status: ('A' for Active; 'I' for Inactive)
REMARK    1  A    between atoms: C_1  and  C_2
REMARK    2  A    between atoms: C_2  and  C_3
REMARK    3  A    between atoms: C_3  and  C_4
REMARK    4  A    between atoms: C_9  and  C_10
REMARK    5  A    between atoms: C_14  and  N_15
REMARK    6  A    between atoms: C_16  and  C_18
REMARK    7  A    between atoms: C_21  and  C_22
REMARK                            x       y       z     vdW  Elec       q    Type
REMARK                         _______ _______ _______ _____ _____    ______ ____
ROOT
ATOM      1  N   UNL     1       0.532  10.420  19.248  0.00  0.00    +0.000 N 
ATOM      2  C   UNL     1       1.535   9.742  18.598  0.00  0.00    +0.000 C 
ATOM      3  O   UNL     1       2.172  10.164  17.642  0.00  0.00    +0.000 OA
ATOM      4  H   UNL     1       0.202  10.034  20.130  0.00  0.00    +0.000 HD
ENDROOT
BRANCH   1  15
ATOM      5  C   UNL     1       0.371  12.892  19.818  0.00  0.00    +0.000 C 
ATOM      6  C   UNL     1      -0.499  12.868  21.078  0.00  0.00    +0.000 C 
ATOM      7  C   UNL     1      -1.989  12.918  20.740  0.00  0.00    +0.000 C 
ATOM      8  C   UNL     1      -2.410  12.187  19.487  0.00  0.00    +0.000 A 
ATOM      9  C   UNL     1      -3.782  12.062  19.214  0.00  0.00    +0.000 A 
ATOM     10  C   UNL     1      -4.237  11.428  18.051  0.00  0.00    +0.000 A 
ATOM     11  C   UNL     1      -5.701  11.298  17.767  0.00  0.00    +0.000 C 
ATOM     12  C   UNL     1      -3.303  10.907  17.153  0.00  0.00    +0.000 A 
ATOM     13  C   UNL     1      -1.935  11.019  17.413  0.00  0.00    +0.000 A 
ATOM     14  C   UNL     1      -1.480  11.661  18.574  0.00  0.00    +0.000 A 
ATOM     15  C   UNL     1       0.006  11.725  18.860  0.00  0.00    +0.000 C 
BRANCH   5  16
ATOM     16  C   UNL     1       1.860  12.957  20.205  0.00  0.00    +0.000 C 
BRANCH  16  18
ATOM     17  C   UNL     1       2.122  14.885  18.622  0.00  0.00    +0.000 C 
ATOM     18  C   UNL     1       2.745  13.595  19.133  0.00  0.00    +0.000 C 
ENDBRANCH  16  18
ENDBRANCH   5  16
ENDBRANCH   1  15
BRANCH   2  19
ATOM     19  C   UNL     1       1.811   8.379  19.105  0.00  0.00    +0.000 A 
ATOM     20  C   UNL     1       1.285   8.057  20.302  0.00  0.00    +0.000 A 
ATOM     21  C   UNL     1       1.446   6.741  20.869  0.00  0.00    +0.000 A 
ATOM     22  C   UNL     1       2.103   5.788  20.184  0.00  0.00    +0.000 A 
ATOM     23  N   UNL     1       2.657   6.110  18.952  0.00  0.00    +0.000 N 
ATOM     24  C   UNL     1       2.603   7.356  18.374  0.00  0.00    +0.000 A 
ATOM     25  O   UNL     1       3.185   7.606  17.323  0.00  0.00    +0.000 OA
ATOM     26  H   UNL     1       3.167   5.401  18.433  0.00  0.00    +0.000 HD
BRANCH  22  27
ATOM     27  C   UNL     1       2.270   4.383  20.710  0.00  0.00    +0.000 C 
ATOM     28  F   UNL     1       2.514   4.378  22.048  0.00  0.00    +0.000 F 
ATOM     29  F   UNL     1       1.158   3.633  20.509  0.00  0.00    +0.000 F 
ATOM     30  F   UNL     1       3.303   3.738  20.115  0.00  0.00    +0.000 F 
ENDBRANCH  22  27
ENDBRANCH   2  19
TORSDOF 5
ENDMDL
MODEL 7
REMARK VINA RESULT:      -6.7      5.375      7.208
REMARK  Name = 
REMARK  7 active torsions:
REMARK  status: ('A' for Active; 'I' for Inactive)
REMARK    1  A    between atoms: C_1  and  C_2
REMARK    2  A    between atoms: C_2  and  C_3
REMARK    3  A    between atoms: C_3  and  C_4
REMARK    4  A    between atoms: C_9  and  C_10
REMARK    5  A    between atoms: C_14  and  N_15
REMARK    6  A    between atoms: C_16  and  C_18
REMARK    7  A    between atoms: C_21  and  C_22
REMARK                            x       y       z     vdW  Elec       q    Type
REMARK                         _______ _______ _______ _____ _____    ______ ____
ROOT
ATOM      1  N   UNL     1      -2.474  12.407  18.838  0.00  0.00    +0.000 N 
ATOM      2  C   UNL     1      -1.244  12.074  19.350  0.00  0.00    +0.000 C 
ATOM      3  O   UNL     1      -0.992  11.062  19.990  0.00  0.00    +0.000 OA
ATOM      4  H   UNL     1      -2.512  13.184  18.182  0.00  0.00    +0.000 HD
ENDROOT
BRANCH   1  15
ATOM      5  C   UNL     1      -4.254  10.944  17.765  0.00  0.00    +0.000 C 
ATOM      6  C   UNL     1      -4.965  11.938  16.843  0.00  0.00    +0.000 C 
ATOM      7  C   UNL     1      -6.098  12.670  17.565  0.00  0.00    +0.000 C 
ATOM      8  C   UNL     1      -5.860  12.988  19.022  0.00  0.00    +0.000 A 
ATOM      9  C   UNL     1      -6.792  13.798  19.690  0.00  0.00    +0.000 A 
ATOM     10  C   UNL     1      -6.649  14.100  21.051  0.00  0.00    +0.000 A 
ATOM     11  C   UNL     1      -7.647  14.965  21.757  0.00  0.00    +0.000 C 
ATOM     12  C   UNL     1      -5.553  13.588  21.747  0.00  0.00    +0.000 A 
ATOM     13  C   UNL     1      -4.613  12.786  21.095  0.00  0.00    +0.000 A 
ATOM     14  C   UNL     1      -4.762  12.476  19.735  0.00  0.00    +0.000 A 
ATOM     15  C   UNL     1      -3.705  11.648  19.036  0.00  0.00    +0.000 C 
BRANCH   5  16
ATOM     16  C   UNL     1      -3.201  10.148  16.972  0.00  0.00    +0.000 C 
BRANCH  16  18
ATOM     17  C   UNL     1      -3.078   9.976  14.472  0.00  0.00    +0.000 C 
ATOM     18  C   UNL     1      -2.754  10.838  15.682  0.00  0.00    +0.000 C 
ENDBRANCH  16  18
ENDBRANCH   5  16
ENDBRANCH   1  15
BRANCH   2  19
ATOM     19  C   UNL     1      -0.170  13.067  19.117  0.00  0.00    +0.000 A 
ATOM     20  C   UNL     1       0.996  12.599  18.632  0.00  0.00    +0.000 A 
ATOM     21  C   UNL     1       2.092  13.482  18.318  0.00  0.00    +0.000 A 
ATOM     22  C   UNL     1       1.953  14.810  18.471  0.00  0.00    +0.000 A 
ATOM     23  N   UNL     1       0.758  15.304  18.979  0.00  0.00    +0.000 N 
ATOM     24  C   UNL     1      -0.308  14.526  19.362  0.00  0.00    +0.000 A 
ATOM     25  O   UNL     1      -1.306  15.011  19.885  0.00  0.00    +0.000 OA
ATOM     26  H   UNL     1       0.649  16.306  19.112  0.00  0.00    +0.000 HD
BRANCH  22  27
ATOM     27  C   UNL     1       3.052  15.784  18.124  0.00  0.00    +0.000 C 
ATOM     28  F   UNL     1       4.166  15.566  18.873  0.00  0.00    +0.000 F 
ATOM     29  F   UNL     1       3.424  15.683  16.823  0.00  0.00    +0.000 F 
ATOM     30  F   UNL     1       2.677  17.070  18.336  0.00  0.00    +0.000 F 
ENDBRANCH  22  27
ENDBRANCH   2  19
TORSDOF 5
ENDMDL
MODEL 8
REMARK VINA RESULT:      -6.7      4.027      8.092
REMARK  Name = 
REMARK  7 active torsions:
REMARK  status: ('A' for Active; 'I' for Inactive)
REMARK    1  A    between atoms: C_1  and  C_2
REMARK    2  A    between atoms: C_2  and  C_3
REMARK    3  A    between atoms: C_3  and  C_4
REMARK    4  A    between atoms: C_9  and  C_10
REMARK    5  A    between atoms: C_14  and  N_15
REMARK    6  A    between atoms: C_16  and  C_18
REMARK    7  A    between atoms: C_21  and  C_22
REMARK                            x       y       z     vdW  Elec       q    Type
REMARK                         _______ _______ _______ _____ _____    ______ ____
ROOT
ATOM      1  N   UNL     1       3.036   7.228  18.737  0.00  0.00    +0.000 N 
ATOM      2  C   UNL     1       2.251   7.764  19.728  0.00  0.00    +0.000 C 
ATOM      3  O   UNL     1       2.215   7.381  20.890  0.00  0.00    +0.000 OA
ATOM      4  H   UNL     1       3.102   7.744  17.862  0.00  0.00    +0.000 HD
ENDROOT
BRANCH   1  15
ATOM      5  C   UNL     1       5.103   6.008  17.900  0.00  0.00    +0.000 C 
ATOM      6  C   UNL     1       4.659   5.557  16.505  0.00  0.00    +0.000 C 
ATOM      7  C   UNL     1       3.957   4.198  16.546  0.00  0.00    +0.000 C 
ATOM      8  C   UNL     1       3.104   3.929  17.763  0.00  0.00    +0.000 A 
ATOM      9  C   UNL     1       2.310   2.770  17.780  0.00  0.00    +0.000 A 
ATOM     10  C   UNL     1       1.525   2.444  18.893  0.00  0.00    +0.000 A 
ATOM     11  C   UNL     1       0.681   1.208  18.904  0.00  0.00    +0.000 C 
ATOM     12  C   UNL     1       1.532   3.293  20.001  0.00  0.00    +0.000 A 
ATOM     13  C   UNL     1       2.312   4.453  19.997  0.00  0.00    +0.000 A 
ATOM     14  C   UNL     1       3.105   4.775  18.885  0.00  0.00    +0.000 A 
ATOM     15  C   UNL     1       3.902   6.062  18.883  0.00  0.00    +0.000 C 
BRANCH   5  16
ATOM     16  C   UNL     1       5.905   7.320  17.799  0.00  0.00    +0.000 C 
BRANCH  16  18
ATOM     17  C   UNL     1       7.794   5.997  18.786  0.00  0.00    +0.000 C 
ATOM     18  C   UNL     1       7.420   7.115  17.825  0.00  0.00    +0.000 C 
ENDBRANCH  16  18
ENDBRANCH   5  16
ENDBRANCH   1  15
BRANCH   2  19
ATOM     19  C   UNL     1       1.364   8.872  19.305  0.00  0.00    +0.000 A 
ATOM     20  C   UNL     1       0.418   9.261  20.181  0.00  0.00    +0.000 A 
ATOM     21  C   UNL     1      -0.466  10.364  19.896  0.00  0.00    +0.000 A 
ATOM     22  C   UNL     1      -0.335  11.056  18.750  0.00  0.00    +0.000 A 
ATOM     23  N   UNL     1       0.631  10.658  17.835  0.00  0.00    +0.000 N 
ATOM     24  C   UNL     1       1.469   9.580  18.004  0.00  0.00    +0.000 A 
ATOM     25  O   UNL     1       2.245   9.223  17.123  0.00  0.00    +0.000 OA
ATOM     26  H   UNL     1       0.729  11.165  16.961  0.00  0.00    +0.000 HD
BRANCH  22  27
ATOM     27  C   UNL     1      -1.207  12.241  18.416  0.00  0.00    +0.000 C 
ATOM     28  F   UNL     1      -0.463  13.327  18.076  0.00  0.00    +0.000 F 
ATOM     29  F   UNL     1      -2.030  11.982  17.369  0.00  0.00    +0.000 F 
ATOM     30  F   UNL     1      -1.989  12.607  19.462  0.00  0.00    +0.000 F 
ENDBRANCH  22  27
ENDBRANCH   2  19
TORSDOF 5
ENDMDL
MODEL 9
REMARK VINA RESULT:      -6.6      1.135      1.615
REMARK  Name = 
REMARK  7 active torsions:
REMARK  status: ('A' for Active; 'I' for Inactive)
REMARK    1  A    between atoms: C_1  and  C_2
REMARK    2  A    between atoms: C_2  and  C_3
REMARK    3  A    between atoms: C_3  and  C_4
REMARK    4  A    between atoms: C_9  and  C_10
REMARK    5  A    between atoms: C_14  and  N_15
REMARK    6  A    between atoms: C_16  and  C_18
REMARK    7  A    between atoms: C_21  and  C_22
REMARK                            x       y       z     vdW  Elec       q    Type
REMARK                         _______ _______ _______ _____ _____    ______ ____
ROOT
ATOM      1  N   UNL     1       0.613  10.356  19.227  0.00  0.00    +0.000 N 
ATOM      2  C   UNL     1       1.592   9.659  18.562  0.00  0.00    +0.000 C 
ATOM      3  O   UNL     1       2.207  10.060  17.583  0.00  0.00    +0.000 OA
ATOM      4  H   UNL     1       0.303   9.986  20.124  0.00  0.00    +0.000 HD
ENDROOT
BRANCH   1  15
ATOM      5  C   UNL     1       0.460  12.831  19.782  0.00  0.00    +0.000 C 
ATOM      6  C   UNL     1      -0.404  12.818  21.047  0.00  0.00    +0.000 C 
ATOM      7  C   UNL     1      -1.896  12.869  20.714  0.00  0.00    +0.000 C 
ATOM      8  C   UNL     1      -2.324  12.132  19.467  0.00  0.00    +0.000 A 
ATOM      9  C   UNL     1      -3.697  12.009  19.200  0.00  0.00    +0.000 A 
ATOM     10  C   UNL     1      -4.158  11.369  18.043  0.00  0.00    +0.000 A 
ATOM     11  C   UNL     1      -5.624  11.240  17.766  0.00  0.00    +0.000 C 
ATOM     12  C   UNL     1      -3.229  10.840  17.144  0.00  0.00    +0.000 A 
ATOM     13  C   UNL     1      -1.860  10.949  17.399  0.00  0.00    +0.000 A 
ATOM     14  C   UNL     1      -1.398  11.598  18.553  0.00  0.00    +0.000 A 
ATOM     15  C   UNL     1       0.088  11.660  18.833  0.00  0.00    +0.000 C 
BRANCH   5  16
ATOM     16  C   UNL     1       1.951  12.896  20.163  0.00  0.00    +0.000 C 
BRANCH  16  18
ATOM     17  C   UNL     1       3.774  14.135  21.360  0.00  0.00    +0.000 C 
ATOM     18  C   UNL     1       2.368  14.229  20.786  0.00  0.00    +0.000 C 
ENDBRANCH  16  18
ENDBRANCH   5  16
ENDBRANCH   1  15
BRANCH   2  19
ATOM     19  C   UNL     1       1.869   8.301  19.083  0.00  0.00    +0.000 A 
ATOM     20  C   UNL     1       1.313   7.978  20.266  0.00  0.00    +0.000 A 
ATOM     21  C   UNL     1       1.473   6.665  20.842  0.00  0.00    +0.000 A 
ATOM     22  C   UNL     1       2.159   5.717  20.181  0.00  0.00    +0.000 A 
ATOM     23  N   UNL     1       2.745   6.041  18.963  0.00  0.00    +0.000 N 
ATOM     24  C   UNL     1       2.693   7.284  18.379  0.00  0.00    +0.000 A 
ATOM     25  O   UNL     1       3.302   7.536  17.344  0.00  0.00    +0.000 OA
ATOM     26  H   UNL     1       3.277   5.335  18.463  0.00  0.00    +0.000 HD
BRANCH  22  27
ATOM     27  C   UNL     1       2.327   4.317  20.718  0.00  0.00    +0.000 C 
ATOM     28  F   UNL     1       1.242   3.545  20.444  0.00  0.00    +0.000 F 
ATOM     29  F   UNL     1       3.402   3.694  20.174  0.00  0.00    +0.000 F 
ATOM     30  F   UNL     1       2.494   4.306  22.063  0.00  0.00    +0.000 F 
ENDBRANCH  22  27
ENDBRANCH   2  19
TORSDOF 5
ENDMDL
