MODEL 1
REMARK VINA RESULT:      -6.9      0.000      0.000
REMARK  Name = 
REMARK  6 active torsions:
REMARK  status: ('A' for Active; 'I' for Inactive)
REMARK    1  A    between atoms: N_1  and  C_2
REMARK    2  A    between atoms: N_5  and  C_6
REMARK    3  A    between atoms: C_6  and  C_7
REMARK    4  A    between atoms: C_7  and  O_8
REMARK    5  A    between atoms: C_7  and  C_9
REMARK    6  A    between atoms: C_9  and  N_10
REMARK                            x       y       z     vdW  Elec       q    Type
REMARK                         _______ _______ _______ _____ _____    ______ ____
ROOT
ATOM      1  C   UNL     1       2.488   3.363  20.753  0.00  0.00    +0.000 A 
ATOM      2  N   UNL     1       2.911   2.223  20.069  0.00  0.00    +0.000 NA
ATOM      3  C   UNL     1       3.274   2.370  18.828  0.00  0.00    +0.000 A 
ATOM      4  N   UNL     1       3.281   3.552  18.120  0.00  0.00    +0.000 N 
ATOM      5  C   UNL     1       2.806   4.663  18.755  0.00  0.00    +0.000 A 
ATOM      6  N   UNL     1       2.638   5.886  18.366  0.00  0.00    +0.000 NA
ATOM      7  C   UNL     1       2.141   6.544  19.484  0.00  0.00    +0.000 A 
ATOM      8  N   UNL     1       1.862   7.883  19.425  0.00  0.00    +0.000 N 
ATOM      9  C   UNL     1       1.493   8.490  18.137  0.00  0.00    +0.000 C 
ATOM     10  C   UNL     1       1.696  10.010  18.178  0.00  0.00    +0.000 C 
ATOM     11  O   UNL     1       1.007  10.606  19.289  0.00  0.00    +0.000 OA
ATOM     12  C   UNL     1       1.493  10.052  20.521  0.00  0.00    +0.000 C 
ATOM     13  C   UNL     1       1.251   8.541  20.584  0.00  0.00    +0.000 C 
ATOM     14  N   UNL     1       1.985   5.802  20.555  0.00  0.00    +0.000 NA
ATOM     15  C   UNL     1       2.398   4.567  20.147  0.00  0.00    +0.000 A 
ENDROOT
BRANCH   1  16
ATOM     16  N   UNL     1       2.119   3.232  22.081  0.00  0.00    +0.000 N 
ATOM     17  H   UNL     1       1.726   4.106  22.418  0.00  0.00    +0.000 HD
ATOM     18  H   UNL     1       2.889   2.880  22.642  0.00  0.00    +0.000 HD
ENDBRANCH   1  16
BRANCH   4  19
ATOM     19  C   UNL     1       3.739   3.651  16.737  0.00  0.00    +0.000 C 
BRANCH  19  20
ATOM     20  C   UNL     1       5.256   3.962  16.619  0.00  0.00    +0.000 C 
BRANCH  20  21
ATOM     21  O   UNL     1       5.948   3.064  15.749  0.00  0.00    +0.000 OA
ATOM     22  H   UNL     1       5.471   3.030  14.901  0.00  0.00    +0.000 HD
ENDBRANCH  20  21
BRANCH  20  23
ATOM     23  C   UNL     1       5.549   5.426  16.213  0.00  0.00    +0.000 C 
BRANCH  23  24
ATOM     24  N   UNL     1       6.589   5.956  17.076  0.00  0.00    +0.000 NA
ATOM     25  C   UNL     1       6.617   7.421  17.209  0.00  0.00    +0.000 C 
ATOM     26  C   UNL     1       7.991   7.807  17.776  0.00  0.00    +0.000 C 
ATOM     27  O   UNL     1       8.229   7.180  19.044  0.00  0.00    +0.000 OA
ATOM     28  C   UNL     1       8.096   5.751  18.946  0.00  0.00    +0.000 C 
ATOM     29  C   UNL     1       6.711   5.351  18.405  0.00  0.00    +0.000 C 
ENDBRANCH  23  24
ENDBRANCH  20  23
ENDBRANCH  19  20
ENDBRANCH   4  19
TORSDOF 6
ENDMDL
MODEL 2
REMARK VINA RESULT:      -6.8      0.456      1.038
REMARK  Name = 
REMARK  6 active torsions:
REMARK  status: ('A' for Active; 'I' for Inactive)
REMARK    1  A    between atoms: N_1  and  C_2
REMARK    2  A    between atoms: N_5  and  C_6
REMARK    3  A    between atoms: C_6  and  C_7
REMARK    4  A    between atoms: C_7  and  O_8
REMARK    5  A    between atoms: C_7  and  C_9
REMARK    6  A    between atoms: C_9  and  N_10
REMARK                            x       y       z     vdW  Elec       q    Type
REMARK                         _______ _______ _______ _____ _____    ______ ____
ROOT
ATOM      1  C   UNL     1       2.658   3.178  20.645  0.00  0.00    +0.000 A 
ATOM      2  N   UNL     1       3.124   2.139  19.839  0.00  0.00    +0.000 NA
ATOM      3  C   UNL     1       3.470   2.436  18.620  0.00  0.00    +0.000 A 
ATOM      4  N   UNL     1       3.419   3.687  18.045  0.00  0.00    +0.000 N 
ATOM      5  C   UNL     1       2.903   4.700  18.800  0.00  0.00    +0.000 A 
ATOM      6  N   UNL     1       2.679   5.950  18.547  0.00  0.00    +0.000 NA
ATOM      7  C   UNL     1       2.164   6.459  19.733  0.00  0.00    +0.000 A 
ATOM      8  N   UNL     1       1.827   7.783  19.821  0.00  0.00    +0.000 N 
ATOM      9  C   UNL     1       1.420   8.511  18.609  0.00  0.00    +0.000 C 
ATOM     10  C   UNL     1       1.557  10.024  18.815  0.00  0.00    +0.000 C 
ATOM     11  O   UNL     1       0.853  10.465  19.987  0.00  0.00    +0.000 OA
ATOM     12  C   UNL     1       1.374   9.802  21.149  0.00  0.00    +0.000 C 
ATOM     13  C   UNL     1       1.199   8.283  21.048  0.00  0.00    +0.000 C 
ATOM     14  N   UNL     1       2.050   5.599  20.717  0.00  0.00    +0.000 NA
ATOM     15  C   UNL     1       2.512   4.435  20.175  0.00  0.00    +0.000 A 
ENDROOT
BRANCH   1  16
ATOM     16  N   UNL     1       2.308   2.887  21.952  0.00  0.00    +0.000 N 
ATOM     17  H   UNL     1       1.370   2.500  21.980  0.00  0.00    +0.000 HD
ATOM     18  H   UNL     1       2.442   3.693  22.556  0.00  0.00    +0.000 HD
ENDBRANCH   1  16
BRANCH   4  19
ATOM     19  C   UNL     1       3.860   3.956  16.679  0.00  0.00    +0.000 C 
BRANCH  19  20
ATOM     20  C   UNL     1       5.405   4.023  16.540  0.00  0.00    +0.000 C 
BRANCH  20  21
ATOM     21  O   UNL     1       5.944   2.971  15.737  0.00  0.00    +0.000 OA
ATOM     22  H   UNL     1       5.544   2.131  16.025  0.00  0.00    +0.000 HD
ENDBRANCH  20  21
BRANCH  20  23
ATOM     23  C   UNL     1       5.914   5.393  16.030  0.00  0.00    +0.000 C 
BRANCH  23  24
ATOM     24  N   UNL     1       6.657   6.045  17.093  0.00  0.00    +0.000 NA
ATOM     25  C   UNL     1       7.456   5.154  17.948  0.00  0.00    +0.000 C 
ATOM     26  C   UNL     1       7.802   5.928  19.228  0.00  0.00    +0.000 C 
ATOM     27  O   UNL     1       8.529   7.130  18.932  0.00  0.00    +0.000 OA
ATOM     28  C   UNL     1       7.801   7.959  18.009  0.00  0.00    +0.000 C 
ATOM     29  C   UNL     1       7.473   7.201  16.709  0.00  0.00    +0.000 C 
ENDBRANCH  23  24
ENDBRANCH  20  23
ENDBRANCH  19  20
ENDBRANCH   4  19
TORSDOF 6
ENDMDL
MODEL 3
REMARK VINA RESULT:      -6.5      0.954      1.022
REMARK  Name = 
REMARK  6 active torsions:
REMARK  status: ('A' for Active; 'I' for Inactive)
REMARK    1  A    between atoms: N_1  and  C_2
REMARK    2  A    between atoms: N_5  and  C_6
REMARK    3  A    between atoms: C_6  and  C_7
REMARK    4  A    between atoms: C_7  and  O_8
REMARK    5  A    between atoms: C_7  and  C_9
REMARK    6  A    between atoms: C_9  and  N_10
REMARK                            x       y       z     vdW  Elec       q    Type
REMARK                         _______ _______ _______ _____ _____    ______ ____
ROOT
ATOM      1  C   UNL     1       2.945   3.365  19.578  0.00  0.00    +0.000 A 
ATOM      2  N   UNL     1       3.534   2.421  18.738  0.00  0.00    +0.000 NA
ATOM      3  C   UNL     1       4.001   2.842  17.598  0.00  0.00    +0.000 A 
ATOM      4  N   UNL     1       3.967   4.140  17.139  0.00  0.00    +0.000 N 
ATOM      5  C   UNL     1       3.335   5.063  17.921  0.00  0.00    +0.000 A 
ATOM      6  N   UNL     1       3.094   6.325  17.761  0.00  0.00    +0.000 NA
ATOM      7  C   UNL     1       2.434   6.705  18.923  0.00  0.00    +0.000 A 
ATOM      8  N   UNL     1       2.041   8.005  19.095  0.00  0.00    +0.000 N 
ATOM      9  C   UNL     1       1.743   8.834  17.917  0.00  0.00    +0.000 C 
ATOM     10  C   UNL     1       1.802  10.324  18.276  0.00  0.00    +0.000 C 
ATOM     11  O   UNL     1       0.958  10.633  19.396  0.00  0.00    +0.000 OA
ATOM     12  C   UNL     1       1.372   9.875  20.544  0.00  0.00    +0.000 C 
ATOM     13  C   UNL     1       1.264   8.369  20.284  0.00  0.00    +0.000 C 
ATOM     14  N   UNL     1       2.244   5.752  19.804  0.00  0.00    +0.000 NA
ATOM     15  C   UNL     1       2.805   4.657  19.213  0.00  0.00    +0.000 A 
ENDROOT
BRANCH   1  16
ATOM     16  N   UNL     1       2.464   2.941  20.805  0.00  0.00    +0.000 N 
ATOM     17  H   UNL     1       1.458   3.073  20.846  0.00  0.00    +0.000 HD
ATOM     18  H   UNL     1       2.970   3.379  21.569  0.00  0.00    +0.000 HD
ENDBRANCH   1  16
BRANCH   4  19
ATOM     19  C   UNL     1       4.546   4.551  15.862  0.00  0.00    +0.000 C 
BRANCH  19  20
ATOM     20  C   UNL     1       5.976   3.991  15.634  0.00  0.00    +0.000 C 
BRANCH  20  21
ATOM     21  O   UNL     1       6.042   3.035  14.573  0.00  0.00    +0.000 OA
ATOM     22  H   UNL     1       5.978   3.511  13.727  0.00  0.00    +0.000 HD
ENDBRANCH  20  21
BRANCH  20  23
ATOM     23  C   UNL     1       7.038   5.095  15.420  0.00  0.00    +0.000 C 
BRANCH  23  24
ATOM     24  N   UNL     1       7.514   5.550  16.714  0.00  0.00    +0.000 NA
ATOM     25  C   UNL     1       7.003   6.857  17.154  0.00  0.00    +0.000 C 
ATOM     26  C   UNL     1       7.916   7.353  18.284  0.00  0.00    +0.000 C 
ATOM     27  O   UNL     1       7.944   6.426  19.380  0.00  0.00    +0.000 OA
ATOM     28  C   UNL     1       8.339   5.116  18.936  0.00  0.00    +0.000 C 
ATOM     29  C   UNL     1       7.412   4.596  17.822  0.00  0.00    +0.000 C 
ENDBRANCH  23  24
ENDBRANCH  20  23
ENDBRANCH  19  20
ENDBRANCH   4  19
TORSDOF 6
ENDMDL
MODEL 4
REMARK VINA RESULT:      -6.4      3.779      8.506
REMARK  Name = 
REMARK  6 active torsions:
REMARK  status: ('A' for Active; 'I' for Inactive)
REMARK    1  A    between atoms: N_1  and  C_2
REMARK    2  A    between atoms: N_5  and  C_6
REMARK    3  A    between atoms: C_6  and  C_7
REMARK    4  A    between atoms: C_7  and  O_8
REMARK    5  A    between atoms: C_7  and  C_9
REMARK    6  A    between atoms: C_9  and  N_10
REMARK                            x       y       z     vdW  Elec       q    Type
REMARK                         _______ _______ _______ _____ _____    ______ ____
ROOT
ATOM      1  C   UNL     1       0.112   9.927  22.769  0.00  0.00    +0.000 A 
ATOM      2  N   UNL     1      -0.274  11.267  22.713  0.00  0.00    +0.000 NA
ATOM      3  C   UNL     1      -0.135  11.882  21.574  0.00  0.00    +0.000 A 
ATOM      4  N   UNL     1       0.361  11.334  20.412  0.00  0.00    +0.000 N 
ATOM      5  C   UNL     1       0.804  10.044  20.470  0.00  0.00    +0.000 A 
ATOM      6  N   UNL     1       1.354   9.270  19.590  0.00  0.00    +0.000 NA
ATOM      7  C   UNL     1       1.551   8.067  20.256  0.00  0.00    +0.000 A 
ATOM      8  N   UNL     1       2.110   7.003  19.601  0.00  0.00    +0.000 N 
ATOM      9  C   UNL     1       3.031   7.245  18.480  0.00  0.00    +0.000 C 
ATOM     10  C   UNL     1       3.154   5.993  17.602  0.00  0.00    +0.000 C 
ATOM     11  O   UNL     1       3.515   4.838  18.375  0.00  0.00    +0.000 OA
ATOM     12  C   UNL     1       2.518   4.590  19.379  0.00  0.00    +0.000 C 
ATOM     13  C   UNL     1       2.396   5.772  20.345  0.00  0.00    +0.000 C 
ATOM     14  N   UNL     1       1.157   8.042  21.507  0.00  0.00    +0.000 NA
ATOM     15  C   UNL     1       0.662   9.298  21.709  0.00  0.00    +0.000 A 
ENDROOT
BRANCH   1  16
ATOM     16  N   UNL     1      -0.050   9.248  23.965  0.00  0.00    +0.000 N 
ATOM     17  H   UNL     1       0.542   8.424  23.976  0.00  0.00    +0.000 HD
ATOM     18  H   UNL     1      -1.031   9.057  24.148  0.00  0.00    +0.000 HD
ENDBRANCH   1  16
BRANCH   4  19
ATOM     19  C   UNL     1       0.454  12.075  19.157  0.00  0.00    +0.000 C 
BRANCH  19  20
ATOM     20  C   UNL     1      -0.928  12.535  18.618  0.00  0.00    +0.000 C 
BRANCH  20  21
ATOM     21  O   UNL     1      -0.885  12.962  17.255  0.00  0.00    +0.000 OA
ATOM     22  H   UNL     1       0.041  13.147  17.020  0.00  0.00    +0.000 HD
ENDBRANCH  20  21
BRANCH  20  23
ATOM     23  C   UNL     1      -2.042  11.479  18.808  0.00  0.00    +0.000 C 
BRANCH  23  24
ATOM     24  N   UNL     1      -2.682  11.232  17.529  0.00  0.00    +0.000 NA
ATOM     25  C   UNL     1      -2.259  10.006  16.834  0.00  0.00    +0.000 C 
ATOM     26  C   UNL     1      -2.690  10.135  15.366  0.00  0.00    +0.000 C 
ATOM     27  O   UNL     1      -4.110  10.316  15.252  0.00  0.00    +0.000 OA
ATOM     28  C   UNL     1      -4.548  11.451  16.019  0.00  0.00    +0.000 C 
ATOM     29  C   UNL     1      -4.145  11.320  17.500  0.00  0.00    +0.000 C 
ENDBRANCH  23  24
ENDBRANCH  20  23
ENDBRANCH  19  20
ENDBRANCH   4  19
TORSDOF 6
ENDMDL
MODEL 5
REMARK VINA RESULT:      -6.4      2.005      2.891
REMARK  Name = 
REMARK  6 active torsions:
REMARK  status: ('A' for Active; 'I' for Inactive)
REMARK    1  A    between atoms: N_1  and  C_2
REMARK    2  A    between atoms: N_5  and  C_6
REMARK    3  A    between atoms: C_6  and  C_7
REMARK    4  A    between atoms: C_7  and  O_8
REMARK    5  A    between atoms: C_7  and  C_9
REMARK    6  A    between atoms: C_9  and  N_10
REMARK                            x       y       z     vdW  Elec       q    Type
REMARK                         _______ _______ _______ _____ _____    ______ ____
ROOT
ATOM      1  C   UNL     1       2.776   3.489  20.999  0.00  0.00    +0.000 A 
ATOM      2  N   UNL     1       3.649   2.474  20.608  0.00  0.00    +0.000 NA
ATOM      3  C   UNL     1       4.497   2.747  19.659  0.00  0.00    +0.000 A 
ATOM      4  N   UNL     1       4.614   3.949  18.998  0.00  0.00    +0.000 N 
ATOM      5  C   UNL     1       3.723   4.930  19.324  0.00  0.00    +0.000 A 
ATOM      6  N   UNL     1       3.538   6.128  18.868  0.00  0.00    +0.000 NA
ATOM      7  C   UNL     1       2.489   6.633  19.627  0.00  0.00    +0.000 A 
ATOM      8  N   UNL     1       2.039   7.908  19.413  0.00  0.00    +0.000 N 
ATOM      9  C   UNL     1       2.185   8.515  18.081  0.00  0.00    +0.000 C 
ATOM     10  C   UNL     1       2.082  10.042  18.169  0.00  0.00    +0.000 C 
ATOM     11  O   UNL     1       0.879  10.455  18.836  0.00  0.00    +0.000 OA
ATOM     12  C   UNL     1       0.852   9.923  20.170  0.00  0.00    +0.000 C 
ATOM     13  C   UNL     1       0.872   8.391  20.158  0.00  0.00    +0.000 C 
ATOM     14  N   UNL     1       2.002   5.819  20.533  0.00  0.00    +0.000 NA
ATOM     15  C   UNL     1       2.760   4.693  20.387  0.00  0.00    +0.000 A 
ENDROOT
BRANCH   1  16
ATOM     16  N   UNL     1       1.882   3.227  22.024  0.00  0.00    +0.000 N 
ATOM     17  H   UNL     1       0.971   3.609  21.792  0.00  0.00    +0.000 HD
ATOM     18  H   UNL     1       2.248   3.541  22.918  0.00  0.00    +0.000 HD
ENDBRANCH   1  16
BRANCH   4  19
ATOM     19  C   UNL     1       5.617   4.198  17.965  0.00  0.00    +0.000 C 
BRANCH  19  20
ATOM     20  C   UNL     1       5.039   4.125  16.526  0.00  0.00    +0.000 C 
BRANCH  20  21
ATOM     21  O   UNL     1       3.635   3.863  16.496  0.00  0.00    +0.000 OA
ATOM     22  H   UNL     1       3.501   2.900  16.547  0.00  0.00    +0.000 HD
ENDBRANCH  20  21
BRANCH  20  23
ATOM     23  C   UNL     1       5.364   5.374  15.672  0.00  0.00    +0.000 C 
BRANCH  23  24
ATOM     24  N   UNL     1       5.884   4.945  14.386  0.00  0.00    +0.000 NA
ATOM     25  C   UNL     1       7.328   5.143  14.189  0.00  0.00    +0.000 C 
ATOM     26  C   UNL     1       7.605   5.049  12.681  0.00  0.00    +0.000 C 
ATOM     27  O   UNL     1       7.192   3.780  12.152  0.00  0.00    +0.000 OA
ATOM     28  C   UNL     1       5.805   3.530  12.437  0.00  0.00    +0.000 C 
ATOM     29  C   UNL     1       5.521   3.593  13.949  0.00  0.00    +0.000 C 
ENDBRANCH  23  24
ENDBRANCH  20  23
ENDBRANCH  19  20
ENDBRANCH   4  19
TORSDOF 6
ENDMDL
MODEL 6
REMARK VINA RESULT:      -6.3      1.923      6.639
REMARK  Name = 
REMARK  6 active torsions:
REMARK  status: ('A' for Active; 'I' for Inactive)
REMARK    1  A    between atoms: N_1  and  C_2
REMARK    2  A    between atoms: N_5  and  C_6
REMARK    3  A    between atoms: C_6  and  C_7
REMARK    4  A    between atoms: C_7  and  O_8
REMARK    5  A    between atoms: C_7  and  C_9
REMARK    6  A    between atoms: C_9  and  N_10
REMARK                            x       y       z     vdW  Elec       q    Type
REMARK                         _______ _______ _______ _____ _____    ______ ____
ROOT
ATOM      1  C   UNL     1       1.583   3.042  19.046  0.00  0.00    +0.000 A 
ATOM      2  N   UNL     1       0.797   3.496  20.106  0.00  0.00    +0.000 NA
ATOM      3  C   UNL     1       1.054   4.683  20.574  0.00  0.00    +0.000 A 
ATOM      4  N   UNL     1       2.034   5.539  20.122  0.00  0.00    +0.000 N 
ATOM      5  C   UNL     1       2.853   5.081  19.131  0.00  0.00    +0.000 A 
ATOM      6  N   UNL     1       3.874   5.604  18.531  0.00  0.00    +0.000 NA
ATOM      7  C   UNL     1       4.260   4.648  17.599  0.00  0.00    +0.000 A 
ATOM      8  N   UNL     1       5.321   4.890  16.768  0.00  0.00    +0.000 N 
ATOM      9  C   UNL     1       6.396   5.792  17.207  0.00  0.00    +0.000 C 
ATOM     10  C   UNL     1       7.200   6.301  16.004  0.00  0.00    +0.000 C 
ATOM     11  O   UNL     1       7.684   5.217  15.195  0.00  0.00    +0.000 OA
ATOM     12  C   UNL     1       6.579   4.442  14.705  0.00  0.00    +0.000 C 
ATOM     13  C   UNL     1       5.772   3.834  15.856  0.00  0.00    +0.000 C 
ATOM     14  N   UNL     1       3.541   3.552  17.581  0.00  0.00    +0.000 NA
ATOM     15  C   UNL     1       2.609   3.769  18.555  0.00  0.00    +0.000 A 
ENDROOT
BRANCH   1  16
ATOM     16  N   UNL     1       1.310   1.791  18.518  0.00  0.00    +0.000 N 
ATOM     17  H   UNL     1       1.189   1.119  19.268  0.00  0.00    +0.000 HD
ATOM     18  H   UNL     1       2.008   1.524  17.830  0.00  0.00    +0.000 HD
ENDBRANCH   1  16
BRANCH   4  19
ATOM     19  C   UNL     1       2.243   6.876  20.671  0.00  0.00    +0.000 C 
BRANCH  19  20
ATOM     20  C   UNL     1       1.101   7.866  20.314  0.00  0.00    +0.000 C 
BRANCH  20  21
ATOM     21  O   UNL     1       0.509   8.478  21.461  0.00  0.00    +0.000 OA
ATOM     22  H   UNL     1      -0.385   8.110  21.579  0.00  0.00    +0.000 HD
ENDBRANCH  20  21
BRANCH  20  23
ATOM     23  C   UNL     1       1.527   8.948  19.295  0.00  0.00    +0.000 C 
BRANCH  23  24
ATOM     24  N   UNL     1       0.558  10.029  19.321  0.00  0.00    +0.000 NA
ATOM     25  C   UNL     1       1.115  11.376  19.518  0.00  0.00    +0.000 C 
ATOM     26  C   UNL     1      -0.038  12.295  19.945  0.00  0.00    +0.000 C 
ATOM     27  O   UNL     1      -1.080  12.320  18.958  0.00  0.00    +0.000 OA
ATOM     28  C   UNL     1      -1.556  10.991  18.678  0.00  0.00    +0.000 C 
ATOM     29  C   UNL     1      -0.412  10.067  18.222  0.00  0.00    +0.000 C 
ENDBRANCH  23  24
ENDBRANCH  20  23
ENDBRANCH  19  20
ENDBRANCH   4  19
TORSDOF 6
ENDMDL
MODEL 7
REMARK VINA RESULT:      -6.3      3.973      8.862
REMARK  Name = 
REMARK  6 active torsions:
REMARK  status: ('A' for Active; 'I' for Inactive)
REMARK    1  A    between atoms: N_1  and  C_2
REMARK    2  A    between atoms: N_5  and  C_6
REMARK    3  A    between atoms: C_6  and  C_7
REMARK    4  A    between atoms: C_7  and  O_8
REMARK    5  A    between atoms: C_7  and  C_9
REMARK    6  A    between atoms: C_9  and  N_10
REMARK                            x       y       z     vdW  Elec       q    Type
REMARK                         _______ _______ _______ _____ _____    ______ ____
ROOT
ATOM      1  C   UNL     1       0.113   9.833  22.571  0.00  0.00    +0.000 A 
ATOM      2  N   UNL     1      -0.300  11.156  22.410  0.00  0.00    +0.000 NA
ATOM      3  C   UNL     1      -0.168  11.683  21.227  0.00  0.00    +0.000 A 
ATOM      4  N   UNL     1       0.344  11.056  20.112  0.00  0.00    +0.000 N 
ATOM      5  C   UNL     1       0.813   9.784  20.272  0.00  0.00    +0.000 A 
ATOM      6  N   UNL     1       1.383   8.955  19.457  0.00  0.00    +0.000 NA
ATOM      7  C   UNL     1       1.601   7.812  20.216  0.00  0.00    +0.000 A 
ATOM      8  N   UNL     1       2.184   6.712  19.648  0.00  0.00    +0.000 N 
ATOM      9  C   UNL     1       3.105   6.884  18.514  0.00  0.00    +0.000 C 
ATOM     10  C   UNL     1       3.258   5.570  17.737  0.00  0.00    +0.000 C 
ATOM     11  O   UNL     1       3.639   4.487  18.599  0.00  0.00    +0.000 OA
ATOM     12  C   UNL     1       2.643   4.297  19.616  0.00  0.00    +0.000 C 
ATOM     13  C   UNL     1       2.492   5.549  20.486  0.00  0.00    +0.000 C 
ATOM     14  N   UNL     1       1.202   7.876  21.464  0.00  0.00    +0.000 NA
ATOM     15  C   UNL     1       0.681   9.134  21.566  0.00  0.00    +0.000 A 
ENDROOT
BRANCH   1  16
ATOM     16  N   UNL     1      -0.041   9.246  23.816  0.00  0.00    +0.000 N 
ATOM     17  H   UNL     1       0.515   9.745  24.503  0.00  0.00    +0.000 HD
ATOM     18  H   UNL     1       0.147   8.248  23.777  0.00  0.00    +0.000 HD
ENDBRANCH   1  16
BRANCH   4  19
ATOM     19  C   UNL     1       0.427  11.697  18.803  0.00  0.00    +0.000 C 
BRANCH  19  20
ATOM     20  C   UNL     1      -0.914  12.339  18.353  0.00  0.00    +0.000 C 
BRANCH  20  21
ATOM     21  O   UNL     1      -0.736  13.471  17.500  0.00  0.00    +0.000 OA
ATOM     22  H   UNL     1      -0.440  13.155  16.628  0.00  0.00    +0.000 HD
ENDBRANCH  20  21
BRANCH  20  23
ATOM     23  C   UNL     1      -1.886  11.329  17.699  0.00  0.00    +0.000 C 
BRANCH  23  24
ATOM     24  N   UNL     1      -3.241  11.638  18.119  0.00  0.00    +0.000 NA
ATOM     25  C   UNL     1      -4.254  10.624  17.787  0.00  0.00    +0.000 C 
ATOM     26  C   UNL     1      -5.631  11.292  17.905  0.00  0.00    +0.000 C 
ATOM     27  O   UNL     1      -5.849  11.812  19.225  0.00  0.00    +0.000 OA
ATOM     28  C   UNL     1      -4.801  12.723  19.600  0.00  0.00    +0.000 C 
ATOM     29  C   UNL     1      -3.417  12.055  19.513  0.00  0.00    +0.000 C 
ENDBRANCH  23  24
ENDBRANCH  20  23
ENDBRANCH  19  20
ENDBRANCH   4  19
TORSDOF 6
ENDMDL
MODEL 8
REMARK VINA RESULT:      -6.3      2.112      3.041
REMARK  Name = 
REMARK  6 active torsions:
REMARK  status: ('A' for Active; 'I' for Inactive)
REMARK    1  A    between atoms: N_1  and  C_2
REMARK    2  A    between atoms: N_5  and  C_6
REMARK    3  A    between atoms: C_6  and  C_7
REMARK    4  A    between atoms: C_7  and  O_8
REMARK    5  A    between atoms: C_7  and  C_9
REMARK    6  A    between atoms: C_9  and  N_10
REMARK                            x       y       z     vdW  Elec       q    Type
REMARK                         _______ _______ _______ _____ _____    ______ ____
ROOT
ATOM      1  C   UNL     1       2.778   3.804  20.411  0.00  0.00    +0.000 A 
ATOM      2  N   UNL     1       3.614   3.023  19.612  0.00  0.00    +0.000 NA
ATOM      3  C   UNL     1       4.227   3.617  18.630  0.00  0.00    +0.000 A 
ATOM      4  N   UNL     1       4.129   4.950  18.300  0.00  0.00    +0.000 N 
ATOM      5  C   UNL     1       3.264   5.712  19.031  0.00  0.00    +0.000 A 
ATOM      6  N   UNL     1       2.913   6.956  18.950  0.00  0.00    +0.000 NA
ATOM      7  C   UNL     1       2.015   7.134  19.994  0.00  0.00    +0.000 A 
ATOM      8  N   UNL     1       1.451   8.363  20.212  0.00  0.00    +0.000 N 
ATOM      9  C   UNL     1       1.279   9.291  19.084  0.00  0.00    +0.000 C 
ATOM     10  C   UNL     1       1.100  10.729  19.589  0.00  0.00    +0.000 C 
ATOM     11  O   UNL     1       0.038  10.824  20.551  0.00  0.00    +0.000 OA
ATOM     12  C   UNL     1       0.321   9.980  21.678  0.00  0.00    +0.000 C 
ATOM     13  C   UNL     1       0.435   8.511  21.259  0.00  0.00    +0.000 C 
ATOM     14  N   UNL     1       1.779   6.072  20.727  0.00  0.00    +0.000 NA
ATOM     15  C   UNL     1       2.559   5.111  20.152  0.00  0.00    +0.000 A 
ENDROOT
BRANCH   1  16
ATOM     16  N   UNL     1       2.134   3.198  21.476  0.00  0.00    +0.000 N 
ATOM     17  H   UNL     1       2.448   2.236  21.566  0.00  0.00    +0.000 HD
ATOM     18  H   UNL     1       1.126   3.300  21.402  0.00  0.00    +0.000 HD
ENDBRANCH   1  16
BRANCH   4  19
ATOM     19  C   UNL     1       4.878   5.559  17.203  0.00  0.00    +0.000 C 
BRANCH  19  20
ATOM     20  C   UNL     1       6.123   4.730  16.783  0.00  0.00    +0.000 C 
BRANCH  20  21
ATOM     21  O   UNL     1       6.851   4.207  17.895  0.00  0.00    +0.000 OA
ATOM     22  H   UNL     1       7.758   4.558  17.861  0.00  0.00    +0.000 HD
ENDBRANCH  20  21
BRANCH  20  23
ATOM     23  C   UNL     1       5.793   3.597  15.783  0.00  0.00    +0.000 C 
BRANCH  23  24
ATOM     24  N   UNL     1       6.445   3.879  14.517  0.00  0.00    +0.000 NA
ATOM     25  C   UNL     1       5.644   3.600  13.315  0.00  0.00    +0.000 C 
ATOM     26  C   UNL     1       6.608   3.540  12.122  0.00  0.00    +0.000 C 
ATOM     27  O   UNL     1       7.333   4.769  11.972  0.00  0.00    +0.000 OA
ATOM     28  C   UNL     1       8.032   5.106  13.182  0.00  0.00    +0.000 C 
ATOM     29  C   UNL     1       7.071   5.198  14.381  0.00  0.00    +0.000 C 
ENDBRANCH  23  24
ENDBRANCH  20  23
ENDBRANCH  19  20
ENDBRANCH   4  19
TORSDOF 6
ENDMDL
MODEL 9
REMARK VINA RESULT:      -6.2      2.412      4.797
REMARK  Name = 
REMARK  6 active torsions:
REMARK  status: ('A' for Active; 'I' for Inactive)
REMARK    1  A    between atoms: N_1  and  C_2
REMARK    2  A    between atoms: N_5  and  C_6
REMARK    3  A    between atoms: C_6  and  C_7
REMARK    4  A    between atoms: C_7  and  O_8
REMARK    5  A    between atoms: C_7  and  C_9
REMARK    6  A    between atoms: C_9  and  N_10
REMARK                            x       y       z     vdW  Elec       q    Type
REMARK                         _______ _______ _______ _____ _____    ______ ____
ROOT
ATOM      1  C   UNL     1       5.141   6.143  16.584  0.00  0.00    +0.000 A 
ATOM      2  N   UNL     1       5.945   5.027  16.818  0.00  0.00    +0.000 NA
ATOM      3  C   UNL     1       5.739   4.362  17.918  0.00  0.00    +0.000 A 
ATOM      4  N   UNL     1       4.799   4.657  18.880  0.00  0.00    +0.000 N 
ATOM      5  C   UNL     1       4.051   5.784  18.697  0.00  0.00    +0.000 A 
ATOM      6  N   UNL     1       3.138   6.352  19.418  0.00  0.00    +0.000 NA
ATOM      7  C   UNL     1       2.743   7.457  18.674  0.00  0.00    +0.000 A 
ATOM      8  N   UNL     1       1.761   8.286  19.146  0.00  0.00    +0.000 N 
ATOM      9  C   UNL     1       1.555   8.413  20.597  0.00  0.00    +0.000 C 
ATOM     10  C   UNL     1       0.158   8.971  20.898  0.00  0.00    +0.000 C 
ATOM     11  O   UNL     1      -0.084  10.200  20.196  0.00  0.00    +0.000 OA
ATOM     12  C   UNL     1       0.021   9.983  18.780  0.00  0.00    +0.000 C 
ATOM     13  C   UNL     1       1.422   9.498  18.394  0.00  0.00    +0.000 C 
ATOM     14  N   UNL     1       3.357   7.617  17.526  0.00  0.00    +0.000 NA
ATOM     15  C   UNL     1       4.223   6.562  17.481  0.00  0.00    +0.000 A 
ENDROOT
BRANCH   1  16
ATOM     16  N   UNL     1       5.327   6.851  15.409  0.00  0.00    +0.000 N 
ATOM     17  H   UNL     1       4.483   7.366  15.179  0.00  0.00    +0.000 HD
ATOM     18  H   UNL     1       5.659   6.244  14.664  0.00  0.00    +0.000 HD
ENDBRANCH   1  16
BRANCH   4  19
ATOM     19  C   UNL     1       4.598   3.842  20.075  0.00  0.00    +0.000 C 
BRANCH  19  20
ATOM     20  C   UNL     1       5.008   2.358  19.877  0.00  0.00    +0.000 C 
BRANCH  20  21
ATOM     21  O   UNL     1       5.266   1.677  21.106  0.00  0.00    +0.000 OA
ATOM     22  H   UNL     1       4.605   0.969  21.209  0.00  0.00    +0.000 HD
ENDBRANCH  20  21
BRANCH  20  23
ATOM     23  C   UNL     1       3.996   1.553  19.027  0.00  0.00    +0.000 C 
BRANCH  23  24
ATOM     24  N   UNL     1       2.804   2.357  18.824  0.00  0.00    +0.000 NA
ATOM     25  C   UNL     1       2.442   2.611  17.422  0.00  0.00    +0.000 C 
ATOM     26  C   UNL     1       1.460   3.791  17.405  0.00  0.00    +0.000 C 
ATOM     27  O   UNL     1       0.289   3.509  18.186  0.00  0.00    +0.000 OA
ATOM     28  C   UNL     1       0.643   3.152  19.534  0.00  0.00    +0.000 C 
ATOM     29  C   UNL     1       1.606   1.951  19.564  0.00  0.00    +0.000 C 
ENDBRANCH  23  24
ENDBRANCH  20  23
ENDBRANCH  19  20
ENDBRANCH   4  19
TORSDOF 6
ENDMDL
