MODEL 1
REMARK VINA RESULT:      -8.1      0.000      0.000
REMARK  Name = 
REMARK  8 active torsions:
REMARK  status: ('A' for Active; 'I' for Inactive)
REMARK    1  A    between atoms: C_1  and  C_2
REMARK    2  A    between atoms: C_2  and  C_3
REMARK    3  A    between atoms: C_3  and  C_4
REMARK    4  A    between atoms: C_4  and  N_5
REMARK    5  A    between atoms: N_5  and  C_6
REMARK    6  A    between atoms: C_9  and  C_10
REMARK    7  A    between atoms: C_12  and  C_13
REMARK    8  A    between atoms: C_22  and  N_23
REMARK                            x       y       z     vdW  Elec       q    Type
REMARK                         _______ _______ _______ _____ _____    ______ ____
ROOT
ATOM      1  C   UNL     1       5.257   4.991  17.169  0.00  0.00    +0.000 A 
ATOM      2  C   UNL     1       5.220   6.301  16.669  0.00  0.00    +0.000 A 
ATOM      3  C   UNL     1       4.292   7.248  17.130  0.00  0.00    +0.000 A 
ATOM      4  C   UNL     1       3.335   6.911  18.093  0.00  0.00    +0.000 A 
ATOM      5  C   UNL     1       3.309   5.596  18.566  0.00  0.00    +0.000 A 
ATOM      6  C   UNL     1       4.246   4.661  18.094  0.00  0.00    +0.000 A 
ENDROOT
BRANCH   4   7
ATOM      7  C   UNL     1       2.376   7.879  18.600  0.00  0.00    +0.000 A 
ATOM      8  N   UNL     1       1.992   8.098  19.835  0.00  0.00    +0.000 NA
ATOM      9  C   UNL     1       1.076   9.126  19.687  0.00  0.00    +0.000 A 
ATOM     10  N   UNL     1       0.917   9.526  18.414  0.00  0.00    +0.000 NA
ATOM     11  O   UNL     1       1.777   8.704  17.694  0.00  0.00    +0.000 OA
BRANCH   9  12
ATOM     12  C   UNL     1       0.367   9.696  20.834  0.00  0.00    +0.000 A 
ATOM     13  C   UNL     1       0.375   9.030  22.060  0.00  0.00    +0.000 A 
ATOM     14  C   UNL     1      -0.318   9.584  23.133  0.00  0.00    +0.000 A 
ATOM     15  C   UNL     1      -0.998  10.781  22.955  0.00  0.00    +0.000 A 
ATOM     16  C   UNL     1      -0.956  11.381  21.707  0.00  0.00    +0.000 A 
ATOM     17  N   UNL     1      -0.292  10.869  20.649  0.00  0.00    +0.000 NA
ENDBRANCH   9  12
ENDBRANCH   4   7
BRANCH   6  18
ATOM     18  N   UNL     1       4.157   3.314  18.636  0.00  0.00    +0.000 N 
ATOM     19  O   UNL     1       4.957   3.009  19.533  0.00  0.00    +0.000 OA
ATOM     20  O   UNL     1       3.274   2.574  18.179  0.00  0.00    +0.000 OA
ENDBRANCH   6  18
BRANCH   1  21
ATOM     21  N   UNL     1       6.142   4.034  16.648  0.00  0.00    +0.000 N 
ATOM     22  H   UNL     1       6.882   3.794  17.314  0.00  0.00    +0.000 HD
BRANCH  21  23
ATOM     23  C   UNL     1       6.697   4.238  15.308  0.00  0.00    +0.000 C 
BRANCH  23  24
ATOM     24  C   UNL     1       5.636   3.939  14.248  0.00  0.00    +0.000 C 
BRANCH  24  26
ATOM     25  C   UNL     1       5.206   3.226  11.870  0.00  0.00    +0.000 C 
ATOM     26  C   UNL     1       6.257   3.651  12.880  0.00  0.00    +0.000 C 
ENDBRANCH  24  26
ENDBRANCH  23  24
ENDBRANCH  21  23
ENDBRANCH   1  21
TORSDOF 7
ENDMDL
MODEL 2
REMARK VINA RESULT:      -7.9      0.805      1.065
REMARK  Name = 
REMARK  8 active torsions:
REMARK  status: ('A' for Active; 'I' for Inactive)
REMARK    1  A    between atoms: C_1  and  C_2
REMARK    2  A    between atoms: C_2  and  C_3
REMARK    3  A    between atoms: C_3  and  C_4
REMARK    4  A    between atoms: C_4  and  N_5
REMARK    5  A    between atoms: N_5  and  C_6
REMARK    6  A    between atoms: C_9  and  C_10
REMARK    7  A    between atoms: C_12  and  C_13
REMARK    8  A    between atoms: C_22  and  N_23
REMARK                            x       y       z     vdW  Elec       q    Type
REMARK                         _______ _______ _______ _____ _____    ______ ____
ROOT
ATOM      1  C   UNL     1       4.511   5.001  17.059  0.00  0.00    +0.000 A 
ATOM      2  C   UNL     1       4.837   6.351  16.863  0.00  0.00    +0.000 A 
ATOM      3  C   UNL     1       4.046   7.390  17.378  0.00  0.00    +0.000 A 
ATOM      4  C   UNL     1       2.871   7.120  18.086  0.00  0.00    +0.000 A 
ATOM      5  C   UNL     1       2.488   5.785  18.246  0.00  0.00    +0.000 A 
ATOM      6  C   UNL     1       3.292   4.756  17.724  0.00  0.00    +0.000 A 
ENDROOT
BRANCH   4   7
ATOM      7  C   UNL     1       2.045   8.178  18.646  0.00  0.00    +0.000 A 
ATOM      8  N   UNL     1       1.573   8.305  19.863  0.00  0.00    +0.000 NA
ATOM      9  C   UNL     1       0.872   9.498  19.790  0.00  0.00    +0.000 A 
ATOM     10  N   UNL     1       0.926  10.079  18.579  0.00  0.00    +0.000 NA
ATOM     11  O   UNL     1       1.703   9.209  17.823  0.00  0.00    +0.000 OA
BRANCH   9  12
ATOM     12  C   UNL     1       0.150  10.039  20.943  0.00  0.00    +0.000 A 
ATOM     13  C   UNL     1       0.214   9.387  22.174  0.00  0.00    +0.000 A 
ATOM     14  C   UNL     1      -0.491   9.912  23.253  0.00  0.00    +0.000 A 
ATOM     15  C   UNL     1      -1.238  11.070  23.076  0.00  0.00    +0.000 A 
ATOM     16  C   UNL     1      -1.248  11.659  21.822  0.00  0.00    +0.000 A 
ATOM     17  N   UNL     1      -0.573  11.173  20.758  0.00  0.00    +0.000 NA
ENDBRANCH   9  12
ENDBRANCH   4   7
BRANCH   6  18
ATOM     18  N   UNL     1       2.830   3.394  17.933  0.00  0.00    +0.000 N 
ATOM     19  O   UNL     1       2.403   2.781  16.944  0.00  0.00    +0.000 OA
ATOM     20  O   UNL     1       2.918   2.932  19.080  0.00  0.00    +0.000 OA
ENDBRANCH   6  18
BRANCH   1  21
ATOM     21  N   UNL     1       5.271   3.974  16.477  0.00  0.00    +0.000 N 
ATOM     22  H   UNL     1       5.147   3.082  16.966  0.00  0.00    +0.000 HD
BRANCH  21  23
ATOM     23  C   UNL     1       6.685   4.216  16.188  0.00  0.00    +0.000 C 
BRANCH  23  24
ATOM     24  C   UNL     1       6.873   4.527  14.702  0.00  0.00    +0.000 C 
BRANCH  24  26
ATOM     25  C   UNL     1       6.277   3.560  12.453  0.00  0.00    +0.000 C 
ATOM     26  C   UNL     1       5.770   3.906  13.842  0.00  0.00    +0.000 C 
ENDBRANCH  24  26
ENDBRANCH  23  24
ENDBRANCH  21  23
ENDBRANCH   1  21
TORSDOF 7
ENDMDL
MODEL 3
REMARK VINA RESULT:      -7.8      1.915      2.244
REMARK  Name = 
REMARK  8 active torsions:
REMARK  status: ('A' for Active; 'I' for Inactive)
REMARK    1  A    between atoms: C_1  and  C_2
REMARK    2  A    between atoms: C_2  and  C_3
REMARK    3  A    between atoms: C_3  and  C_4
REMARK    4  A    between atoms: C_4  and  N_5
REMARK    5  A    between atoms: N_5  and  C_6
REMARK    6  A    between atoms: C_9  and  C_10
REMARK    7  A    between atoms: C_12  and  C_13
REMARK    8  A    between atoms: C_22  and  N_23
REMARK                            x       y       z     vdW  Elec       q    Type
REMARK                         _______ _______ _______ _____ _____    ______ ____
ROOT
ATOM      1  C   UNL     1       4.858   4.574  16.827  0.00  0.00    +0.000 A 
ATOM      2  C   UNL     1       5.214   5.921  16.668  0.00  0.00    +0.000 A 
ATOM      3  C   UNL     1       4.437   6.963  17.199  0.00  0.00    +0.000 A 
ATOM      4  C   UNL     1       3.249   6.699  17.888  0.00  0.00    +0.000 A 
ATOM      5  C   UNL     1       2.838   5.368  18.011  0.00  0.00    +0.000 A 
ATOM      6  C   UNL     1       3.628   4.337  17.473  0.00  0.00    +0.000 A 
ENDROOT
BRANCH   4   7
ATOM      7  C   UNL     1       2.438   7.760  18.464  0.00  0.00    +0.000 A 
ATOM      8  N   UNL     1       1.937   8.827  17.889  0.00  0.00    +0.000 NA
ATOM      9  C   UNL     1       1.271   9.446  18.933  0.00  0.00    +0.000 A 
ATOM     10  N   UNL     1       1.353   8.776  20.096  0.00  0.00    +0.000 NA
ATOM     11  O   UNL     1       2.122   7.660  19.787  0.00  0.00    +0.000 OA
BRANCH   9  12
ATOM     12  C   UNL     1       0.559  10.712  18.749  0.00  0.00    +0.000 A 
ATOM     13  C   UNL     1       1.207  11.921  19.002  0.00  0.00    +0.000 A 
ATOM     14  C   UNL     1       0.506  13.111  18.833  0.00  0.00    +0.000 A 
ATOM     15  C   UNL     1      -0.818  13.064  18.418  0.00  0.00    +0.000 A 
ATOM     16  C   UNL     1      -1.390  11.824  18.185  0.00  0.00    +0.000 A 
ATOM     17  N   UNL     1      -0.734  10.653  18.339  0.00  0.00    +0.000 NA
ENDBRANCH   9  12
ENDBRANCH   4   7
BRANCH   6  18
ATOM     18  N   UNL     1       3.137   2.979  17.643  0.00  0.00    +0.000 N 
ATOM     19  O   UNL     1       3.893   2.167  18.197  0.00  0.00    +0.000 OA
ATOM     20  O   UNL     1       1.989   2.735  17.245  0.00  0.00    +0.000 OA
ENDBRANCH   6  18
BRANCH   1  21
ATOM     21  N   UNL     1       5.605   3.546  16.229  0.00  0.00    +0.000 N 
ATOM     22  H   UNL     1       6.136   3.007  16.919  0.00  0.00    +0.000 HD
BRANCH  21  23
ATOM     23  C   UNL     1       6.434   3.858  15.064  0.00  0.00    +0.000 C 
BRANCH  23  24
ATOM     24  C   UNL     1       5.553   4.070  13.831  0.00  0.00    +0.000 C 
BRANCH  24  26
ATOM     25  C   UNL     1       5.096   2.932  11.630  0.00  0.00    +0.000 C 
ATOM     26  C   UNL     1       6.167   3.448  12.575  0.00  0.00    +0.000 C 
ENDBRANCH  24  26
ENDBRANCH  23  24
ENDBRANCH  21  23
ENDBRANCH   1  21
TORSDOF 7
ENDMDL
MODEL 4
REMARK VINA RESULT:      -7.8      0.678      1.027
REMARK  Name = 
REMARK  8 active torsions:
REMARK  status: ('A' for Active; 'I' for Inactive)
REMARK    1  A    between atoms: C_1  and  C_2
REMARK    2  A    between atoms: C_2  and  C_3
REMARK    3  A    between atoms: C_3  and  C_4
REMARK    4  A    between atoms: C_4  and  N_5
REMARK    5  A    between atoms: N_5  and  C_6
REMARK    6  A    between atoms: C_9  and  C_10
REMARK    7  A    between atoms: C_12  and  C_13
REMARK    8  A    between atoms: C_22  and  N_23
REMARK                            x       y       z     vdW  Elec       q    Type
REMARK                         _______ _______ _______ _____ _____    ______ ____
ROOT
ATOM      1  C   UNL     1       5.294   4.953  16.967  0.00  0.00    +0.000 A 
ATOM      2  C   UNL     1       5.199   6.251  16.445  0.00  0.00    +0.000 A 
ATOM      3  C   UNL     1       4.284   7.190  16.947  0.00  0.00    +0.000 A 
ATOM      4  C   UNL     1       3.399   6.855  17.977  0.00  0.00    +0.000 A 
ATOM      5  C   UNL     1       3.430   5.550  18.477  0.00  0.00    +0.000 A 
ATOM      6  C   UNL     1       4.353   4.623  17.963  0.00  0.00    +0.000 A 
ENDROOT
BRANCH   4   7
ATOM      7  C   UNL     1       2.455   7.816  18.527  0.00  0.00    +0.000 A 
ATOM      8  N   UNL     1       2.074   7.986  19.770  0.00  0.00    +0.000 NA
ATOM      9  C   UNL     1       1.176   9.035  19.669  0.00  0.00    +0.000 A 
ATOM     10  N   UNL     1       1.024   9.493  18.414  0.00  0.00    +0.000 NA
ATOM     11  O   UNL     1       1.871   8.690  17.659  0.00  0.00    +0.000 OA
BRANCH   9  12
ATOM     12  C   UNL     1       0.474   9.564  20.840  0.00  0.00    +0.000 A 
ATOM     13  C   UNL     1      -0.333  10.695  20.717  0.00  0.00    +0.000 A 
ATOM     14  C   UNL     1      -0.979  11.188  21.847  0.00  0.00    +0.000 A 
ATOM     15  C   UNL     1      -0.803  10.543  23.064  0.00  0.00    +0.000 A 
ATOM     16  C   UNL     1       0.013   9.425  23.102  0.00  0.00    +0.000 A 
ATOM     17  N   UNL     1       0.651   8.923  22.023  0.00  0.00    +0.000 NA
ENDBRANCH   9  12
ENDBRANCH   4   7
BRANCH   6  18
ATOM     18  N   UNL     1       4.327   3.287  18.536  0.00  0.00    +0.000 N 
ATOM     19  O   UNL     1       4.870   3.131  19.640  0.00  0.00    +0.000 OA
ATOM     20  O   UNL     1       3.744   2.403  17.893  0.00  0.00    +0.000 OA
ENDBRANCH   6  18
BRANCH   1  21
ATOM     21  N   UNL     1       6.163   4.003  16.408  0.00  0.00    +0.000 N 
ATOM     22  H   UNL     1       7.142   4.300  16.461  0.00  0.00    +0.000 HD
BRANCH  21  23
ATOM     23  C   UNL     1       5.858   3.454  15.086  0.00  0.00    +0.000 C 
BRANCH  23  24
ATOM     24  C   UNL     1       6.456   4.344  13.995  0.00  0.00    +0.000 C 
BRANCH  24  26
ATOM     25  C   UNL     1       5.106   3.342  12.119  0.00  0.00    +0.000 C 
ATOM     26  C   UNL     1       6.502   3.637  12.639  0.00  0.00    +0.000 C 
ENDBRANCH  24  26
ENDBRANCH  23  24
ENDBRANCH  21  23
ENDBRANCH   1  21
TORSDOF 7
ENDMDL
MODEL 5
REMARK VINA RESULT:      -7.7      1.571      2.056
REMARK  Name = 
REMARK  8 active torsions:
REMARK  status: ('A' for Active; 'I' for Inactive)
REMARK    1  A    between atoms: C_1  and  C_2
REMARK    2  A    between atoms: C_2  and  C_3
REMARK    3  A    between atoms: C_3  and  C_4
REMARK    4  A    between atoms: C_4  and  N_5
REMARK    5  A    between atoms: N_5  and  C_6
REMARK    6  A    between atoms: C_9  and  C_10
REMARK    7  A    between atoms: C_12  and  C_13
REMARK    8  A    between atoms: C_22  and  N_23
REMARK                            x       y       z     vdW  Elec       q    Type
REMARK                         _______ _______ _______ _____ _____    ______ ____
ROOT
ATOM      1  C   UNL     1       5.022   4.903  17.069  0.00  0.00    +0.000 A 
ATOM      2  C   UNL     1       3.666   4.613  17.284  0.00  0.00    +0.000 A 
ATOM      3  C   UNL     1       2.770   5.572  17.780  0.00  0.00    +0.000 A 
ATOM      4  C   UNL     1       3.202   6.860  18.114  0.00  0.00    +0.000 A 
ATOM      5  C   UNL     1       4.559   7.160  17.967  0.00  0.00    +0.000 A 
ATOM      6  C   UNL     1       5.444   6.188  17.468  0.00  0.00    +0.000 A 
ENDROOT
BRANCH   4   7
ATOM      7  C   UNL     1       2.289   7.877  18.611  0.00  0.00    +0.000 A 
ATOM      8  N   UNL     1       1.892   8.107  19.839  0.00  0.00    +0.000 NA
ATOM      9  C   UNL     1       1.039   9.187  19.683  0.00  0.00    +0.000 A 
ATOM     10  N   UNL     1       0.930   9.605  18.410  0.00  0.00    +0.000 NA
ATOM     11  O   UNL     1       1.757   8.742  17.701  0.00  0.00    +0.000 OA
BRANCH   9  12
ATOM     12  C   UNL     1       0.338   9.786  20.820  0.00  0.00    +0.000 A 
ATOM     13  C   UNL     1       0.257   9.097  22.031  0.00  0.00    +0.000 A 
ATOM     14  C   UNL     1      -0.426   9.680  23.094  0.00  0.00    +0.000 A 
ATOM     15  C   UNL     1      -1.007  10.930  22.922  0.00  0.00    +0.000 A 
ATOM     16  C   UNL     1      -0.880  11.549  21.691  0.00  0.00    +0.000 A 
ATOM     17  N   UNL     1      -0.222  11.009  20.641  0.00  0.00    +0.000 NA
ENDBRANCH   9  12
ENDBRANCH   4   7
BRANCH   6  18
ATOM     18  N   UNL     1       6.839   6.575  17.340  0.00  0.00    +0.000 N 
ATOM     19  O   UNL     1       7.081   7.639  16.751  0.00  0.00    +0.000 OA
ATOM     20  O   UNL     1       7.687   5.828  17.849  0.00  0.00    +0.000 OA
ENDBRANCH   6  18
BRANCH   1  21
ATOM     21  N   UNL     1       5.922   3.914  16.642  0.00  0.00    +0.000 N 
ATOM     22  H   UNL     1       6.896   4.200  16.773  0.00  0.00    +0.000 HD
BRANCH  21  23
ATOM     23  C   UNL     1       5.732   3.305  15.324  0.00  0.00    +0.000 C 
BRANCH  23  24
ATOM     24  C   UNL     1       5.982   4.339  14.225  0.00  0.00    +0.000 C 
BRANCH  24  26
ATOM     25  C   UNL     1       4.944   3.441  12.112  0.00  0.00    +0.000 C 
ATOM     26  C   UNL     1       6.240   3.681  12.868  0.00  0.00    +0.000 C 
ENDBRANCH  24  26
ENDBRANCH  23  24
ENDBRANCH  21  23
ENDBRANCH   1  21
TORSDOF 7
ENDMDL
MODEL 6
REMARK VINA RESULT:      -7.7      1.307      1.809
REMARK  Name = 
REMARK  8 active torsions:
REMARK  status: ('A' for Active; 'I' for Inactive)
REMARK    1  A    between atoms: C_1  and  C_2
REMARK    2  A    between atoms: C_2  and  C_3
REMARK    3  A    between atoms: C_3  and  C_4
REMARK    4  A    between atoms: C_4  and  N_5
REMARK    5  A    between atoms: N_5  and  C_6
REMARK    6  A    between atoms: C_9  and  C_10
REMARK    7  A    between atoms: C_12  and  C_13
REMARK    8  A    between atoms: C_22  and  N_23
REMARK                            x       y       z     vdW  Elec       q    Type
REMARK                         _______ _______ _______ _____ _____    ______ ____
ROOT
ATOM      1  C   UNL     1       4.886   4.857  17.251  0.00  0.00    +0.000 A 
ATOM      2  C   UNL     1       4.667   6.190  16.874  0.00  0.00    +0.000 A 
ATOM      3  C   UNL     1       3.809   7.036  17.593  0.00  0.00    +0.000 A 
ATOM      4  C   UNL     1       3.103   6.570  18.708  0.00  0.00    +0.000 A 
ATOM      5  C   UNL     1       3.255   5.229  19.072  0.00  0.00    +0.000 A 
ATOM      6  C   UNL     1       4.119   4.396  18.341  0.00  0.00    +0.000 A 
ENDROOT
BRANCH   4   7
ATOM      7  C   UNL     1       2.223   7.432  19.481  0.00  0.00    +0.000 A 
ATOM      8  N   UNL     1       1.783   8.635  19.199  0.00  0.00    +0.000 NA
ATOM      9  C   UNL     1       0.996   8.933  20.299  0.00  0.00    +0.000 A 
ATOM     10  N   UNL     1       0.950   7.945  21.210  0.00  0.00    +0.000 NA
ATOM     11  O   UNL     1       1.758   6.952  20.669  0.00  0.00    +0.000 OA
BRANCH   9  12
ATOM     12  C   UNL     1       0.300  10.215  20.423  0.00  0.00    +0.000 A 
ATOM     13  C   UNL     1      -0.775  10.508  19.584  0.00  0.00    +0.000 A 
ATOM     14  C   UNL     1      -1.414  11.738  19.712  0.00  0.00    +0.000 A 
ATOM     15  C   UNL     1      -0.964  12.639  20.668  0.00  0.00    +0.000 A 
ATOM     16  C   UNL     1       0.108  12.271  21.464  0.00  0.00    +0.000 A 
ATOM     17  N   UNL     1       0.746  11.085  21.365  0.00  0.00    +0.000 NA
ENDBRANCH   9  12
ENDBRANCH   4   7
BRANCH   6  18
ATOM     18  N   UNL     1       4.227   3.015  18.782  0.00  0.00    +0.000 N 
ATOM     19  O   UNL     1       3.678   2.151  18.082  0.00  0.00    +0.000 OA
ATOM     20  O   UNL     1       4.878   2.795  19.813  0.00  0.00    +0.000 OA
ENDBRANCH   6  18
BRANCH   1  21
ATOM     21  N   UNL     1       5.690   4.003  16.481  0.00  0.00    +0.000 N 
ATOM     22  H   UNL     1       5.790   3.078  16.912  0.00  0.00    +0.000 HD
BRANCH  21  23
ATOM     23  C   UNL     1       6.982   4.491  15.997  0.00  0.00    +0.000 C 
BRANCH  23  24
ATOM     24  C   UNL     1       6.957   4.627  14.474  0.00  0.00    +0.000 C 
BRANCH  24  26
ATOM     25  C   UNL     1       6.114   3.447  12.413  0.00  0.00    +0.000 C 
ATOM     26  C   UNL     1       5.804   3.841  13.847  0.00  0.00    +0.000 C 
ENDBRANCH  24  26
ENDBRANCH  23  24
ENDBRANCH  21  23
ENDBRANCH   1  21
TORSDOF 7
ENDMDL
MODEL 7
REMARK VINA RESULT:      -7.7      1.859      2.390
REMARK  Name = 
REMARK  8 active torsions:
REMARK  status: ('A' for Active; 'I' for Inactive)
REMARK    1  A    between atoms: C_1  and  C_2
REMARK    2  A    between atoms: C_2  and  C_3
REMARK    3  A    between atoms: C_3  and  C_4
REMARK    4  A    between atoms: C_4  and  N_5
REMARK    5  A    between atoms: N_5  and  C_6
REMARK    6  A    between atoms: C_9  and  C_10
REMARK    7  A    between atoms: C_12  and  C_13
REMARK    8  A    between atoms: C_22  and  N_23
REMARK                            x       y       z     vdW  Elec       q    Type
REMARK                         _______ _______ _______ _____ _____    ______ ____
ROOT
ATOM      1  C   UNL     1       5.223   4.224  16.719  0.00  0.00    +0.000 A 
ATOM      2  C   UNL     1       3.840   3.992  16.742  0.00  0.00    +0.000 A 
ATOM      3  C   UNL     1       2.988   4.662  17.633  0.00  0.00    +0.000 A 
ATOM      4  C   UNL     1       3.492   5.574  18.567  0.00  0.00    +0.000 A 
ATOM      5  C   UNL     1       4.874   5.781  18.608  0.00  0.00    +0.000 A 
ATOM      6  C   UNL     1       5.713   5.101  17.707  0.00  0.00    +0.000 A 
ENDROOT
BRANCH   4   7
ATOM      7  C   UNL     1       2.627   6.295  19.487  0.00  0.00    +0.000 A 
ATOM      8  N   UNL     1       2.311   7.568  19.503  0.00  0.00    +0.000 NA
ATOM      9  C   UNL     1       1.467   7.654  20.598  0.00  0.00    +0.000 A 
ATOM     10  N   UNL     1       1.268   6.478  21.217  0.00  0.00    +0.000 NA
ATOM     11  O   UNL     1       2.033   5.578  20.482  0.00  0.00    +0.000 OA
BRANCH   9  12
ATOM     12  C   UNL     1       0.870   8.926  21.012  0.00  0.00    +0.000 A 
ATOM     13  C   UNL     1       0.305   9.050  22.281  0.00  0.00    +0.000 A 
ATOM     14  C   UNL     1      -0.269  10.264  22.647  0.00  0.00    +0.000 A 
ATOM     15  C   UNL     1      -0.263  11.317  21.742  0.00  0.00    +0.000 A 
ATOM     16  C   UNL     1       0.320  11.114  20.502  0.00  0.00    +0.000 A 
ATOM     17  N   UNL     1       0.885   9.948  20.119  0.00  0.00    +0.000 NA
ENDBRANCH   9  12
ENDBRANCH   4   7
BRANCH   6  18
ATOM     18  N   UNL     1       7.138   5.371  17.809  0.00  0.00    +0.000 N 
ATOM     19  O   UNL     1       7.862   4.453  18.224  0.00  0.00    +0.000 OA
ATOM     20  O   UNL     1       7.533   6.490  17.453  0.00  0.00    +0.000 OA
ENDBRANCH   6  18
BRANCH   1  21
ATOM     21  N   UNL     1       6.072   3.493  15.873  0.00  0.00    +0.000 N 
ATOM     22  H   UNL     1       6.890   3.130  16.371  0.00  0.00    +0.000 HD
BRANCH  21  23
ATOM     23  C   UNL     1       6.464   4.076  14.588  0.00  0.00    +0.000 C 
BRANCH  23  24
ATOM     24  C   UNL     1       5.380   3.817  13.540  0.00  0.00    +0.000 C 
BRANCH  24  26
ATOM     25  C   UNL     1       7.252   4.072  11.872  0.00  0.00    +0.000 C 
ATOM     26  C   UNL     1       5.970   3.332  12.214  0.00  0.00    +0.000 C 
ENDBRANCH  24  26
ENDBRANCH  23  24
ENDBRANCH  21  23
ENDBRANCH   1  21
TORSDOF 7
ENDMDL
MODEL 8
REMARK VINA RESULT:      -7.6      1.959      2.535
REMARK  Name = 
REMARK  8 active torsions:
REMARK  status: ('A' for Active; 'I' for Inactive)
REMARK    1  A    between atoms: C_1  and  C_2
REMARK    2  A    between atoms: C_2  and  C_3
REMARK    3  A    between atoms: C_3  and  C_4
REMARK    4  A    between atoms: C_4  and  N_5
REMARK    5  A    between atoms: N_5  and  C_6
REMARK    6  A    between atoms: C_9  and  C_10
REMARK    7  A    between atoms: C_12  and  C_13
REMARK    8  A    between atoms: C_22  and  N_23
REMARK                            x       y       z     vdW  Elec       q    Type
REMARK                         _______ _______ _______ _____ _____    ______ ____
ROOT
ATOM      1  C   UNL     1       5.338   4.342  16.682  0.00  0.00    +0.000 A 
ATOM      2  C   UNL     1       3.974   4.023  16.741  0.00  0.00    +0.000 A 
ATOM      3  C   UNL     1       3.098   4.661  17.633  0.00  0.00    +0.000 A 
ATOM      4  C   UNL     1       3.562   5.627  18.533  0.00  0.00    +0.000 A 
ATOM      5  C   UNL     1       4.928   5.923  18.539  0.00  0.00    +0.000 A 
ATOM      6  C   UNL     1       5.791   5.275  17.637  0.00  0.00    +0.000 A 
ENDROOT
BRANCH   4   7
ATOM      7  C   UNL     1       2.672   6.316  19.454  0.00  0.00    +0.000 A 
ATOM      8  N   UNL     1       2.328   7.581  19.485  0.00  0.00    +0.000 NA
ATOM      9  C   UNL     1       1.470   7.633  20.571  0.00  0.00    +0.000 A 
ATOM     10  N   UNL     1       1.289   6.443  21.170  0.00  0.00    +0.000 NA
ATOM     11  O   UNL     1       2.081   5.571  20.431  0.00  0.00    +0.000 OA
BRANCH   9  12
ATOM     12  C   UNL     1       0.841   8.884  20.997  0.00  0.00    +0.000 A 
ATOM     13  C   UNL     1       0.767   9.963  20.115  0.00  0.00    +0.000 A 
ATOM     14  C   UNL     1       0.177  11.147  20.546  0.00  0.00    +0.000 A 
ATOM     15  C   UNL     1      -0.322  11.224  21.840  0.00  0.00    +0.000 A 
ATOM     16  C   UNL     1      -0.213  10.108  22.653  0.00  0.00    +0.000 A 
ATOM     17  N   UNL     1       0.353   8.946  22.262  0.00  0.00    +0.000 NA
ENDBRANCH   9  12
ENDBRANCH   4   7
BRANCH   6  18
ATOM     18  N   UNL     1       7.198   5.637  17.701  0.00  0.00    +0.000 N 
ATOM     19  O   UNL     1       7.896   5.057  18.546  0.00  0.00    +0.000 OA
ATOM     20  O   UNL     1       7.605   6.483  16.893  0.00  0.00    +0.000 OA
ENDBRANCH   6  18
BRANCH   1  21
ATOM     21  N   UNL     1       6.215   3.646  15.836  0.00  0.00    +0.000 N 
ATOM     22  H   UNL     1       7.049   3.318  16.333  0.00  0.00    +0.000 HD
BRANCH  21  23
ATOM     23  C   UNL     1       6.580   4.240  14.549  0.00  0.00    +0.000 C 
BRANCH  23  24
ATOM     24  C   UNL     1       5.600   3.789  13.464  0.00  0.00    +0.000 C 
BRANCH  24  26
ATOM     25  C   UNL     1       5.584   2.200  11.509  0.00  0.00    +0.000 C 
ATOM     26  C   UNL     1       6.322   3.338  12.192  0.00  0.00    +0.000 C 
ENDBRANCH  24  26
ENDBRANCH  23  24
ENDBRANCH  21  23
ENDBRANCH   1  21
TORSDOF 7
ENDMDL
MODEL 9
REMARK VINA RESULT:      -7.5      2.757      3.842
REMARK  Name = 
REMARK  8 active torsions:
REMARK  status: ('A' for Active; 'I' for Inactive)
REMARK    1  A    between atoms: C_1  and  C_2
REMARK    2  A    between atoms: C_2  and  C_3
REMARK    3  A    between atoms: C_3  and  C_4
REMARK    4  A    between atoms: C_4  and  N_5
REMARK    5  A    between atoms: N_5  and  C_6
REMARK    6  A    between atoms: C_9  and  C_10
REMARK    7  A    between atoms: C_12  and  C_13
REMARK    8  A    between atoms: C_22  and  N_23
REMARK                            x       y       z     vdW  Elec       q    Type
REMARK                         _______ _______ _______ _____ _____    ______ ____
ROOT
ATOM      1  C   UNL     1       3.712   3.995  17.967  0.00  0.00    +0.000 A 
ATOM      2  C   UNL     1       2.350   4.291  17.806  0.00  0.00    +0.000 A 
ATOM      3  C   UNL     1       1.857   5.601  17.905  0.00  0.00    +0.000 A 
ATOM      4  C   UNL     1       2.707   6.672  18.202  0.00  0.00    +0.000 A 
ATOM      5  C   UNL     1       4.059   6.399  18.426  0.00  0.00    +0.000 A 
ATOM      6  C   UNL     1       4.537   5.081  18.323  0.00  0.00    +0.000 A 
ENDROOT
BRANCH   4   7
ATOM      7  C   UNL     1       2.223   8.041  18.290  0.00  0.00    +0.000 A 
ATOM      8  N   UNL     1       1.536   8.618  19.247  0.00  0.00    +0.000 NA
ATOM      9  C   UNL     1       1.376   9.907  18.766  0.00  0.00    +0.000 A 
ATOM     10  N   UNL     1       1.953  10.110  17.568  0.00  0.00    +0.000 NA
ATOM     11  O   UNL     1       2.515   8.877  17.254  0.00  0.00    +0.000 OA
BRANCH   9  12
ATOM     12  C   UNL     1       0.639  10.924  19.519  0.00  0.00    +0.000 A 
ATOM     13  C   UNL     1      -0.752  10.861  19.598  0.00  0.00    +0.000 A 
ATOM     14  C   UNL     1      -1.433  11.846  20.308  0.00  0.00    +0.000 A 
ATOM     15  C   UNL     1      -0.710  12.863  20.918  0.00  0.00    +0.000 A 
ATOM     16  C   UNL     1       0.669  12.853  20.794  0.00  0.00    +0.000 A 
ATOM     17  N   UNL     1       1.357  11.910  20.114  0.00  0.00    +0.000 NA
ENDBRANCH   9  12
ENDBRANCH   4   7
BRANCH   6  18
ATOM     18  N   UNL     1       5.955   4.877  18.567  0.00  0.00    +0.000 N 
ATOM     19  O   UNL     1       6.358   5.023  19.730  0.00  0.00    +0.000 OA
ATOM     20  O   UNL     1       6.658   4.550  17.600  0.00  0.00    +0.000 OA
ENDBRANCH   6  18
BRANCH   1  21
ATOM     21  N   UNL     1       4.180   2.672  17.937  0.00  0.00    +0.000 N 
ATOM     22  H   UNL     1       4.068   2.246  17.012  0.00  0.00    +0.000 HD
BRANCH  21  23
ATOM     23  C   UNL     1       3.756   1.746  18.989  0.00  0.00    +0.000 C 
BRANCH  23  24
ATOM     24  C   UNL     1       4.002   2.365  20.366  0.00  0.00    +0.000 C 
BRANCH  24  26
ATOM     25  C   UNL     1       2.246   3.879  21.353  0.00  0.00    +0.000 C 
ATOM     26  C   UNL     1       2.719   2.444  21.197  0.00  0.00    +0.000 C 
ENDBRANCH  24  26
ENDBRANCH  23  24
ENDBRANCH  21  23
ENDBRANCH   1  21
TORSDOF 7
ENDMDL
