MODEL 1
REMARK VINA RESULT:      -8.8      0.000      0.000
REMARK  Name = 
REMARK  9 active torsions:
REMARK  status: ('A' for Active; 'I' for Inactive)
REMARK    1  A    between atoms: C_1  and  C_2
REMARK    2  A    between atoms: C_4  and  C_5
REMARK    3  A    between atoms: C_6  and  C_7
REMARK    4  A    between atoms: C_7  and  C_9
REMARK    5  A    between atoms: C_18  and  N_19
REMARK    6  A    between atoms: N_19  and  C_20
REMARK    7  A    between atoms: C_20  and  C_21
REMARK    8  A    between atoms: C_21  and  N_22
REMARK    9  A    between atoms: N_22  and  C_23
REMARK                            x       y       z     vdW  Elec       q    Type
REMARK                         _______ _______ _______ _____ _____    ______ ____
ROOT
ATOM      1  C   UNL     1       1.451   1.852  18.879  0.00  0.00    +0.000 C 
ATOM      2  C   UNL     1       1.976   3.252  18.842  0.00  0.00    +0.000 C 
ATOM      3  C   UNL     1       2.905   3.681  17.968  0.00  0.00    +0.000 C 
ATOM      4  C   UNL     1       3.437   5.038  17.949  0.00  0.00    +0.000 C 
ATOM      5  C   UNL     1       2.978   5.931  18.843  0.00  0.00    +0.000 C 
ATOM      6  C   UNL     1       1.977   5.592  19.823  0.00  0.00    +0.000 C 
ATOM      7  C   UNL     1       1.532   6.455  20.748  0.00  0.00    +0.000 C 
ATOM      8  C   UNL     1       1.418   4.201  19.852  0.00  0.00    +0.000 C 
ATOM      9  O   UNL     1       0.565   3.833  20.659  0.00  0.00    +0.000 OA
ENDROOT
BRANCH   4  10
ATOM     10  C   UNL     1       4.441   5.476  16.991  0.00  0.00    +0.000 C 
ATOM     11  C   UNL     1       5.739   5.157  17.101  0.00  0.00    +0.000 C 
BRANCH  11  12
ATOM     12  C   UNL     1       6.729   5.673  16.120  0.00  0.00    +0.000 C 
ATOM     13  O   UNL     1       7.529   6.555  16.407  0.00  0.00    +0.000 OA
BRANCH  12  14
ATOM     14  C   UNL     1       6.750   5.029  14.779  0.00  0.00    +0.000 A 
ATOM     15  C   UNL     1       5.838   4.020  14.435  0.00  0.00    +0.000 A 
ATOM     16  C   UNL     1       5.895   3.430  13.171  0.00  0.00    +0.000 A 
ATOM     17  C   UNL     1       6.851   3.858  12.256  0.00  0.00    +0.000 A 
ATOM     18  F   UNL     1       6.903   3.287  11.047  0.00  0.00    +0.000 F 
ATOM     19  C   UNL     1       7.747   4.872  12.577  0.00  0.00    +0.000 A 
ATOM     20  C   UNL     1       7.695   5.466  13.840  0.00  0.00    +0.000 A 
ENDBRANCH  12  14
ENDBRANCH  11  12
ENDBRANCH   4  10
BRANCH   7  21
ATOM     21  N   UNL     1       1.911   7.759  20.989  0.00  0.00    +0.000 N 
ATOM     22  H   UNL     1       2.869   7.912  21.288  0.00  0.00    +0.000 HD
BRANCH  21  23
ATOM     23  C   UNL     1       1.162   8.968  20.661  0.00  0.00    +0.000 C 
BRANCH  23  24
ATOM     24  C   UNL     1       1.186   9.270  19.157  0.00  0.00    +0.000 C 
BRANCH  24  25
ATOM     25  N   UNL     1       0.770  10.642  18.853  0.00  0.00    +0.000 N 
ATOM     26  H   UNL     1       1.360  11.032  18.122  0.00  0.00    +0.000 HD
BRANCH  25  27
ATOM     27  C   UNL     1      -0.604  10.771  18.498  0.00  0.00    +0.000 A 
ATOM     28  C   UNL     1      -1.144  10.015  17.449  0.00  0.00    +0.000 A 
ATOM     29  C   UNL     1      -2.487  10.116  17.159  0.00  0.00    +0.000 A 
ATOM     30  N   UNL     1      -3.342  10.877  17.860  0.00  0.00    +0.000 NA
ATOM     31  C   UNL     1      -2.859  11.569  18.900  0.00  0.00    +0.000 A 
ATOM     32  C   UNL     1      -3.766  12.321  19.628  0.00  0.00    +0.000 A 
ATOM     33  C   UNL     1      -3.366  13.074  20.730  0.00  0.00    +0.000 A 
ATOM     34 CL   UNL     1      -4.528  13.983  21.612  0.00  0.00    +0.000 Cl
ATOM     35  C   UNL     1      -2.036  13.094  21.115  0.00  0.00    +0.000 A 
ATOM     36  C   UNL     1      -1.105  12.347  20.395  0.00  0.00    +0.000 A 
ATOM     37  C   UNL     1      -1.494  11.559  19.280  0.00  0.00    +0.000 A 
ENDBRANCH  25  27
ENDBRANCH  24  25
ENDBRANCH  23  24
ENDBRANCH  21  23
ENDBRANCH   7  21
TORSDOF 8
ENDMDL
MODEL 2
REMARK VINA RESULT:      -8.2      6.525      9.664
REMARK  Name = 
REMARK  9 active torsions:
REMARK  status: ('A' for Active; 'I' for Inactive)
REMARK    1  A    between atoms: C_1  and  C_2
REMARK    2  A    between atoms: C_4  and  C_5
REMARK    3  A    between atoms: C_6  and  C_7
REMARK    4  A    between atoms: C_7  and  C_9
REMARK    5  A    between atoms: C_18  and  N_19
REMARK    6  A    between atoms: N_19  and  C_20
REMARK    7  A    between atoms: C_20  and  C_21
REMARK    8  A    between atoms: C_21  and  N_22
REMARK    9  A    between atoms: N_22  and  C_23
REMARK                            x       y       z     vdW  Elec       q    Type
REMARK                         _______ _______ _______ _____ _____    ______ ____
ROOT
ATOM      1  C   UNL     1       2.616   3.150  17.905  0.00  0.00    +0.000 C 
ATOM      2  C   UNL     1       3.046   4.581  17.847  0.00  0.00    +0.000 C 
ATOM      3  C   UNL     1       2.207   5.623  17.988  0.00  0.00    +0.000 C 
ATOM      4  C   UNL     1       2.621   7.018  17.904  0.00  0.00    +0.000 C 
ATOM      5  C   UNL     1       3.917   7.301  17.684  0.00  0.00    +0.000 C 
ATOM      6  C   UNL     1       4.913   6.270  17.525  0.00  0.00    +0.000 C 
ATOM      7  C   UNL     1       6.203   6.528  17.267  0.00  0.00    +0.000 C 
ATOM      8  C   UNL     1       4.501   4.831  17.613  0.00  0.00    +0.000 C 
ATOM      9  O   UNL     1       5.289   3.894  17.485  0.00  0.00    +0.000 OA
ENDROOT
BRANCH   4  10
ATOM     10  C   UNL     1       1.692   8.126  18.061  0.00  0.00    +0.000 C 
ATOM     11  C   UNL     1       2.094   9.392  18.249  0.00  0.00    +0.000 C 
BRANCH  11  12
ATOM     12  C   UNL     1       1.100  10.477  18.454  0.00  0.00    +0.000 C 
ATOM     13  O   UNL     1      -0.104  10.286  18.332  0.00  0.00    +0.000 OA
BRANCH  12  14
ATOM     14  C   UNL     1       1.624  11.803  18.875  0.00  0.00    +0.000 A 
ATOM     15  C   UNL     1       2.421  12.582  18.022  0.00  0.00    +0.000 A 
ATOM     16  C   UNL     1       2.905  13.818  18.455  0.00  0.00    +0.000 A 
ATOM     17  C   UNL     1       2.583  14.273  19.729  0.00  0.00    +0.000 A 
ATOM     18  F   UNL     1       3.052  15.457  20.141  0.00  0.00    +0.000 F 
ATOM     19  C   UNL     1       1.777  13.521  20.577  0.00  0.00    +0.000 A 
ATOM     20  C   UNL     1       1.290  12.284  20.149  0.00  0.00    +0.000 A 
ENDBRANCH  12  14
ENDBRANCH  11  12
ENDBRANCH   4  10
BRANCH   7  21
ATOM     21  N   UNL     1       6.838   7.737  17.076  0.00  0.00    +0.000 N 
ATOM     22  H   UNL     1       6.265   8.512  16.755  0.00  0.00    +0.000 HD
BRANCH  21  23
ATOM     23  C   UNL     1       8.192   8.094  17.484  0.00  0.00    +0.000 C 
BRANCH  23  24
ATOM     24  C   UNL     1       8.214   9.330  18.393  0.00  0.00    +0.000 C 
BRANCH  24  25
ATOM     25  N   UNL     1       8.286  10.583  17.637  0.00  0.00    +0.000 N 
ATOM     26  H   UNL     1       7.378  11.038  17.627  0.00  0.00    +0.000 HD
BRANCH  25  27
ATOM     27  C   UNL     1       9.287  11.488  18.098  0.00  0.00    +0.000 A 
ATOM     28  C   UNL     1      10.571  11.027  18.419  0.00  0.00    +0.000 A 
ATOM     29  C   UNL     1      11.537  11.927  18.810  0.00  0.00    +0.000 A 
ATOM     30  N   UNL     1      11.337  13.253  18.866  0.00  0.00    +0.000 NA
ATOM     31  C   UNL     1      10.133  13.722  18.515  0.00  0.00    +0.000 A 
ATOM     32  C   UNL     1       9.960  15.096  18.548  0.00  0.00    +0.000 A 
ATOM     33  C   UNL     1       8.747  15.684  18.198  0.00  0.00    +0.000 A 
ATOM     34 CL   UNL     1       8.581  17.394  18.243  0.00  0.00    +0.000 Cl
ATOM     35  C   UNL     1       7.674  14.896  17.817  0.00  0.00    +0.000 A 
ATOM     36  C   UNL     1       7.824  13.510  17.779  0.00  0.00    +0.000 A 
ATOM     37  C   UNL     1       9.057  12.892  18.114  0.00  0.00    +0.000 A 
ENDBRANCH  25  27
ENDBRANCH  24  25
ENDBRANCH  23  24
ENDBRANCH  21  23
ENDBRANCH   7  21
TORSDOF 8
ENDMDL
MODEL 3
REMARK VINA RESULT:      -8.1      2.129      2.617
REMARK  Name = 
REMARK  9 active torsions:
REMARK  status: ('A' for Active; 'I' for Inactive)
REMARK    1  A    between atoms: C_1  and  C_2
REMARK    2  A    between atoms: C_4  and  C_5
REMARK    3  A    between atoms: C_6  and  C_7
REMARK    4  A    between atoms: C_7  and  C_9
REMARK    5  A    between atoms: C_18  and  N_19
REMARK    6  A    between atoms: N_19  and  C_20
REMARK    7  A    between atoms: C_20  and  C_21
REMARK    8  A    between atoms: C_21  and  N_22
REMARK    9  A    between atoms: N_22  and  C_23
REMARK                            x       y       z     vdW  Elec       q    Type
REMARK                         _______ _______ _______ _____ _____    ______ ____
ROOT
ATOM      1  C   UNL     1       2.060   1.836  19.359  0.00  0.00    +0.000 C 
ATOM      2  C   UNL     1       2.451   3.278  19.284  0.00  0.00    +0.000 C 
ATOM      3  C   UNL     1       3.445   3.746  18.507  0.00  0.00    +0.000 C 
ATOM      4  C   UNL     1       3.845   5.147  18.454  0.00  0.00    +0.000 C 
ATOM      5  C   UNL     1       3.187   6.041  19.211  0.00  0.00    +0.000 C 
ATOM      6  C   UNL     1       2.098   5.663  20.077  0.00  0.00    +0.000 C 
ATOM      7  C   UNL     1       1.453   6.531  20.869  0.00  0.00    +0.000 C 
ATOM      8  C   UNL     1       1.674   4.226  20.139  0.00  0.00    +0.000 C 
ATOM      9  O   UNL     1       0.758   3.823  20.855  0.00  0.00    +0.000 OA
ENDROOT
BRANCH   4  10
ATOM     10  C   UNL     1       4.924   5.625  17.603  0.00  0.00    +0.000 C 
ATOM     11  C   UNL     1       5.471   4.878  16.633  0.00  0.00    +0.000 C 
BRANCH  11  12
ATOM     12  C   UNL     1       6.605   5.400  15.827  0.00  0.00    +0.000 C 
ATOM     13  O   UNL     1       7.406   6.209  16.280  0.00  0.00    +0.000 OA
BRANCH  12  14
ATOM     14  C   UNL     1       6.766   4.853  14.453  0.00  0.00    +0.000 A 
ATOM     15  C   UNL     1       5.987   3.780  13.995  0.00  0.00    +0.000 A 
ATOM     16  C   UNL     1       6.174   3.284  12.703  0.00  0.00    +0.000 A 
ATOM     17  C   UNL     1       7.125   3.868  11.875  0.00  0.00    +0.000 A 
ATOM     18  F   UNL     1       7.302   3.388  10.638  0.00  0.00    +0.000 F 
ATOM     19  C   UNL     1       7.889   4.947  12.309  0.00  0.00    +0.000 A 
ATOM     20  C   UNL     1       7.707   5.446  13.601  0.00  0.00    +0.000 A 
ENDBRANCH  12  14
ENDBRANCH  11  12
ENDBRANCH   4  10
BRANCH   7  21
ATOM     21  N   UNL     1       1.671   7.880  21.058  0.00  0.00    +0.000 N 
ATOM     22  H   UNL     1       2.518   8.144  21.552  0.00  0.00    +0.000 HD
BRANCH  21  23
ATOM     23  C   UNL     1       0.939   8.984  20.446  0.00  0.00    +0.000 C 
BRANCH  23  24
ATOM     24  C   UNL     1       1.509   9.363  19.073  0.00  0.00    +0.000 C 
BRANCH  24  25
ATOM     25  N   UNL     1       0.508   9.980  18.200  0.00  0.00    +0.000 N 
ATOM     26  H   UNL     1      -0.239   9.321  18.004  0.00  0.00    +0.000 HD
BRANCH  25  27
ATOM     27  C   UNL     1      -0.030  11.202  18.700  0.00  0.00    +0.000 A 
ATOM     28  C   UNL     1      -1.317  11.239  19.254  0.00  0.00    +0.000 A 
ATOM     29  C   UNL     1      -1.796  12.419  19.781  0.00  0.00    +0.000 A 
ATOM     30  N   UNL     1      -1.078  13.552  19.837  0.00  0.00    +0.000 NA
ATOM     31  C   UNL     1       0.173  13.527  19.360  0.00  0.00    +0.000 A 
ATOM     32  C   UNL     1       0.906  14.698  19.459  0.00  0.00    +0.000 A 
ATOM     33  C   UNL     1       2.217  14.776  18.996  0.00  0.00    +0.000 A 
ATOM     34 CL   UNL     1       3.093  16.247  19.151  0.00  0.00    +0.000 Cl
ATOM     35  C   UNL     1       2.816  13.673  18.410  0.00  0.00    +0.000 A 
ATOM     36  C   UNL     1       2.097  12.484  18.296  0.00  0.00    +0.000 A 
ATOM     37  C   UNL     1       0.765  12.379  18.778  0.00  0.00    +0.000 A 
ENDBRANCH  25  27
ENDBRANCH  24  25
ENDBRANCH  23  24
ENDBRANCH  21  23
ENDBRANCH   7  21
TORSDOF 8
ENDMDL
MODEL 4
REMARK VINA RESULT:      -8.1      1.571      2.259
REMARK  Name = 
REMARK  9 active torsions:
REMARK  status: ('A' for Active; 'I' for Inactive)
REMARK    1  A    between atoms: C_1  and  C_2
REMARK    2  A    between atoms: C_4  and  C_5
REMARK    3  A    between atoms: C_6  and  C_7
REMARK    4  A    between atoms: C_7  and  C_9
REMARK    5  A    between atoms: C_18  and  N_19
REMARK    6  A    between atoms: N_19  and  C_20
REMARK    7  A    between atoms: C_20  and  C_21
REMARK    8  A    between atoms: C_21  and  N_22
REMARK    9  A    between atoms: N_22  and  C_23
REMARK                            x       y       z     vdW  Elec       q    Type
REMARK                         _______ _______ _______ _____ _____    ______ ____
ROOT
ATOM      1  C   UNL     1       1.397   1.591  18.964  0.00  0.00    +0.000 C 
ATOM      2  C   UNL     1       2.080   2.839  18.500  0.00  0.00    +0.000 C 
ATOM      3  C   UNL     1       3.042   2.863  17.560  0.00  0.00    +0.000 C 
ATOM      4  C   UNL     1       3.727   4.075  17.128  0.00  0.00    +0.000 C 
ATOM      5  C   UNL     1       3.383   5.250  17.682  0.00  0.00    +0.000 C 
ATOM      6  C   UNL     1       2.360   5.354  18.693  0.00  0.00    +0.000 C 
ATOM      7  C   UNL     1       2.028   6.509  19.287  0.00  0.00    +0.000 C 
ATOM      8  C   UNL     1       1.646   4.115  19.144  0.00  0.00    +0.000 C 
ATOM      9  O   UNL     1       0.765   4.121  20.004  0.00  0.00    +0.000 OA
ENDROOT
BRANCH   4  10
ATOM     10  C   UNL     1       4.764   4.071  16.107  0.00  0.00    +0.000 C 
ATOM     11  C   UNL     1       5.562   5.125  15.878  0.00  0.00    +0.000 C 
BRANCH  11  12
ATOM     12  C   UNL     1       6.572   5.083  14.789  0.00  0.00    +0.000 C 
ATOM     13  O   UNL     1       7.628   5.700  14.858  0.00  0.00    +0.000 OA
BRANCH  12  14
ATOM     14  C   UNL     1       6.274   4.207  13.624  0.00  0.00    +0.000 A 
ATOM     15  C   UNL     1       4.957   3.869  13.278  0.00  0.00    +0.000 A 
ATOM     16  C   UNL     1       4.716   3.034  12.185  0.00  0.00    +0.000 A 
ATOM     17  C   UNL     1       5.786   2.552  11.440  0.00  0.00    +0.000 A 
ATOM     18  F   UNL     1       5.550   1.750  10.395  0.00  0.00    +0.000 F 
ATOM     19  C   UNL     1       7.095   2.896  11.759  0.00  0.00    +0.000 A 
ATOM     20  C   UNL     1       7.342   3.731  12.852  0.00  0.00    +0.000 A 
ENDBRANCH  12  14
ENDBRANCH  11  12
ENDBRANCH   4  10
BRANCH   7  21
ATOM     21  N   UNL     1       2.557   7.771  19.114  0.00  0.00    +0.000 N 
ATOM     22  H   UNL     1       2.998   8.200  19.922  0.00  0.00    +0.000 HD
BRANCH  21  23
ATOM     23  C   UNL     1       2.750   8.480  17.853  0.00  0.00    +0.000 C 
BRANCH  23  24
ATOM     24  C   UNL     1       1.977   9.805  17.812  0.00  0.00    +0.000 C 
BRANCH  24  25
ATOM     25  N   UNL     1       0.526   9.608  17.754  0.00  0.00    +0.000 N 
ATOM     26  H   UNL     1       0.296   8.640  17.959  0.00  0.00    +0.000 HD
BRANCH  25  27
ATOM     27  C   UNL     1      -0.216  10.481  18.602  0.00  0.00    +0.000 A 
ATOM     28  C   UNL     1       0.413  11.159  19.654  0.00  0.00    +0.000 A 
ATOM     29  C   UNL     1      -0.312  12.039  20.426  0.00  0.00    +0.000 A 
ATOM     30  N   UNL     1      -1.604  12.330  20.204  0.00  0.00    +0.000 NA
ATOM     31  C   UNL     1      -2.214  11.734  19.172  0.00  0.00    +0.000 A 
ATOM     32  C   UNL     1      -3.536  12.075  18.942  0.00  0.00    +0.000 A 
ATOM     33  C   UNL     1      -4.259  11.514  17.892  0.00  0.00    +0.000 A 
ATOM     34 CL   UNL     1      -5.895  11.975  17.637  0.00  0.00    +0.000 Cl
ATOM     35  C   UNL     1      -3.665  10.584  17.055  0.00  0.00    +0.000 A 
ATOM     36  C   UNL     1      -2.335  10.224  17.268  0.00  0.00    +0.000 A 
ATOM     37  C   UNL     1      -1.575  10.797  18.322  0.00  0.00    +0.000 A 
ENDBRANCH  25  27
ENDBRANCH  24  25
ENDBRANCH  23  24
ENDBRANCH  21  23
ENDBRANCH   7  21
TORSDOF 8
ENDMDL
MODEL 5
REMARK VINA RESULT:      -8.1      1.948      2.660
REMARK  Name = 
REMARK  9 active torsions:
REMARK  status: ('A' for Active; 'I' for Inactive)
REMARK    1  A    between atoms: C_1  and  C_2
REMARK    2  A    between atoms: C_4  and  C_5
REMARK    3  A    between atoms: C_6  and  C_7
REMARK    4  A    between atoms: C_7  and  C_9
REMARK    5  A    between atoms: C_18  and  N_19
REMARK    6  A    between atoms: N_19  and  C_20
REMARK    7  A    between atoms: C_20  and  C_21
REMARK    8  A    between atoms: C_21  and  N_22
REMARK    9  A    between atoms: N_22  and  C_23
REMARK                            x       y       z     vdW  Elec       q    Type
REMARK                         _______ _______ _______ _____ _____    ______ ____
ROOT
ATOM      1  C   UNL     1       1.352   1.442  18.879  0.00  0.00    +0.000 C 
ATOM      2  C   UNL     1       2.037   2.772  18.889  0.00  0.00    +0.000 C 
ATOM      3  C   UNL     1       3.165   3.040  18.208  0.00  0.00    +0.000 C 
ATOM      4  C   UNL     1       3.849   4.327  18.239  0.00  0.00    +0.000 C 
ATOM      5  C   UNL     1       3.329   5.322  18.978  0.00  0.00    +0.000 C 
ATOM      6  C   UNL     1       2.118   5.160  19.745  0.00  0.00    +0.000 C 
ATOM      7  C   UNL     1       1.603   6.126  20.518  0.00  0.00    +0.000 C 
ATOM      8  C   UNL     1       1.404   3.842  19.719  0.00  0.00    +0.000 C 
ATOM      9  O   UNL     1       0.369   3.624  20.348  0.00  0.00    +0.000 OA
ENDROOT
BRANCH   4  10
ATOM     10  C   UNL     1       5.068   4.589  17.491  0.00  0.00    +0.000 C 
ATOM     11  C   UNL     1       5.225   5.668  16.709  0.00  0.00    +0.000 C 
BRANCH  11  12
ATOM     12  C   UNL     1       6.474   5.859  15.929  0.00  0.00    +0.000 C 
ATOM     13  O   UNL     1       7.394   6.560  16.336  0.00  0.00    +0.000 OA
BRANCH  12  14
ATOM     14  C   UNL     1       6.593   5.113  14.648  0.00  0.00    +0.000 A 
ATOM     15  C   UNL     1       7.650   5.349  13.756  0.00  0.00    +0.000 A 
ATOM     16  C   UNL     1       7.722   4.637  12.557  0.00  0.00    +0.000 A 
ATOM     17  C   UNL     1       6.749   3.689  12.261  0.00  0.00    +0.000 A 
ATOM     18  F   UNL     1       6.821   3.012  11.109  0.00  0.00    +0.000 F 
ATOM     19  C   UNL     1       5.707   3.430  13.146  0.00  0.00    +0.000 A 
ATOM     20  C   UNL     1       5.630   4.140  14.347  0.00  0.00    +0.000 A 
ENDBRANCH  12  14
ENDBRANCH  11  12
ENDBRANCH   4  10
BRANCH   7  21
ATOM     21  N   UNL     1       2.078   7.395  20.775  0.00  0.00    +0.000 N 
ATOM     22  H   UNL     1       2.960   7.465  21.273  0.00  0.00    +0.000 HD
BRANCH  21  23
ATOM     23  C   UNL     1       1.573   8.651  20.229  0.00  0.00    +0.000 C 
BRANCH  23  24
ATOM     24  C   UNL     1       0.453   9.246  21.093  0.00  0.00    +0.000 C 
BRANCH  24  25
ATOM     25  N   UNL     1      -0.190  10.401  20.461  0.00  0.00    +0.000 N 
ATOM     26  H   UNL     1      -1.200  10.285  20.466  0.00  0.00    +0.000 HD
BRANCH  25  27
ATOM     27  C   UNL     1       0.164  11.656  21.037  0.00  0.00    +0.000 A 
ATOM     28  C   UNL     1       1.308  12.341  20.604  0.00  0.00    +0.000 A 
ATOM     29  C   UNL     1       1.601  13.577  21.136  0.00  0.00    +0.000 A 
ATOM     30  N   UNL     1       0.823  14.203  22.033  0.00  0.00    +0.000 NA
ATOM     31  C   UNL     1      -0.303  13.591  22.423  0.00  0.00    +0.000 A 
ATOM     32  C   UNL     1      -1.107  14.270  23.323  0.00  0.00    +0.000 A 
ATOM     33  C   UNL     1      -2.299  13.722  23.789  0.00  0.00    +0.000 A 
ATOM     34 CL   UNL     1      -3.272  14.605  24.897  0.00  0.00    +0.000 Cl
ATOM     35  C   UNL     1      -2.703  12.467  23.364  0.00  0.00    +0.000 A 
ATOM     36  C   UNL     1      -1.908  11.763  22.460  0.00  0.00    +0.000 A 
ATOM     37  C   UNL     1      -0.697  12.311  21.960  0.00  0.00    +0.000 A 
ENDBRANCH  25  27
ENDBRANCH  24  25
ENDBRANCH  23  24
ENDBRANCH  21  23
ENDBRANCH   7  21
TORSDOF 8
ENDMDL
MODEL 6
REMARK VINA RESULT:      -8.1      1.314      2.048
REMARK  Name = 
REMARK  9 active torsions:
REMARK  status: ('A' for Active; 'I' for Inactive)
REMARK    1  A    between atoms: C_1  and  C_2
REMARK    2  A    between atoms: C_4  and  C_5
REMARK    3  A    between atoms: C_6  and  C_7
REMARK    4  A    between atoms: C_7  and  C_9
REMARK    5  A    between atoms: C_18  and  N_19
REMARK    6  A    between atoms: N_19  and  C_20
REMARK    7  A    between atoms: C_20  and  C_21
REMARK    8  A    between atoms: C_21  and  N_22
REMARK    9  A    between atoms: N_22  and  C_23
REMARK                            x       y       z     vdW  Elec       q    Type
REMARK                         _______ _______ _______ _____ _____    ______ ____
ROOT
ATOM      1  C   UNL     1       1.506   1.964  18.923  0.00  0.00    +0.000 C 
ATOM      2  C   UNL     1       2.046   3.357  18.996  0.00  0.00    +0.000 C 
ATOM      3  C   UNL     1       3.067   3.806  18.245  0.00  0.00    +0.000 C 
ATOM      4  C   UNL     1       3.611   5.156  18.336  0.00  0.00    +0.000 C 
ATOM      5  C   UNL     1       3.067   6.020  19.210  0.00  0.00    +0.000 C 
ATOM      6  C   UNL     1       1.963   5.658  20.064  0.00  0.00    +0.000 C 
ATOM      7  C   UNL     1       1.429   6.491  20.968  0.00  0.00    +0.000 C 
ATOM      8  C   UNL     1       1.391   4.274  19.977  0.00  0.00    +0.000 C 
ATOM      9  O   UNL     1       0.452   3.888  20.674  0.00  0.00    +0.000 OA
ENDROOT
BRANCH   4  10
ATOM     10  C   UNL     1       4.716   5.616  17.510  0.00  0.00    +0.000 C 
ATOM     11  C   UNL     1       5.073   5.008  16.368  0.00  0.00    +0.000 C 
BRANCH  11  12
ATOM     12  C   UNL     1       6.241   5.493  15.589  0.00  0.00    +0.000 C 
ATOM     13  O   UNL     1       6.984   6.372  16.010  0.00  0.00    +0.000 OA
BRANCH  12  14
ATOM     14  C   UNL     1       6.514   4.820  14.291  0.00  0.00    +0.000 A 
ATOM     15  C   UNL     1       5.721   3.756  13.834  0.00  0.00    +0.000 A 
ATOM     16  C   UNL     1       6.013   3.141  12.616  0.00  0.00    +0.000 A 
ATOM     17  C   UNL     1       7.085   3.596  11.856  0.00  0.00    +0.000 A 
ATOM     18  F   UNL     1       7.363   3.001  10.690  0.00  0.00    +0.000 F 
ATOM     19  C   UNL     1       7.867   4.663  12.287  0.00  0.00    +0.000 A 
ATOM     20  C   UNL     1       7.579   5.283  13.505  0.00  0.00    +0.000 A 
ENDBRANCH  12  14
ENDBRANCH  11  12
ENDBRANCH   4  10
BRANCH   7  21
ATOM     21  N   UNL     1       1.792   7.779  21.300  0.00  0.00    +0.000 N 
ATOM     22  H   UNL     1       2.786   7.977  21.359  0.00  0.00    +0.000 HD
BRANCH  21  23
ATOM     23  C   UNL     1       0.922   8.949  21.367  0.00  0.00    +0.000 C 
BRANCH  23  24
ATOM     24  C   UNL     1       0.716   9.595  19.991  0.00  0.00    +0.000 C 
BRANCH  24  25
ATOM     25  N   UNL     1       0.728  11.059  20.049  0.00  0.00    +0.000 N 
ATOM     26  H   UNL     1       1.004  11.442  19.149  0.00  0.00    +0.000 HD
BRANCH  25  27
ATOM     27  C   UNL     1      -0.503  11.637  20.476  0.00  0.00    +0.000 A 
ATOM     28  C   UNL     1      -0.570  12.369  21.669  0.00  0.00    +0.000 A 
ATOM     29  C   UNL     1      -1.757  12.965  22.035  0.00  0.00    +0.000 A 
ATOM     30  N   UNL     1      -2.869  12.927  21.283  0.00  0.00    +0.000 NA
ATOM     31  C   UNL     1      -2.814  12.277  20.113  0.00  0.00    +0.000 A 
ATOM     32  C   UNL     1      -3.962  12.280  19.340  0.00  0.00    +0.000 A 
ATOM     33  C   UNL     1      -4.008  11.637  18.105  0.00  0.00    +0.000 A 
ATOM     34 CL   UNL     1      -5.452  11.675  17.173  0.00  0.00    +0.000 Cl
ATOM     35  C   UNL     1      -2.896  10.964  17.627  0.00  0.00    +0.000 A 
ATOM     36  C   UNL     1      -1.729  10.946  18.390  0.00  0.00    +0.000 A 
ATOM     37  C   UNL     1      -1.655  11.611  19.643  0.00  0.00    +0.000 A 
ENDBRANCH  25  27
ENDBRANCH  24  25
ENDBRANCH  23  24
ENDBRANCH  21  23
ENDBRANCH   7  21
TORSDOF 8
ENDMDL
MODEL 7
REMARK VINA RESULT:      -8.1      1.692      2.548
REMARK  Name = 
REMARK  9 active torsions:
REMARK  status: ('A' for Active; 'I' for Inactive)
REMARK    1  A    between atoms: C_1  and  C_2
REMARK    2  A    between atoms: C_4  and  C_5
REMARK    3  A    between atoms: C_6  and  C_7
REMARK    4  A    between atoms: C_7  and  C_9
REMARK    5  A    between atoms: C_18  and  N_19
REMARK    6  A    between atoms: N_19  and  C_20
REMARK    7  A    between atoms: C_20  and  C_21
REMARK    8  A    between atoms: C_21  and  N_22
REMARK    9  A    between atoms: N_22  and  C_23
REMARK                            x       y       z     vdW  Elec       q    Type
REMARK                         _______ _______ _______ _____ _____    ______ ____
ROOT
ATOM      1  C   UNL     1       2.303   2.620  20.093  0.00  0.00    +0.000 C 
ATOM      2  C   UNL     1       2.820   3.792  19.321  0.00  0.00    +0.000 C 
ATOM      3  C   UNL     1       3.845   3.727  18.453  0.00  0.00    +0.000 C 
ATOM      4  C   UNL     1       4.367   4.875  17.721  0.00  0.00    +0.000 C 
ATOM      5  C   UNL     1       3.796   6.078  17.905  0.00  0.00    +0.000 C 
ATOM      6  C   UNL     1       2.685   6.273  18.803  0.00  0.00    +0.000 C 
ATOM      7  C   UNL     1       2.125   7.470  19.030  0.00  0.00    +0.000 C 
ATOM      8  C   UNL     1       2.136   5.100  19.559  0.00  0.00    +0.000 C 
ATOM      9  O   UNL     1       1.194   5.186  20.346  0.00  0.00    +0.000 OA
ENDROOT
BRANCH   4  10
ATOM     10  C   UNL     1       5.476   4.774  16.786  0.00  0.00    +0.000 C 
ATOM     11  C   UNL     1       5.407   5.223  15.524  0.00  0.00    +0.000 C 
BRANCH  11  12
ATOM     12  C   UNL     1       6.555   5.049  14.597  0.00  0.00    +0.000 C 
ATOM     13  O   UNL     1       7.626   5.617  14.776  0.00  0.00    +0.000 OA
BRANCH  12  14
ATOM     14  C   UNL     1       6.372   4.102  13.465  0.00  0.00    +0.000 A 
ATOM     15  C   UNL     1       7.449   3.706  12.658  0.00  0.00    +0.000 A 
ATOM     16  C   UNL     1       7.238   2.824  11.596  0.00  0.00    +0.000 A 
ATOM     17  C   UNL     1       5.960   2.336  11.353  0.00  0.00    +0.000 A 
ATOM     18  F   UNL     1       5.761   1.494  10.332  0.00  0.00    +0.000 F 
ATOM     19  C   UNL     1       4.886   2.705  12.157  0.00  0.00    +0.000 A 
ATOM     20  C   UNL     1       5.091   3.587  13.221  0.00  0.00    +0.000 A 
ENDBRANCH  12  14
ENDBRANCH  11  12
ENDBRANCH   4  10
BRANCH   7  21
ATOM     21  N   UNL     1       2.463   8.709  18.528  0.00  0.00    +0.000 N 
ATOM     22  H   UNL     1       3.452   8.930  18.473  0.00  0.00    +0.000 HD
BRANCH  21  23
ATOM     23  C   UNL     1       1.577   9.661  17.864  0.00  0.00    +0.000 C 
BRANCH  23  24
ATOM     24  C   UNL     1       0.353  10.005  18.722  0.00  0.00    +0.000 C 
BRANCH  24  25
ATOM     25  N   UNL     1      -0.334  11.214  18.261  0.00  0.00    +0.000 N 
ATOM     26  H   UNL     1      -0.709  11.069  17.327  0.00  0.00    +0.000 HD
BRANCH  25  27
ATOM     27  C   UNL     1      -1.360  11.674  19.137  0.00  0.00    +0.000 A 
ATOM     28  C   UNL     1      -1.043  12.161  20.413  0.00  0.00    +0.000 A 
ATOM     29  C   UNL     1      -2.044  12.650  21.222  0.00  0.00    +0.000 A 
ATOM     30  N   UNL     1      -3.330  12.733  20.844  0.00  0.00    +0.000 NA
ATOM     31  C   UNL     1      -3.649  12.322  19.610  0.00  0.00    +0.000 A 
ATOM     32  C   UNL     1      -4.975  12.448  19.230  0.00  0.00    +0.000 A 
ATOM     33  C   UNL     1      -5.410  12.053  17.968  0.00  0.00    +0.000 A 
ATOM     34 CL   UNL     1      -7.063  12.239  17.535  0.00  0.00    +0.000 Cl
ATOM     35  C   UNL     1      -4.515  11.509  17.061  0.00  0.00    +0.000 A 
ATOM     36  C   UNL     1      -3.176  11.370  17.422  0.00  0.00    +0.000 A 
ATOM     37  C   UNL     1      -2.709  11.783  18.698  0.00  0.00    +0.000 A 
ENDBRANCH  25  27
ENDBRANCH  24  25
ENDBRANCH  23  24
ENDBRANCH  21  23
ENDBRANCH   7  21
TORSDOF 8
ENDMDL
MODEL 8
REMARK VINA RESULT:      -8.1      1.418      1.851
REMARK  Name = 
REMARK  9 active torsions:
REMARK  status: ('A' for Active; 'I' for Inactive)
REMARK    1  A    between atoms: C_1  and  C_2
REMARK    2  A    between atoms: C_4  and  C_5
REMARK    3  A    between atoms: C_6  and  C_7
REMARK    4  A    between atoms: C_7  and  C_9
REMARK    5  A    between atoms: C_18  and  N_19
REMARK    6  A    between atoms: N_19  and  C_20
REMARK    7  A    between atoms: C_20  and  C_21
REMARK    8  A    between atoms: C_21  and  N_22
REMARK    9  A    between atoms: N_22  and  C_23
REMARK                            x       y       z     vdW  Elec       q    Type
REMARK                         _______ _______ _______ _____ _____    ______ ____
ROOT
ATOM      1  C   UNL     1       2.806   3.076  21.182  0.00  0.00    +0.000 C 
ATOM      2  C   UNL     1       3.109   4.221  20.269  0.00  0.00    +0.000 C 
ATOM      3  C   UNL     1       4.164   4.256  19.435  0.00  0.00    +0.000 C 
ATOM      4  C   UNL     1       4.475   5.383  18.565  0.00  0.00    +0.000 C 
ATOM      5  C   UNL     1       3.667   6.457  18.575  0.00  0.00    +0.000 C 
ATOM      6  C   UNL     1       2.501   6.534  19.420  0.00  0.00    +0.000 C 
ATOM      7  C   UNL     1       1.702   7.609  19.475  0.00  0.00    +0.000 C 
ATOM      8  C   UNL     1       2.167   5.380  20.317  0.00  0.00    +0.000 C 
ATOM      9  O   UNL     1       1.192   5.370  21.069  0.00  0.00    +0.000 OA
ENDROOT
BRANCH   4  10
ATOM     10  C   UNL     1       5.623   5.394  17.670  0.00  0.00    +0.000 C 
ATOM     11  C   UNL     1       5.528   5.706  16.369  0.00  0.00    +0.000 C 
BRANCH  11  12
ATOM     12  C   UNL     1       6.725   5.653  15.492  0.00  0.00    +0.000 C 
ATOM     13  O   UNL     1       7.772   6.217  15.785  0.00  0.00    +0.000 OA
BRANCH  12  14
ATOM     14  C   UNL     1       6.622   4.828  14.258  0.00  0.00    +0.000 A 
ATOM     15  C   UNL     1       7.578   4.916  13.235  0.00  0.00    +0.000 A 
ATOM     16  C   UNL     1       7.443   4.135  12.085  0.00  0.00    +0.000 A 
ATOM     17  C   UNL     1       6.365   3.266  11.968  0.00  0.00    +0.000 A 
ATOM     18  F   UNL     1       6.238   2.522  10.863  0.00  0.00    +0.000 F 
ATOM     19  C   UNL     1       5.421   3.154  12.984  0.00  0.00    +0.000 A 
ATOM     20  C   UNL     1       5.551   3.933  14.136  0.00  0.00    +0.000 A 
ENDBRANCH  12  14
ENDBRANCH  11  12
ENDBRANCH   4  10
BRANCH   7  21
ATOM     21  N   UNL     1       1.805   8.817  18.816  0.00  0.00    +0.000 N 
ATOM     22  H   UNL     1       2.362   8.832  17.968  0.00  0.00    +0.000 HD
BRANCH  21  23
ATOM     23  C   UNL     1       1.034  10.028  19.075  0.00  0.00    +0.000 C 
BRANCH  23  24
ATOM     24  C   UNL     1      -0.104  10.214  18.063  0.00  0.00    +0.000 C 
BRANCH  24  25
ATOM     25  N   UNL     1      -0.795  11.496  18.224  0.00  0.00    +0.000 N 
ATOM     26  H   UNL     1      -0.277  12.234  17.754  0.00  0.00    +0.000 HD
BRANCH  25  27
ATOM     27  C   UNL     1      -2.151  11.489  17.784  0.00  0.00    +0.000 A 
ATOM     28  C   UNL     1      -2.488  10.986  16.520  0.00  0.00    +0.000 A 
ATOM     29  C   UNL     1      -3.810  10.939  16.138  0.00  0.00    +0.000 A 
ATOM     30  N   UNL     1      -4.826  11.312  16.932  0.00  0.00    +0.000 NA
ATOM     31  C   UNL     1      -4.533  11.747  18.164  0.00  0.00    +0.000 A 
ATOM     32  C   UNL     1      -5.599  12.095  18.977  0.00  0.00    +0.000 A 
ATOM     33  C   UNL     1      -5.401  12.556  20.276  0.00  0.00    +0.000 A 
ATOM     34 CL   UNL     1      -6.754  12.965  21.254  0.00  0.00    +0.000 Cl
ATOM     35  C   UNL     1      -4.118  12.688  20.782  0.00  0.00    +0.000 A 
ATOM     36  C   UNL     1      -3.030  12.347  19.980  0.00  0.00    +0.000 A 
ATOM     37  C   UNL     1      -3.210  11.858  18.659  0.00  0.00    +0.000 A 
ENDBRANCH  25  27
ENDBRANCH  24  25
ENDBRANCH  23  24
ENDBRANCH  21  23
ENDBRANCH   7  21
TORSDOF 8
ENDMDL
MODEL 9
REMARK VINA RESULT:      -8.1      5.511     12.028
REMARK  Name = 
REMARK  9 active torsions:
REMARK  status: ('A' for Active; 'I' for Inactive)
REMARK    1  A    between atoms: C_1  and  C_2
REMARK    2  A    between atoms: C_4  and  C_5
REMARK    3  A    between atoms: C_6  and  C_7
REMARK    4  A    between atoms: C_7  and  C_9
REMARK    5  A    between atoms: C_18  and  N_19
REMARK    6  A    between atoms: N_19  and  C_20
REMARK    7  A    between atoms: C_20  and  C_21
REMARK    8  A    between atoms: C_21  and  N_22
REMARK    9  A    between atoms: N_22  and  C_23
REMARK                            x       y       z     vdW  Elec       q    Type
REMARK                         _______ _______ _______ _____ _____    ______ ____
ROOT
ATOM      1  C   UNL     1      -3.378  10.970  16.222  0.00  0.00    +0.000 C 
ATOM      2  C   UNL     1      -2.834  11.177  17.600  0.00  0.00    +0.000 C 
ATOM      3  C   UNL     1      -3.408  11.970  18.522  0.00  0.00    +0.000 C 
ATOM      4  C   UNL     1      -2.863  12.193  19.856  0.00  0.00    +0.000 C 
ATOM      5  C   UNL     1      -1.726  11.569  20.208  0.00  0.00    +0.000 C 
ATOM      6  C   UNL     1      -1.022  10.687  19.310  0.00  0.00    +0.000 C 
ATOM      7  C   UNL     1       0.133  10.084  19.625  0.00  0.00    +0.000 C 
ATOM      8  C   UNL     1      -1.574  10.446  17.936  0.00  0.00    +0.000 C 
ATOM      9  O   UNL     1      -1.031   9.711  17.111  0.00  0.00    +0.000 OA
ENDROOT
BRANCH   4  10
ATOM     10  C   UNL     1      -3.506  13.056  20.835  0.00  0.00    +0.000 C 
ATOM     11  C   UNL     1      -4.727  12.808  21.332  0.00  0.00    +0.000 C 
BRANCH  11  12
ATOM     12  C   UNL     1      -5.356  13.751  22.293  0.00  0.00    +0.000 C 
ATOM     13  O   UNL     1      -6.572  13.861  22.394  0.00  0.00    +0.000 OA
BRANCH  12  14
ATOM     14  C   UNL     1      -4.443  14.521  23.179  0.00  0.00    +0.000 A 
ATOM     15  C   UNL     1      -3.865  13.942  24.319  0.00  0.00    +0.000 A 
ATOM     16  C   UNL     1      -3.022  14.699  25.134  0.00  0.00    +0.000 A 
ATOM     17  C   UNL     1      -2.753  16.022  24.803  0.00  0.00    +0.000 A 
ATOM     18  F   UNL     1      -1.946  16.745  25.590  0.00  0.00    +0.000 F 
ATOM     19  C   UNL     1      -3.303  16.603  23.665  0.00  0.00    +0.000 A 
ATOM     20  C   UNL     1      -4.147  15.850  22.846  0.00  0.00    +0.000 A 
ENDBRANCH  12  14
ENDBRANCH  11  12
ENDBRANCH   4  10
BRANCH   7  21
ATOM     21  N   UNL     1       0.886  10.175  20.777  0.00  0.00    +0.000 N 
ATOM     22  H   UNL     1       1.173  11.104  21.068  0.00  0.00    +0.000 HD
BRANCH  21  23
ATOM     23  C   UNL     1       1.142   9.114  21.747  0.00  0.00    +0.000 C 
BRANCH  23  24
ATOM     24  C   UNL     1       1.045   7.720  21.115  0.00  0.00    +0.000 C 
BRANCH  24  25
ATOM     25  N   UNL     1       2.314   7.278  20.531  0.00  0.00    +0.000 N 
ATOM     26  H   UNL     1       3.062   7.365  21.214  0.00  0.00    +0.000 HD
BRANCH  25  27
ATOM     27  C   UNL     1       2.284   5.955  20.000  0.00  0.00    +0.000 A 
ATOM     28  C   UNL     1       1.401   4.999  20.518  0.00  0.00    +0.000 A 
ATOM     29  C   UNL     1       1.351   3.744  19.953  0.00  0.00    +0.000 A 
ATOM     30  N   UNL     1       2.079   3.381  18.885  0.00  0.00    +0.000 NA
ATOM     31  C   UNL     1       2.893   4.294  18.340  0.00  0.00    +0.000 A 
ATOM     32  C   UNL     1       3.610   3.908  17.220  0.00  0.00    +0.000 A 
ATOM     33  C   UNL     1       4.480   4.784  16.577  0.00  0.00    +0.000 A 
ATOM     34 CL   UNL     1       5.341   4.265  15.182  0.00  0.00    +0.000 Cl
ATOM     35  C   UNL     1       4.657   6.070  17.058  0.00  0.00    +0.000 A 
ATOM     36  C   UNL     1       3.948   6.481  18.187  0.00  0.00    +0.000 A 
ATOM     37  C   UNL     1       3.042   5.609  18.847  0.00  0.00    +0.000 A 
ENDBRANCH  25  27
ENDBRANCH  24  25
ENDBRANCH  23  24
ENDBRANCH  21  23
ENDBRANCH   7  21
TORSDOF 8
ENDMDL
