MODEL 1
REMARK VINA RESULT:      -8.8      0.000      0.000
REMARK  Name = 
REMARK  4 active torsions:
REMARK  status: ('A' for Active; 'I' for Inactive)
REMARK    1  A    between atoms: C_1  and  C_2
REMARK    2  A    between atoms: N_5  and  C_6
REMARK    3  A    between atoms: C_10  and  N_11
REMARK    4  A    between atoms: C_16  and  C_17
REMARK                            x       y       z     vdW  Elec       q    Type
REMARK                         _______ _______ _______ _____ _____    ______ ____
ROOT
ATOM      1  C   UNL     1       2.119   6.409  19.592  0.00  0.00    +0.000 A 
ATOM      2  C   UNL     1       1.870   5.548  20.661  0.00  0.00    +0.000 A 
ATOM      3  C   UNL     1       2.100   4.177  20.565  0.00  0.00    +0.000 A 
ATOM      4  C   UNL     1       2.583   3.629  19.377  0.00  0.00    +0.000 A 
ATOM      5  C   UNL     1       2.855   4.450  18.288  0.00  0.00    +0.000 A 
ATOM      6  C   UNL     1       2.582   5.823  18.407  0.00  0.00    +0.000 A 
ENDROOT
BRANCH   5   7
ATOM      7  N   UNL     1       3.439   3.915  17.124  0.00  0.00    +0.000 N 
ATOM      8  C   UNL     1       4.728   4.143  16.662  0.00  0.00    +0.000 A 
ATOM      9  N   UNL     1       5.124   3.532  15.529  0.00  0.00    +0.000 NA
ATOM     10  C   UNL     1       6.315   3.896  15.024  0.00  0.00    +0.000 A 
ATOM     11  C   UNL     1       7.138   4.829  15.600  0.00  0.00    +0.000 A 
ATOM     12  C   UNL     1       6.669   5.392  16.750  0.00  0.00    +0.000 A 
ATOM     13  N   UNL     1       5.487   5.067  17.281  0.00  0.00    +0.000 NA
ATOM     14  H   UNL     1       2.817   3.676  16.365  0.00  0.00    +0.000 HD
BRANCH  12  15
ATOM     15  C   UNL     1       7.370   6.488  17.412  0.00  0.00    +0.000 A 
ATOM     16  C   UNL     1       8.038   6.616  18.595  0.00  0.00    +0.000 A 
ATOM     17  C   UNL     1       8.384   7.981  18.735  0.00  0.00    +0.000 A 
ATOM     18  C   UNL     1       7.915   8.601  17.598  0.00  0.00    +0.000 A 
ATOM     19  O   UNL     1       7.308   7.706  16.782  0.00  0.00    +0.000 OA
ENDBRANCH  12  15
ENDBRANCH   5   7
BRANCH   1  24
ATOM     20  C   UNL     1      -0.928  10.915  19.192  0.00  0.00    +0.000 C 
ATOM     21  C   UNL     1       0.374  10.175  19.493  0.00  0.00    +0.000 C 
ATOM     22  C   UNL     1       0.881   9.429  18.252  0.00  0.00    +0.000 C 
ATOM     23  C   UNL     1       2.158   8.648  18.548  0.00  0.00    +0.000 C 
ATOM     24  N   UNL     1       1.945   7.776  19.703  0.00  0.00    +0.000 N 
ATOM     25  C   UNL     1       1.453   8.395  20.930  0.00  0.00    +0.000 C 
ATOM     26  C   UNL     1       0.183   9.193  20.655  0.00  0.00    +0.000 C 
ENDBRANCH   1  24
TORSDOF 3
ENDMDL
MODEL 2
REMARK VINA RESULT:      -8.2      2.723      5.416
REMARK  Name = 
REMARK  4 active torsions:
REMARK  status: ('A' for Active; 'I' for Inactive)
REMARK    1  A    between atoms: C_1  and  C_2
REMARK    2  A    between atoms: N_5  and  C_6
REMARK    3  A    between atoms: C_10  and  N_11
REMARK    4  A    between atoms: C_16  and  C_17
REMARK                            x       y       z     vdW  Elec       q    Type
REMARK                         _______ _______ _______ _____ _____    ______ ____
ROOT
ATOM      1  C   UNL     1      -0.514  10.181  18.816  0.00  0.00    +0.000 A 
ATOM      2  C   UNL     1      -0.479  10.068  20.206  0.00  0.00    +0.000 A 
ATOM      3  C   UNL     1       0.557   9.406  20.860  0.00  0.00    +0.000 A 
ATOM      4  C   UNL     1       1.592   8.826  20.127  0.00  0.00    +0.000 A 
ATOM      5  C   UNL     1       1.605   8.922  18.739  0.00  0.00    +0.000 A 
ATOM      6  C   UNL     1       0.528   9.568  18.109  0.00  0.00    +0.000 A 
ENDROOT
BRANCH   5   7
ATOM      7  N   UNL     1       2.698   8.428  18.004  0.00  0.00    +0.000 N 
ATOM      8  C   UNL     1       3.115   7.105  17.923  0.00  0.00    +0.000 A 
ATOM      9  N   UNL     1       4.181   6.812  17.155  0.00  0.00    +0.000 NA
ATOM     10  C   UNL     1       4.655   5.556  17.224  0.00  0.00    +0.000 A 
ATOM     11  C   UNL     1       4.111   4.574  18.010  0.00  0.00    +0.000 A 
ATOM     12  C   UNL     1       3.028   4.950  18.749  0.00  0.00    +0.000 A 
ATOM     13  N   UNL     1       2.529   6.190  18.718  0.00  0.00    +0.000 NA
ATOM     14  H   UNL     1       3.466   9.062  17.837  0.00  0.00    +0.000 HD
BRANCH  12  15
ATOM     15  C   UNL     1       2.414   4.056  19.727  0.00  0.00    +0.000 A 
ATOM     16  C   UNL     1       1.135   3.838  20.149  0.00  0.00    +0.000 A 
ATOM     17  C   UNL     1       1.201   2.927  21.230  0.00  0.00    +0.000 A 
ATOM     18  C   UNL     1       2.537   2.629  21.383  0.00  0.00    +0.000 A 
ATOM     19  O   UNL     1       3.283   3.297  20.471  0.00  0.00    +0.000 OA
ENDBRANCH  12  15
ENDBRANCH   5   7
BRANCH   1  24
ATOM     20  C   UNL     1      -5.767  11.261  17.819  0.00  0.00    +0.000 C 
ATOM     21  C   UNL     1      -4.269  11.476  17.607  0.00  0.00    +0.000 C 
ATOM     22  C   UNL     1      -3.598  10.192  17.101  0.00  0.00    +0.000 C 
ATOM     23  C   UNL     1      -2.092  10.376  16.925  0.00  0.00    +0.000 C 
ATOM     24  N   UNL     1      -1.512  10.885  18.168  0.00  0.00    +0.000 N 
ATOM     25  C   UNL     1      -2.092  12.100  18.733  0.00  0.00    +0.000 C 
ATOM     26  C   UNL     1      -3.599  11.943  18.904  0.00  0.00    +0.000 C 
ENDBRANCH   1  24
TORSDOF 3
ENDMDL
MODEL 3
REMARK VINA RESULT:      -8.1      2.747      5.356
REMARK  Name = 
REMARK  4 active torsions:
REMARK  status: ('A' for Active; 'I' for Inactive)
REMARK    1  A    between atoms: C_1  and  C_2
REMARK    2  A    between atoms: N_5  and  C_6
REMARK    3  A    between atoms: C_10  and  N_11
REMARK    4  A    between atoms: C_16  and  C_17
REMARK                            x       y       z     vdW  Elec       q    Type
REMARK                         _______ _______ _______ _____ _____    ______ ____
ROOT
ATOM      1  C   UNL     1      -0.407  10.036  18.755  0.00  0.00    +0.000 A 
ATOM      2  C   UNL     1      -0.454   9.796  20.128  0.00  0.00    +0.000 A 
ATOM      3  C   UNL     1       0.571   9.122  20.789  0.00  0.00    +0.000 A 
ATOM      4  C   UNL     1       1.677   8.659  20.078  0.00  0.00    +0.000 A 
ATOM      5  C   UNL     1       1.773   8.883  18.709  0.00  0.00    +0.000 A 
ATOM      6  C   UNL     1       0.707   9.538  18.067  0.00  0.00    +0.000 A 
ENDROOT
BRANCH   5   7
ATOM      7  N   UNL     1       2.934   8.509  18.007  0.00  0.00    +0.000 N 
ATOM      8  C   UNL     1       3.296   7.222  17.629  0.00  0.00    +0.000 A 
ATOM      9  N   UNL     1       4.444   7.051  16.946  0.00  0.00    +0.000 NA
ATOM     10  C   UNL     1       4.845   5.785  16.736  0.00  0.00    +0.000 A 
ATOM     11  C   UNL     1       4.152   4.682  17.160  0.00  0.00    +0.000 A 
ATOM     12  C   UNL     1       2.995   4.941  17.835  0.00  0.00    +0.000 A 
ATOM     13  N   UNL     1       2.564   6.183  18.074  0.00  0.00    +0.000 NA
ATOM     14  H   UNL     1       3.746   9.100  18.110  0.00  0.00    +0.000 HD
BRANCH  12  15
ATOM     15  C   UNL     1       2.212   3.878  18.457  0.00  0.00    +0.000 A 
ATOM     16  C   UNL     1       1.910   2.592  18.117  0.00  0.00    +0.000 A 
ATOM     17  C   UNL     1       0.985   2.112  19.074  0.00  0.00    +0.000 A 
ATOM     18  C   UNL     1       0.800   3.148  19.962  0.00  0.00    +0.000 A 
ATOM     19  O   UNL     1       1.545   4.221  19.607  0.00  0.00    +0.000 OA
ENDBRANCH  12  15
ENDBRANCH   5   7
BRANCH   1  24
ATOM     20  C   UNL     1      -5.644  11.238  17.817  0.00  0.00    +0.000 C 
ATOM     21  C   UNL     1      -4.144  11.406  17.576  0.00  0.00    +0.000 C 
ATOM     22  C   UNL     1      -3.516  10.094  17.088  0.00  0.00    +0.000 C 
ATOM     23  C   UNL     1      -2.010  10.233  16.885  0.00  0.00    +0.000 C 
ATOM     24  N   UNL     1      -1.396  10.753  18.107  0.00  0.00    +0.000 N 
ATOM     25  C   UNL     1      -1.933  11.995  18.654  0.00  0.00    +0.000 C 
ATOM     26  C   UNL     1      -3.441  11.883  18.852  0.00  0.00    +0.000 C 
ENDBRANCH   1  24
TORSDOF 3
ENDMDL
MODEL 4
REMARK VINA RESULT:      -7.9      3.630      8.835
REMARK  Name = 
REMARK  4 active torsions:
REMARK  status: ('A' for Active; 'I' for Inactive)
REMARK    1  A    between atoms: C_1  and  C_2
REMARK    2  A    between atoms: N_5  and  C_6
REMARK    3  A    between atoms: C_10  and  N_11
REMARK    4  A    between atoms: C_16  and  C_17
REMARK                            x       y       z     vdW  Elec       q    Type
REMARK                         _______ _______ _______ _____ _____    ______ ____
ROOT
ATOM      1  C   UNL     1       2.276   7.140  19.387  0.00  0.00    +0.000 A 
ATOM      2  C   UNL     1       2.539   7.550  18.080  0.00  0.00    +0.000 A 
ATOM      3  C   UNL     1       2.184   8.818  17.625  0.00  0.00    +0.000 A 
ATOM      4  C   UNL     1       1.540   9.713  18.478  0.00  0.00    +0.000 A 
ATOM      5  C   UNL     1       1.265   9.353  19.793  0.00  0.00    +0.000 A 
ATOM      6  C   UNL     1       1.608   8.055  20.210  0.00  0.00    +0.000 A 
ENDROOT
BRANCH   5   7
ATOM      7  N   UNL     1       0.709  10.289  20.684  0.00  0.00    +0.000 N 
ATOM      8  C   UNL     1      -0.510  10.941  20.549  0.00  0.00    +0.000 A 
ATOM      9  N   UNL     1      -0.891  11.800  21.513  0.00  0.00    +0.000 NA
ATOM     10  C   UNL     1      -1.993  12.533  21.277  0.00  0.00    +0.000 A 
ATOM     11  C   UNL     1      -2.742  12.441  20.133  0.00  0.00    +0.000 A 
ATOM     12  C   UNL     1      -2.294  11.541  19.211  0.00  0.00    +0.000 A 
ATOM     13  N   UNL     1      -1.199  10.800  19.400  0.00  0.00    +0.000 NA
ATOM     14  H   UNL     1       1.351  10.830  21.245  0.00  0.00    +0.000 HD
BRANCH  12  15
ATOM     15  C   UNL     1      -2.909  11.418  17.892  0.00  0.00    +0.000 A 
ATOM     16  C   UNL     1      -4.183  11.544  17.419  0.00  0.00    +0.000 A 
ATOM     17  C   UNL     1      -4.162  11.167  16.055  0.00  0.00    +0.000 A 
ATOM     18  C   UNL     1      -2.850  10.853  15.778  0.00  0.00    +0.000 A 
ATOM     19  O   UNL     1      -2.077  11.011  16.879  0.00  0.00    +0.000 OA
ENDBRANCH  12  15
ENDBRANCH   5   7
BRANCH   1  24
ATOM     20  C   UNL     1       2.829   1.740  18.849  0.00  0.00    +0.000 C 
ATOM     21  C   UNL     1       2.976   3.054  19.615  0.00  0.00    +0.000 C 
ATOM     22  C   UNL     1       1.607   3.707  19.851  0.00  0.00    +0.000 C 
ATOM     23  C   UNL     1       1.739   5.043  20.577  0.00  0.00    +0.000 C 
ATOM     24  N   UNL     1       2.677   5.903  19.857  0.00  0.00    +0.000 N 
ATOM     25  C   UNL     1       4.005   5.365  19.577  0.00  0.00    +0.000 C 
ATOM     26  C   UNL     1       3.897   4.021  18.863  0.00  0.00    +0.000 C 
ENDBRANCH   1  24
TORSDOF 3
ENDMDL
MODEL 5
REMARK VINA RESULT:      -7.6      2.348      3.960
REMARK  Name = 
REMARK  4 active torsions:
REMARK  status: ('A' for Active; 'I' for Inactive)
REMARK    1  A    between atoms: C_1  and  C_2
REMARK    2  A    between atoms: N_5  and  C_6
REMARK    3  A    between atoms: C_10  and  N_11
REMARK    4  A    between atoms: C_16  and  C_17
REMARK                            x       y       z     vdW  Elec       q    Type
REMARK                         _______ _______ _______ _____ _____    ______ ____
ROOT
ATOM      1  C   UNL     1       1.353   9.134  20.387  0.00  0.00    +0.000 A 
ATOM      2  C   UNL     1       1.506   9.483  19.045  0.00  0.00    +0.000 A 
ATOM      3  C   UNL     1       1.859   8.542  18.080  0.00  0.00    +0.000 A 
ATOM      4  C   UNL     1       2.079   7.214  18.444  0.00  0.00    +0.000 A 
ATOM      5  C   UNL     1       1.929   6.818  19.769  0.00  0.00    +0.000 A 
ATOM      6  C   UNL     1       1.603   7.798  20.722  0.00  0.00    +0.000 A 
ENDROOT
BRANCH   5   7
ATOM      7  N   UNL     1       2.049   5.461  20.123  0.00  0.00    +0.000 N 
ATOM      8  C   UNL     1       2.937   4.538  19.584  0.00  0.00    +0.000 A 
ATOM      9  N   UNL     1       2.921   3.278  20.056  0.00  0.00    +0.000 NA
ATOM     10  C   UNL     1       3.675   2.373  19.407  0.00  0.00    +0.000 A 
ATOM     11  C   UNL     1       4.455   2.667  18.319  0.00  0.00    +0.000 A 
ATOM     12  C   UNL     1       4.424   3.968  17.910  0.00  0.00    +0.000 A 
ATOM     13  N   UNL     1       3.681   4.897  18.520  0.00  0.00    +0.000 NA
ATOM     14  H   UNL     1       1.225   5.004  20.485  0.00  0.00    +0.000 HD
BRANCH  12  15
ATOM     15  C   UNL     1       5.100   4.410  16.695  0.00  0.00    +0.000 A 
ATOM     16  C   UNL     1       5.188   5.599  16.031  0.00  0.00    +0.000 A 
ATOM     17  C   UNL     1       5.888   5.356  14.826  0.00  0.00    +0.000 A 
ATOM     18  C   UNL     1       6.206   4.016  14.847  0.00  0.00    +0.000 A 
ATOM     19  O   UNL     1       5.744   3.432  15.978  0.00  0.00    +0.000 OA
ENDBRANCH  12  15
ENDBRANCH   5   7
BRANCH   1  24
ATOM     20  C   UNL     1      -2.515  11.880  23.079  0.00  0.00    +0.000 C 
ATOM     21  C   UNL     1      -1.061  11.530  22.768  0.00  0.00    +0.000 C 
ATOM     22  C   UNL     1      -0.724  11.835  21.303  0.00  0.00    +0.000 C 
ATOM     23  C   UNL     1       0.713  11.450  20.964  0.00  0.00    +0.000 C 
ATOM     24  N   UNL     1       0.948  10.055  21.336  0.00  0.00    +0.000 N 
ATOM     25  C   UNL     1       0.647   9.665  22.710  0.00  0.00    +0.000 C 
ATOM     26  C   UNL     1      -0.781  10.054  23.076  0.00  0.00    +0.000 C 
ENDBRANCH   1  24
TORSDOF 3
ENDMDL
MODEL 6
REMARK VINA RESULT:      -7.5      1.403      2.129
REMARK  Name = 
REMARK  4 active torsions:
REMARK  status: ('A' for Active; 'I' for Inactive)
REMARK    1  A    between atoms: C_1  and  C_2
REMARK    2  A    between atoms: N_5  and  C_6
REMARK    3  A    between atoms: C_10  and  N_11
REMARK    4  A    between atoms: C_16  and  C_17
REMARK                            x       y       z     vdW  Elec       q    Type
REMARK                         _______ _______ _______ _____ _____    ______ ____
ROOT
ATOM      1  C   UNL     1       1.564   8.581  18.840  0.00  0.00    +0.000 A 
ATOM      2  C   UNL     1       1.534   8.311  20.209  0.00  0.00    +0.000 A 
ATOM      3  C   UNL     1       1.942   7.080  20.720  0.00  0.00    +0.000 A 
ATOM      4  C   UNL     1       2.385   6.076  19.860  0.00  0.00    +0.000 A 
ATOM      5  C   UNL     1       2.441   6.304  18.489  0.00  0.00    +0.000 A 
ATOM      6  C   UNL     1       1.993   7.544  18.003  0.00  0.00    +0.000 A 
ENDROOT
BRANCH   5   7
ATOM      7  N   UNL     1       2.984   5.330  17.629  0.00  0.00    +0.000 N 
ATOM      8  C   UNL     1       4.325   5.155  17.315  0.00  0.00    +0.000 A 
ATOM      9  N   UNL     1       4.666   4.157  16.479  0.00  0.00    +0.000 NA
ATOM     10  C   UNL     1       5.946   4.114  16.070  0.00  0.00    +0.000 A 
ATOM     11  C   UNL     1       6.906   5.009  16.464  0.00  0.00    +0.000 A 
ATOM     12  C   UNL     1       6.482   5.983  17.319  0.00  0.00    +0.000 A 
ATOM     13  N   UNL     1       5.217   6.069  17.743  0.00  0.00    +0.000 NA
ATOM     14  H   UNL     1       2.389   4.985  16.890  0.00  0.00    +0.000 HD
BRANCH  12  15
ATOM     15  C   UNL     1       7.353   7.081  17.729  0.00  0.00    +0.000 A 
ATOM     16  C   UNL     1       8.280   7.243  18.716  0.00  0.00    +0.000 A 
ATOM     17  C   UNL     1       8.694   8.597  18.683  0.00  0.00    +0.000 A 
ATOM     18  C   UNL     1       7.995   9.172  17.645  0.00  0.00    +0.000 A 
ATOM     19  O   UNL     1       7.186   8.263  17.051  0.00  0.00    +0.000 OA
ENDBRANCH  12  15
ENDBRANCH   5   7
BRANCH   1  24
ATOM     20  C   UNL     1       0.078  13.790  19.485  0.00  0.00    +0.000 C 
ATOM     21  C   UNL     1       0.418  12.566  18.635  0.00  0.00    +0.000 C 
ATOM     22  C   UNL     1      -0.545  11.409  18.930  0.00  0.00    +0.000 C 
ATOM     23  C   UNL     1      -0.191  10.163  18.121  0.00  0.00    +0.000 C 
ATOM     24  N   UNL     1       1.214   9.820  18.336  0.00  0.00    +0.000 N 
ATOM     25  C   UNL     1       2.206  10.862  18.090  0.00  0.00    +0.000 C 
ATOM     26  C   UNL     1       1.865  12.122  18.878  0.00  0.00    +0.000 C 
ENDBRANCH   1  24
TORSDOF 3
ENDMDL
MODEL 7
REMARK VINA RESULT:      -7.4      2.237      7.353
REMARK  Name = 
REMARK  4 active torsions:
REMARK  status: ('A' for Active; 'I' for Inactive)
REMARK    1  A    between atoms: C_1  and  C_2
REMARK    2  A    between atoms: N_5  and  C_6
REMARK    3  A    between atoms: C_10  and  N_11
REMARK    4  A    between atoms: C_16  and  C_17
REMARK                            x       y       z     vdW  Elec       q    Type
REMARK                         _______ _______ _______ _____ _____    ______ ____
ROOT
ATOM      1  C   UNL     1       6.466   5.155  15.912  0.00  0.00    +0.000 A 
ATOM      2  C   UNL     1       7.367   6.044  16.498  0.00  0.00    +0.000 A 
ATOM      3  C   UNL     1       7.529   6.117  17.880  0.00  0.00    +0.000 A 
ATOM      4  C   UNL     1       6.773   5.298  18.718  0.00  0.00    +0.000 A 
ATOM      5  C   UNL     1       5.868   4.390  18.179  0.00  0.00    +0.000 A 
ATOM      6  C   UNL     1       5.707   4.364  16.783  0.00  0.00    +0.000 A 
ENDROOT
BRANCH   5   7
ATOM      7  N   UNL     1       5.179   3.492  19.015  0.00  0.00    +0.000 N 
ATOM      8  C   UNL     1       3.974   3.721  19.666  0.00  0.00    +0.000 A 
ATOM      9  N   UNL     1       3.451   2.736  20.420  0.00  0.00    +0.000 NA
ATOM     10  C   UNL     1       2.373   3.042  21.162  0.00  0.00    +0.000 A 
ATOM     11  C   UNL     1       1.781   4.278  21.178  0.00  0.00    +0.000 A 
ATOM     12  C   UNL     1       2.364   5.217  20.379  0.00  0.00    +0.000 A 
ATOM     13  N   UNL     1       3.443   4.959  19.634  0.00  0.00    +0.000 NA
ATOM     14  H   UNL     1       5.731   2.802  19.504  0.00  0.00    +0.000 HD
BRANCH  12  15
ATOM     15  C   UNL     1       1.928   6.610  20.383  0.00  0.00    +0.000 A 
ATOM     16  C   UNL     1       1.137   7.359  21.204  0.00  0.00    +0.000 A 
ATOM     17  C   UNL     1       0.982   8.627  20.594  0.00  0.00    +0.000 A 
ATOM     18  C   UNL     1       1.720   8.571  19.433  0.00  0.00    +0.000 A 
ATOM     19  O   UNL     1       2.308   7.359  19.297  0.00  0.00    +0.000 OA
ENDBRANCH  12  15
ENDBRANCH   5   7
BRANCH   1  24
ATOM     20  C   UNL     1       7.130   2.425  11.237  0.00  0.00    +0.000 C 
ATOM     21  C   UNL     1       6.688   3.639  12.053  0.00  0.00    +0.000 C 
ATOM     22  C   UNL     1       7.875   4.255  12.805  0.00  0.00    +0.000 C 
ATOM     23  C   UNL     1       7.444   5.442  13.661  0.00  0.00    +0.000 C 
ATOM     24  N   UNL     1       6.344   5.041  14.539  0.00  0.00    +0.000 N 
ATOM     25  C   UNL     1       5.172   4.435  13.915  0.00  0.00    +0.000 C 
ATOM     26  C   UNL     1       5.582   3.254  13.043  0.00  0.00    +0.000 C 
ENDBRANCH   1  24
TORSDOF 3
ENDMDL
MODEL 8
REMARK VINA RESULT:      -7.4      2.196      3.720
REMARK  Name = 
REMARK  4 active torsions:
REMARK  status: ('A' for Active; 'I' for Inactive)
REMARK    1  A    between atoms: C_1  and  C_2
REMARK    2  A    between atoms: N_5  and  C_6
REMARK    3  A    between atoms: C_10  and  N_11
REMARK    4  A    between atoms: C_16  and  C_17
REMARK                            x       y       z     vdW  Elec       q    Type
REMARK                         _______ _______ _______ _____ _____    ______ ____
ROOT
ATOM      1  C   UNL     1       1.132   9.623  20.306  0.00  0.00    +0.000 A 
ATOM      2  C   UNL     1       1.335  10.149  19.031  0.00  0.00    +0.000 A 
ATOM      3  C   UNL     1       1.682   9.339  17.952  0.00  0.00    +0.000 A 
ATOM      4  C   UNL     1       1.846   7.966  18.130  0.00  0.00    +0.000 A 
ATOM      5  C   UNL     1       1.644   7.395  19.382  0.00  0.00    +0.000 A 
ATOM      6  C   UNL     1       1.326   8.244  20.456  0.00  0.00    +0.000 A 
ENDROOT
BRANCH   5   7
ATOM      7  N   UNL     1       1.708   5.998  19.544  0.00  0.00    +0.000 N 
ATOM      8  C   UNL     1       2.857   5.219  19.591  0.00  0.00    +0.000 A 
ATOM      9  N   UNL     1       2.728   3.891  19.766  0.00  0.00    +0.000 NA
ATOM     10  C   UNL     1       3.842   3.148  19.647  0.00  0.00    +0.000 A 
ATOM     11  C   UNL     1       5.081   3.666  19.375  0.00  0.00    +0.000 A 
ATOM     12  C   UNL     1       5.129   5.021  19.222  0.00  0.00    +0.000 A 
ATOM     13  N   UNL     1       4.044   5.795  19.322  0.00  0.00    +0.000 NA
ATOM     14  H   UNL     1       0.917   5.460  19.221  0.00  0.00    +0.000 HD
BRANCH  12  15
ATOM     15  C   UNL     1       6.348   5.707  18.807  0.00  0.00    +0.000 A 
ATOM     16  C   UNL     1       7.601   5.829  19.335  0.00  0.00    +0.000 A 
ATOM     17  C   UNL     1       8.310   6.747  18.524  0.00  0.00    +0.000 A 
ATOM     18  C   UNL     1       7.434   7.112  17.526  0.00  0.00    +0.000 A 
ATOM     19  O   UNL     1       6.245   6.481  17.678  0.00  0.00    +0.000 OA
ENDBRANCH  12  15
ENDBRANCH   5   7
BRANCH   1  24
ATOM     20  C   UNL     1      -2.720  11.999  23.350  0.00  0.00    +0.000 C 
ATOM     21  C   UNL     1      -1.268  11.695  22.987  0.00  0.00    +0.000 C 
ATOM     22  C   UNL     1      -0.944  12.181  21.568  0.00  0.00    +0.000 C 
ATOM     23  C   UNL     1       0.492  11.846  21.172  0.00  0.00    +0.000 C 
ATOM     24  N   UNL     1       0.733  10.416  21.366  0.00  0.00    +0.000 N 
ATOM     25  C   UNL     1       0.445   9.858  22.683  0.00  0.00    +0.000 C 
ATOM     26  C   UNL     1      -0.982  10.193  23.105  0.00  0.00    +0.000 C 
ENDBRANCH   1  24
TORSDOF 3
ENDMDL
MODEL 9
REMARK VINA RESULT:      -7.4      2.154      4.185
REMARK  Name = 
REMARK  4 active torsions:
REMARK  status: ('A' for Active; 'I' for Inactive)
REMARK    1  A    between atoms: C_1  and  C_2
REMARK    2  A    between atoms: N_5  and  C_6
REMARK    3  A    between atoms: C_10  and  N_11
REMARK    4  A    between atoms: C_16  and  C_17
REMARK                            x       y       z     vdW  Elec       q    Type
REMARK                         _______ _______ _______ _____ _____    ______ ____
ROOT
ATOM      1  C   UNL     1       1.220   9.860  19.586  0.00  0.00    +0.000 A 
ATOM      2  C   UNL     1       1.727   9.889  18.287  0.00  0.00    +0.000 A 
ATOM      3  C   UNL     1       2.261   8.752  17.684  0.00  0.00    +0.000 A 
ATOM      4  C   UNL     1       2.309   7.546  18.383  0.00  0.00    +0.000 A 
ATOM      5  C   UNL     1       1.807   7.467  19.677  0.00  0.00    +0.000 A 
ATOM      6  C   UNL     1       1.304   8.640  20.267  0.00  0.00    +0.000 A 
ENDROOT
BRANCH   5   7
ATOM      7  N   UNL     1       1.761   6.230  20.347  0.00  0.00    +0.000 N 
ATOM      8  C   UNL     1       2.686   5.198  20.250  0.00  0.00    +0.000 A 
ATOM      9  N   UNL     1       2.486   4.084  20.978  0.00  0.00    +0.000 NA
ATOM     10  C   UNL     1       3.307   3.045  20.742  0.00  0.00    +0.000 A 
ATOM     11  C   UNL     1       4.326   3.068  19.826  0.00  0.00    +0.000 A 
ATOM     12  C   UNL     1       4.468   4.237  19.137  0.00  0.00    +0.000 A 
ATOM     13  N   UNL     1       3.668   5.290  19.333  0.00  0.00    +0.000 NA
ATOM     14  H   UNL     1       0.850   5.879  20.603  0.00  0.00    +0.000 HD
BRANCH  12  15
ATOM     15  C   UNL     1       5.423   4.375  18.042  0.00  0.00    +0.000 A 
ATOM     16  C   UNL     1       5.327   4.332  16.682  0.00  0.00    +0.000 A 
ATOM     17  C   UNL     1       6.644   4.401  16.167  0.00  0.00    +0.000 A 
ATOM     18  C   UNL     1       7.466   4.505  17.267  0.00  0.00    +0.000 A 
ATOM     19  O   UNL     1       6.740   4.502  18.409  0.00  0.00    +0.000 OA
ENDBRANCH  12  15
ENDBRANCH   5   7
BRANCH   1  24
ATOM     20  C   UNL     1      -2.932  12.365  22.084  0.00  0.00    +0.000 C 
ATOM     21  C   UNL     1      -1.532  12.331  21.472  0.00  0.00    +0.000 C 
ATOM     22  C   UNL     1      -1.593  11.953  19.986  0.00  0.00    +0.000 C 
ATOM     23  C   UNL     1      -0.199  11.871  19.369  0.00  0.00    +0.000 C 
ATOM     24  N   UNL     1       0.638  10.973  20.165  0.00  0.00    +0.000 N 
ATOM     25  C   UNL     1       0.750  11.247  21.594  0.00  0.00    +0.000 C 
ATOM     26  C   UNL     1      -0.633  11.347  22.229  0.00  0.00    +0.000 C 
ENDBRANCH   1  24
TORSDOF 3
ENDMDL
