MODEL 1
REMARK VINA RESULT:      -8.5      0.000      0.000
REMARK  Name = 
REMARK  4 active torsions:
REMARK  status: ('A' for Active; 'I' for Inactive)
REMARK    1  A    between atoms: C_1  and  C_2
REMARK    2  A    between atoms: C_5  and  C_6
REMARK    3  A    between atoms: C_7  and  C_8
REMARK    4  A    between atoms: C_8  and  C_10
REMARK                            x       y       z     vdW  Elec       q    Type
REMARK                         _______ _______ _______ _____ _____    ______ ____
ROOT
ATOM      1  C   UNL     1       5.898   5.350  18.344  0.00  0.00    +0.000 A 
ATOM      2  N   UNL     1       4.912   6.149  18.596  0.00  0.00    +0.000 NA
ATOM      3  C   UNL     1       3.815   5.627  19.293  0.00  0.00    +0.000 A 
ATOM      4  C   UNL     1       2.751   6.481  19.591  0.00  0.00    +0.000 A 
ATOM      5  C   UNL     1       1.637   6.009  20.289  0.00  0.00    +0.000 A 
ATOM      6  C   UNL     1       1.577   4.674  20.689  0.00  0.00    +0.000 A 
ATOM      7  C   UNL     1       2.633   3.808  20.396  0.00  0.00    +0.000 A 
ATOM      8  C   UNL     1       3.746   4.292  19.704  0.00  0.00    +0.000 A 
ATOM      9  C   UNL     1       4.897   3.422  19.384  0.00  0.00    +0.000 A 
ATOM     10  O   UNL     1       4.923   2.239  19.702  0.00  0.00    +0.000 OA
ATOM     11  N   UNL     1       5.927   4.030  18.714  0.00  0.00    +0.000 N 
ATOM     12  H   UNL     1       6.738   3.468  18.479  0.00  0.00    +0.000 HD
ENDROOT
BRANCH   1  13
ATOM     13  C   UNL     1       7.126   5.845  17.593  0.00  0.00    +0.000 C 
ATOM     14  O   UNL     1       7.477   5.259  16.578  0.00  0.00    +0.000 OA
BRANCH  13  16
ATOM     15  C   UNL     1       7.739   8.242  17.579  0.00  0.00    +0.000 C 
ATOM     16  C   UNL     1       7.813   7.035  18.160  0.00  0.00    +0.000 C 
BRANCH  15  21
ATOM     17  C   UNL     1      10.155  13.038  19.765  0.00  0.00    +0.000 C 
ATOM     18  C   UNL     1       9.547  11.795  19.185  0.00  0.00    +0.000 A 
ATOM     19  C   UNL     1       8.865  11.820  17.965  0.00  0.00    +0.000 A 
ATOM     20  C   UNL     1       8.289  10.654  17.447  0.00  0.00    +0.000 A 
ATOM     21  C   UNL     1       8.391   9.439  18.134  0.00  0.00    +0.000 A 
ATOM     22  C   UNL     1       9.067   9.423  19.363  0.00  0.00    +0.000 A 
ATOM     23  C   UNL     1       9.645  10.586  19.879  0.00  0.00    +0.000 A 
ENDBRANCH  15  21
ENDBRANCH  13  16
ENDBRANCH   1  13
TORSDOF 3
ENDMDL
MODEL 2
REMARK VINA RESULT:      -8.3      3.001      4.492
REMARK  Name = 
REMARK  4 active torsions:
REMARK  status: ('A' for Active; 'I' for Inactive)
REMARK    1  A    between atoms: C_1  and  C_2
REMARK    2  A    between atoms: C_5  and  C_6
REMARK    3  A    between atoms: C_7  and  C_8
REMARK    4  A    between atoms: C_8  and  C_10
REMARK                            x       y       z     vdW  Elec       q    Type
REMARK                         _______ _______ _______ _____ _____    ______ ____
ROOT
ATOM      1  C   UNL     1       6.987   5.943  16.795  0.00  0.00    +0.000 A 
ATOM      2  N   UNL     1       7.605   5.894  15.659  0.00  0.00    +0.000 NA
ATOM      3  C   UNL     1       7.026   5.130  14.638  0.00  0.00    +0.000 A 
ATOM      4  C   UNL     1       7.669   5.083  13.400  0.00  0.00    +0.000 A 
ATOM      5  C   UNL     1       7.130   4.339  12.347  0.00  0.00    +0.000 A 
ATOM      6  C   UNL     1       5.942   3.630  12.530  0.00  0.00    +0.000 A 
ATOM      7  C   UNL     1       5.288   3.667  13.764  0.00  0.00    +0.000 A 
ATOM      8  C   UNL     1       5.834   4.420  14.808  0.00  0.00    +0.000 A 
ATOM      9  C   UNL     1       5.174   4.506  16.127  0.00  0.00    +0.000 A 
ATOM     10  O   UNL     1       4.128   3.915  16.368  0.00  0.00    +0.000 OA
ATOM     11  N   UNL     1       5.810   5.289  17.055  0.00  0.00    +0.000 N 
ATOM     12  H   UNL     1       5.387   5.379  17.972  0.00  0.00    +0.000 HD
ENDROOT
BRANCH   1  13
ATOM     13  C   UNL     1       7.552   6.754  17.952  0.00  0.00    +0.000 C 
ATOM     14  O   UNL     1       7.633   6.236  19.057  0.00  0.00    +0.000 OA
BRANCH  13  16
ATOM     15  C   UNL     1       8.531   8.943  18.565  0.00  0.00    +0.000 C 
ATOM     16  C   UNL     1       7.982   8.142  17.639  0.00  0.00    +0.000 C 
BRANCH  15  21
ATOM     17  C   UNL     1      10.197  14.396  17.513  0.00  0.00    +0.000 C 
ATOM     18  C   UNL     1       9.767  12.981  17.764  0.00  0.00    +0.000 A 
ATOM     19  C   UNL     1       8.462  12.558  17.493  0.00  0.00    +0.000 A 
ATOM     20  C   UNL     1       8.075  11.237  17.748  0.00  0.00    +0.000 A 
ATOM     21  C   UNL     1       8.985  10.312  18.272  0.00  0.00    +0.000 A 
ATOM     22  C   UNL     1      10.289  10.745  18.552  0.00  0.00    +0.000 A 
ATOM     23  C   UNL     1      10.678  12.063  18.294  0.00  0.00    +0.000 A 
ENDBRANCH  15  21
ENDBRANCH  13  16
ENDBRANCH   1  13
TORSDOF 3
ENDMDL
MODEL 3
REMARK VINA RESULT:      -8.3      3.000      4.569
REMARK  Name = 
REMARK  4 active torsions:
REMARK  status: ('A' for Active; 'I' for Inactive)
REMARK    1  A    between atoms: C_1  and  C_2
REMARK    2  A    between atoms: C_5  and  C_6
REMARK    3  A    between atoms: C_7  and  C_8
REMARK    4  A    between atoms: C_8  and  C_10
REMARK                            x       y       z     vdW  Elec       q    Type
REMARK                         _______ _______ _______ _____ _____    ______ ____
ROOT
ATOM      1  C   UNL     1       6.996   5.942  16.815  0.00  0.00    +0.000 A 
ATOM      2  N   UNL     1       7.613   5.899  15.678  0.00  0.00    +0.000 NA
ATOM      3  C   UNL     1       7.035   5.141  14.653  0.00  0.00    +0.000 A 
ATOM      4  C   UNL     1       7.679   5.100  13.415  0.00  0.00    +0.000 A 
ATOM      5  C   UNL     1       7.139   4.362  12.358  0.00  0.00    +0.000 A 
ATOM      6  C   UNL     1       5.951   3.652  12.537  0.00  0.00    +0.000 A 
ATOM      7  C   UNL     1       5.297   3.683  13.771  0.00  0.00    +0.000 A 
ATOM      8  C   UNL     1       5.843   4.430  14.819  0.00  0.00    +0.000 A 
ATOM      9  C   UNL     1       5.182   4.508  16.138  0.00  0.00    +0.000 A 
ATOM     10  O   UNL     1       4.136   3.916  16.376  0.00  0.00    +0.000 OA
ATOM     11  N   UNL     1       5.818   5.287  17.070  0.00  0.00    +0.000 N 
ATOM     12  H   UNL     1       5.395   5.372  17.988  0.00  0.00    +0.000 HD
ENDROOT
BRANCH   1  13
ATOM     13  C   UNL     1       7.560   6.747  17.976  0.00  0.00    +0.000 C 
ATOM     14  O   UNL     1       7.644   6.222  19.077  0.00  0.00    +0.000 OA
BRANCH  13  16
ATOM     15  C   UNL     1       8.503   8.945  18.609  0.00  0.00    +0.000 C 
ATOM     16  C   UNL     1       7.987   8.138  17.671  0.00  0.00    +0.000 C 
BRANCH  15  21
ATOM     17  C   UNL     1      10.400  14.288  17.390  0.00  0.00    +0.000 C 
ATOM     18  C   UNL     1       9.907  12.911  17.727  0.00  0.00    +0.000 A 
ATOM     19  C   UNL     1      10.755  11.954  18.293  0.00  0.00    +0.000 A 
ATOM     20  C   UNL     1      10.283  10.669  18.585  0.00  0.00    +0.000 A 
ATOM     21  C   UNL     1       8.954  10.318  18.325  0.00  0.00    +0.000 A 
ATOM     22  C   UNL     1       8.111  11.279  17.747  0.00  0.00    +0.000 A 
ATOM     23  C   UNL     1       8.581  12.563  17.458  0.00  0.00    +0.000 A 
ENDBRANCH  15  21
ENDBRANCH  13  16
ENDBRANCH   1  13
TORSDOF 3
ENDMDL
MODEL 4
REMARK VINA RESULT:      -8.3      1.553      2.397
REMARK  Name = 
REMARK  4 active torsions:
REMARK  status: ('A' for Active; 'I' for Inactive)
REMARK    1  A    between atoms: C_1  and  C_2
REMARK    2  A    between atoms: C_5  and  C_6
REMARK    3  A    between atoms: C_7  and  C_8
REMARK    4  A    between atoms: C_8  and  C_10
REMARK                            x       y       z     vdW  Elec       q    Type
REMARK                         _______ _______ _______ _____ _____    ______ ____
ROOT
ATOM      1  C   UNL     1       5.857   6.109  17.745  0.00  0.00    +0.000 A 
ATOM      2  N   UNL     1       5.765   4.975  18.362  0.00  0.00    +0.000 NA
ATOM      3  C   UNL     1       4.507   4.604  18.854  0.00  0.00    +0.000 A 
ATOM      4  C   UNL     1       4.387   3.375  19.505  0.00  0.00    +0.000 A 
ATOM      5  C   UNL     1       3.152   2.957  20.009  0.00  0.00    +0.000 A 
ATOM      6  C   UNL     1       2.029   3.772  19.870  0.00  0.00    +0.000 A 
ATOM      7  C   UNL     1       2.135   5.005  19.223  0.00  0.00    +0.000 A 
ATOM      8  C   UNL     1       3.374   5.410  18.716  0.00  0.00    +0.000 A 
ATOM      9  C   UNL     1       3.536   6.697  18.009  0.00  0.00    +0.000 A 
ATOM     10  O   UNL     1       2.599   7.469  17.844  0.00  0.00    +0.000 OA
ATOM     11  N   UNL     1       4.801   6.963  17.552  0.00  0.00    +0.000 N 
ATOM     12  H   UNL     1       4.955   7.834  17.057  0.00  0.00    +0.000 HD
ENDROOT
BRANCH   1  13
ATOM     13  C   UNL     1       7.189   6.580  17.180  0.00  0.00    +0.000 C 
ATOM     14  O   UNL     1       7.607   6.078  16.146  0.00  0.00    +0.000 OA
BRANCH  13  16
ATOM     15  C   UNL     1       7.903   8.922  17.533  0.00  0.00    +0.000 C 
ATOM     16  C   UNL     1       7.891   7.646  17.943  0.00  0.00    +0.000 C 
BRANCH  15  21
ATOM     17  C   UNL     1      10.673  13.063  20.501  0.00  0.00    +0.000 C 
ATOM     18  C   UNL     1       9.938  11.995  19.745  0.00  0.00    +0.000 A 
ATOM     19  C   UNL     1       9.769  10.713  20.278  0.00  0.00    +0.000 A 
ATOM     20  C   UNL     1       9.095   9.725  19.552  0.00  0.00    +0.000 A 
ATOM     21  C   UNL     1       8.571   9.999  18.284  0.00  0.00    +0.000 A 
ATOM     22  C   UNL     1       8.754  11.283  17.750  0.00  0.00    +0.000 A 
ATOM     23  C   UNL     1       9.424  12.272  18.476  0.00  0.00    +0.000 A 
ENDBRANCH  15  21
ENDBRANCH  13  16
ENDBRANCH   1  13
TORSDOF 3
ENDMDL
MODEL 5
REMARK VINA RESULT:      -8.3      1.531      2.142
REMARK  Name = 
REMARK  4 active torsions:
REMARK  status: ('A' for Active; 'I' for Inactive)
REMARK    1  A    between atoms: C_1  and  C_2
REMARK    2  A    between atoms: C_5  and  C_6
REMARK    3  A    between atoms: C_7  and  C_8
REMARK    4  A    between atoms: C_8  and  C_10
REMARK                            x       y       z     vdW  Elec       q    Type
REMARK                         _______ _______ _______ _____ _____    ______ ____
ROOT
ATOM      1  C   UNL     1       5.823   5.976  17.766  0.00  0.00    +0.000 A 
ATOM      2  N   UNL     1       5.764   4.822  18.348  0.00  0.00    +0.000 NA
ATOM      3  C   UNL     1       4.528   4.417  18.867  0.00  0.00    +0.000 A 
ATOM      4  C   UNL     1       4.443   3.166  19.480  0.00  0.00    +0.000 A 
ATOM      5  C   UNL     1       3.231   2.715  20.009  0.00  0.00    +0.000 A 
ATOM      6  C   UNL     1       2.093   3.519  19.931  0.00  0.00    +0.000 A 
ATOM      7  C   UNL     1       2.164   4.774  19.322  0.00  0.00    +0.000 A 
ATOM      8  C   UNL     1       3.380   5.212  18.791  0.00  0.00    +0.000 A 
ATOM      9  C   UNL     1       3.504   6.523  18.121  0.00  0.00    +0.000 A 
ATOM     10  O   UNL     1       2.553   7.287  18.011  0.00  0.00    +0.000 OA
ATOM     11  N   UNL     1       4.751   6.821  17.634  0.00  0.00    +0.000 N 
ATOM     12  H   UNL     1       4.877   7.710  17.163  0.00  0.00    +0.000 HD
ENDROOT
BRANCH   1  13
ATOM     13  C   UNL     1       7.130   6.483  17.175  0.00  0.00    +0.000 C 
ATOM     14  O   UNL     1       7.527   6.013  16.118  0.00  0.00    +0.000 OA
BRANCH  13  16
ATOM     15  C   UNL     1       7.887   8.814  17.518  0.00  0.00    +0.000 C 
ATOM     16  C   UNL     1       7.835   7.543  17.943  0.00  0.00    +0.000 C 
BRANCH  15  21
ATOM     17  C   UNL     1      10.389  13.125  20.481  0.00  0.00    +0.000 C 
ATOM     18  C   UNL     1       9.760  12.007  19.702  0.00  0.00    +0.000 A 
ATOM     19  C   UNL     1       9.232  12.219  18.425  0.00  0.00    +0.000 A 
ATOM     20  C   UNL     1       8.634  11.168  17.719  0.00  0.00    +0.000 A 
ATOM     21  C   UNL     1       8.558   9.885  18.273  0.00  0.00    +0.000 A 
ATOM     22  C   UNL     1       9.079   9.682  19.559  0.00  0.00    +0.000 A 
ATOM     23  C   UNL     1       9.680  10.730  20.263  0.00  0.00    +0.000 A 
ENDBRANCH  15  21
ENDBRANCH  13  16
ENDBRANCH   1  13
TORSDOF 3
ENDMDL
MODEL 6
REMARK VINA RESULT:      -8.2      0.351      1.081
REMARK  Name = 
REMARK  4 active torsions:
REMARK  status: ('A' for Active; 'I' for Inactive)
REMARK    1  A    between atoms: C_1  and  C_2
REMARK    2  A    between atoms: C_5  and  C_6
REMARK    3  A    between atoms: C_7  and  C_8
REMARK    4  A    between atoms: C_8  and  C_10
REMARK                            x       y       z     vdW  Elec       q    Type
REMARK                         _______ _______ _______ _____ _____    ______ ____
ROOT
ATOM      1  C   UNL     1       5.919   5.671  18.190  0.00  0.00    +0.000 A 
ATOM      2  N   UNL     1       4.876   6.393  18.441  0.00  0.00    +0.000 NA
ATOM      3  C   UNL     1       3.832   5.799  19.162  0.00  0.00    +0.000 A 
ATOM      4  C   UNL     1       2.707   6.570  19.458  0.00  0.00    +0.000 A 
ATOM      5  C   UNL     1       1.642   6.025  20.179  0.00  0.00    +0.000 A 
ATOM      6  C   UNL     1       1.694   4.697  20.604  0.00  0.00    +0.000 A 
ATOM      7  C   UNL     1       2.812   3.912  20.312  0.00  0.00    +0.000 A 
ATOM      8  C   UNL     1       3.875   4.471  19.597  0.00  0.00    +0.000 A 
ATOM      9  C   UNL     1       5.087   3.689  19.277  0.00  0.00    +0.000 A 
ATOM     10  O   UNL     1       5.211   2.518  19.615  0.00  0.00    +0.000 OA
ATOM     11  N   UNL     1       6.058   4.364  18.582  0.00  0.00    +0.000 N 
ATOM     12  H   UNL     1       6.909   3.864  18.347  0.00  0.00    +0.000 HD
ENDROOT
BRANCH   1  13
ATOM     13  C   UNL     1       7.095   6.247  17.414  0.00  0.00    +0.000 C 
ATOM     14  O   UNL     1       7.380   5.769  16.325  0.00  0.00    +0.000 OA
BRANCH  13  16
ATOM     15  C   UNL     1       7.749   8.628  17.565  0.00  0.00    +0.000 C 
ATOM     16  C   UNL     1       7.816   7.380  18.051  0.00  0.00    +0.000 C 
BRANCH  15  21
ATOM     17  C   UNL     1      10.598  13.037  20.029  0.00  0.00    +0.000 C 
ATOM     18  C   UNL     1       9.844  11.899  19.407  0.00  0.00    +0.000 A 
ATOM     19  C   UNL     1       9.852  10.623  19.979  0.00  0.00    +0.000 A 
ATOM     20  C   UNL     1       9.156   9.569  19.375  0.00  0.00    +0.000 A 
ATOM     21  C   UNL     1       8.435   9.770  18.193  0.00  0.00    +0.000 A 
ATOM     22  C   UNL     1       8.442  11.049  17.618  0.00  0.00    +0.000 A 
ATOM     23  C   UNL     1       9.133  12.104  18.222  0.00  0.00    +0.000 A 
ENDBRANCH  15  21
ENDBRANCH  13  16
ENDBRANCH   1  13
TORSDOF 3
ENDMDL
MODEL 7
REMARK VINA RESULT:      -8.1      1.844      2.627
REMARK  Name = 
REMARK  4 active torsions:
REMARK  status: ('A' for Active; 'I' for Inactive)
REMARK    1  A    between atoms: C_1  and  C_2
REMARK    2  A    between atoms: C_5  and  C_6
REMARK    3  A    between atoms: C_7  and  C_8
REMARK    4  A    between atoms: C_8  and  C_10
REMARK                            x       y       z     vdW  Elec       q    Type
REMARK                         _______ _______ _______ _____ _____    ______ ____
ROOT
ATOM      1  C   UNL     1       5.679   5.627  17.469  0.00  0.00    +0.000 A 
ATOM      2  N   UNL     1       5.362   4.374  17.517  0.00  0.00    +0.000 NA
ATOM      3  C   UNL     1       4.017   4.051  17.731  0.00  0.00    +0.000 A 
ATOM      4  C   UNL     1       3.655   2.703  17.765  0.00  0.00    +0.000 A 
ATOM      5  C   UNL     1       2.325   2.330  17.971  0.00  0.00    +0.000 A 
ATOM      6  C   UNL     1       1.345   3.307  18.149  0.00  0.00    +0.000 A 
ATOM      7  C   UNL     1       1.693   4.660  18.119  0.00  0.00    +0.000 A 
ATOM      8  C   UNL     1       3.026   5.022  17.906  0.00  0.00    +0.000 A 
ATOM      9  C   UNL     1       3.443   6.438  17.848  0.00  0.00    +0.000 A 
ATOM     10  O   UNL     1       2.644   7.355  17.994  0.00  0.00    +0.000 OA
ATOM     11  N   UNL     1       4.778   6.650  17.620  0.00  0.00    +0.000 N 
ATOM     12  H   UNL     1       5.105   7.609  17.568  0.00  0.00    +0.000 HD
ENDROOT
BRANCH   1  13
ATOM     13  C   UNL     1       7.121   6.057  17.238  0.00  0.00    +0.000 C 
ATOM     14  O   UNL     1       7.952   5.210  16.941  0.00  0.00    +0.000 OA
BRANCH  13  16
ATOM     15  C   UNL     1       8.256   7.975  18.312  0.00  0.00    +0.000 C 
ATOM     16  C   UNL     1       7.410   7.508  17.382  0.00  0.00    +0.000 C 
BRANCH  15  21
ATOM     17  C   UNL     1       9.680  13.567  18.876  0.00  0.00    +0.000 C 
ATOM     18  C   UNL     1       9.297  12.122  18.747  0.00  0.00    +0.000 A 
ATOM     19  C   UNL     1       9.796  11.157  19.627  0.00  0.00    +0.000 A 
ATOM     20  C   UNL     1       9.440   9.811  19.481  0.00  0.00    +0.000 A 
ATOM     21  C   UNL     1       8.575   9.404  18.459  0.00  0.00    +0.000 A 
ATOM     22  C   UNL     1       8.088  10.376  17.573  0.00  0.00    +0.000 A 
ATOM     23  C   UNL     1       8.439  11.721  17.719  0.00  0.00    +0.000 A 
ENDBRANCH  15  21
ENDBRANCH  13  16
ENDBRANCH   1  13
TORSDOF 3
ENDMDL
MODEL 8
REMARK VINA RESULT:      -8.0      4.145      6.500
REMARK  Name = 
REMARK  4 active torsions:
REMARK  status: ('A' for Active; 'I' for Inactive)
REMARK    1  A    between atoms: C_1  and  C_2
REMARK    2  A    between atoms: C_5  and  C_6
REMARK    3  A    between atoms: C_7  and  C_8
REMARK    4  A    between atoms: C_8  and  C_10
REMARK                            x       y       z     vdW  Elec       q    Type
REMARK                         _______ _______ _______ _____ _____    ______ ____
ROOT
ATOM      1  C   UNL     1       4.344   4.321  18.806  0.00  0.00    +0.000 A 
ATOM      2  N   UNL     1       4.043   4.225  17.551  0.00  0.00    +0.000 NA
ATOM      3  C   UNL     1       5.081   4.370  16.621  0.00  0.00    +0.000 A 
ATOM      4  C   UNL     1       4.776   4.249  15.264  0.00  0.00    +0.000 A 
ATOM      5  C   UNL     1       5.777   4.380  14.298  0.00  0.00    +0.000 A 
ATOM      6  C   UNL     1       7.092   4.640  14.685  0.00  0.00    +0.000 A 
ATOM      7  C   UNL     1       7.410   4.765  16.039  0.00  0.00    +0.000 A 
ATOM      8  C   UNL     1       6.402   4.626  16.998  0.00  0.00    +0.000 A 
ATOM      9  C   UNL     1       6.689   4.733  18.443  0.00  0.00    +0.000 A 
ATOM     10  O   UNL     1       7.817   4.958  18.865  0.00  0.00    +0.000 OA
ATOM     11  N   UNL     1       5.611   4.561  19.272  0.00  0.00    +0.000 N 
ATOM     12  H   UNL     1       5.766   4.622  20.273  0.00  0.00    +0.000 HD
ENDROOT
BRANCH   1  13
ATOM     13  C   UNL     1       3.272   4.173  19.875  0.00  0.00    +0.000 C 
ATOM     14  O   UNL     1       3.180   3.115  20.481  0.00  0.00    +0.000 OA
BRANCH  13  16
ATOM     15  C   UNL     1       2.705   6.568  19.617  0.00  0.00    +0.000 C 
ATOM     16  C   UNL     1       2.406   5.358  20.113  0.00  0.00    +0.000 C 
BRANCH  15  21
ATOM     17  C   UNL     1      -0.560  11.268  20.547  0.00  0.00    +0.000 C 
ATOM     18  C   UNL     1       0.266  10.040  20.303  0.00  0.00    +0.000 A 
ATOM     19  C   UNL     1       0.445   9.074  21.299  0.00  0.00    +0.000 A 
ATOM     20  C   UNL     1       1.233   7.943  21.059  0.00  0.00    +0.000 A 
ATOM     21  C   UNL     1       1.851   7.750  19.819  0.00  0.00    +0.000 A 
ATOM     22  C   UNL     1       1.678   8.727  18.828  0.00  0.00    +0.000 A 
ATOM     23  C   UNL     1       0.888   9.856  19.065  0.00  0.00    +0.000 A 
ENDBRANCH  15  21
ENDBRANCH  13  16
ENDBRANCH   1  13
TORSDOF 3
ENDMDL
MODEL 9
REMARK VINA RESULT:      -8.0      1.852      2.433
REMARK  Name = 
REMARK  4 active torsions:
REMARK  status: ('A' for Active; 'I' for Inactive)
REMARK    1  A    between atoms: C_1  and  C_2
REMARK    2  A    between atoms: C_5  and  C_6
REMARK    3  A    between atoms: C_7  and  C_8
REMARK    4  A    between atoms: C_8  and  C_10
REMARK                            x       y       z     vdW  Elec       q    Type
REMARK                         _______ _______ _______ _____ _____    ______ ____
ROOT
ATOM      1  C   UNL     1       5.656   5.463  17.621  0.00  0.00    +0.000 A 
ATOM      2  N   UNL     1       5.301   4.219  17.664  0.00  0.00    +0.000 NA
ATOM      3  C   UNL     1       3.940   3.937  17.834  0.00  0.00    +0.000 A 
ATOM      4  C   UNL     1       3.539   2.600  17.863  0.00  0.00    +0.000 A 
ATOM      5  C   UNL     1       2.192   2.267  18.025  0.00  0.00    +0.000 A 
ATOM      6  C   UNL     1       1.236   3.272  18.167  0.00  0.00    +0.000 A 
ATOM      7  C   UNL     1       1.623   4.614  18.142  0.00  0.00    +0.000 A 
ATOM      8  C   UNL     1       2.973   4.936  17.973  0.00  0.00    +0.000 A 
ATOM      9  C   UNL     1       3.432   6.340  17.923  0.00  0.00    +0.000 A 
ATOM     10  O   UNL     1       2.656   7.280  18.038  0.00  0.00    +0.000 OA
ATOM     11  N   UNL     1       4.780   6.512  17.738  0.00  0.00    +0.000 N 
ATOM     12  H   UNL     1       5.136   7.461  17.694  0.00  0.00    +0.000 HD
ENDROOT
BRANCH   1  13
ATOM     13  C   UNL     1       7.116   5.849  17.436  0.00  0.00    +0.000 C 
ATOM     14  O   UNL     1       7.948   4.968  17.277  0.00  0.00    +0.000 OA
BRANCH  13  16
ATOM     15  C   UNL     1       8.219   7.852  18.382  0.00  0.00    +0.000 C 
ATOM     16  C   UNL     1       7.422   7.304  17.453  0.00  0.00    +0.000 C 
BRANCH  15  21
ATOM     17  C   UNL     1       9.378  13.532  18.496  0.00  0.00    +0.000 C 
ATOM     18  C   UNL     1       9.092  12.060  18.449  0.00  0.00    +0.000 A 
ATOM     19  C   UNL     1       8.188  11.525  17.527  0.00  0.00    +0.000 A 
ATOM     20  C   UNL     1       7.920  10.151  17.508  0.00  0.00    +0.000 A 
ATOM     21  C   UNL     1       8.556   9.285  18.405  0.00  0.00    +0.000 A 
ATOM     22  C   UNL     1       9.453   9.830  19.335  0.00  0.00    +0.000 A 
ATOM     23  C   UNL     1       9.723  11.201  19.352  0.00  0.00    +0.000 A 
ENDBRANCH  15  21
ENDBRANCH  13  16
ENDBRANCH   1  13
TORSDOF 3
ENDMDL
