MODEL 1
REMARK VINA RESULT:      -7.4      0.000      0.000
REMARK  Name = 
REMARK  8 active torsions:
REMARK  status: ('A' for Active; 'I' for Inactive)
REMARK    1  A    between atoms: C_1  and  C_2
REMARK    2  A    between atoms: C_2  and  C_3
REMARK    3  A    between atoms: C_3  and  N_4
REMARK    4  A    between atoms: N_4  and  C_5
REMARK    5  A    between atoms: C_6  and  O_7
REMARK    6  A    between atoms: C_10  and  C_11
REMARK    7  A    between atoms: C_11  and  C_13
REMARK    8  A    between atoms: C_19  and  O_20
REMARK                            x       y       z     vdW  Elec       q    Type
REMARK                         _______ _______ _______ _____ _____    ______ ____
ROOT
ATOM      1  C   UNL     1       4.070   5.236  18.741  0.00  0.00    +0.000 A 
ATOM      2  C   UNL     1       3.554   6.477  18.317  0.00  0.00    +0.000 A 
ATOM      3  C   UNL     1       4.048   7.164  17.210  0.00  0.00    +0.000 A 
ATOM      4  C   UNL     1       5.103   6.622  16.483  0.00  0.00    +0.000 A 
ATOM      5  C   UNL     1       5.679   5.414  16.891  0.00  0.00    +0.000 A 
ATOM      6  C   UNL     1       5.153   4.715  17.995  0.00  0.00    +0.000 A 
ENDROOT
BRANCH   1   7
ATOM      7  N   UNL     1       3.461   4.643  19.891  0.00  0.00    +0.000 N 
ATOM      8  H   UNL     1       4.205   4.217  20.445  0.00  0.00    +0.000 HD
BRANCH   7   9
ATOM      9  C   UNL     1       2.420   3.641  19.622  0.00  0.00    +0.000 C 
BRANCH   9  11
ATOM     10  C   UNL     1       1.452   2.660  21.692  0.00  0.00    +0.000 C 
ATOM     11  C   UNL     1       1.267   3.725  20.615  0.00  0.00    +0.000 C 
ENDBRANCH   9  11
ENDBRANCH   7   9
ENDBRANCH   1   7
BRANCH   2  12
ATOM     12  O   UNL     1       2.505   7.041  18.998  0.00  0.00    +0.000 OA
ATOM     13  H   UNL     1       2.295   6.386  19.694  0.00  0.00    +0.000 HD
ENDBRANCH   2  12
BRANCH   5  14
ATOM     14  C   UNL     1       6.844   4.836  16.171  0.00  0.00    +0.000 C 
ATOM     15  O   UNL     1       7.842   4.536  16.828  0.00  0.00    +0.000 OA
BRANCH  14  16
ATOM     16  C   UNL     1       6.876   4.647  14.703  0.00  0.00    +0.000 A 
ATOM     17  C   UNL     1       6.009   3.700  14.145  0.00  0.00    +0.000 A 
ATOM     18  C   UNL     1       6.004   3.483  12.769  0.00  0.00    +0.000 A 
ATOM     19  C   UNL     1       6.874   4.202  11.949  0.00  0.00    +0.000 A 
ATOM     20  C   UNL     1       7.763   5.122  12.504  0.00  0.00    +0.000 A 
ATOM     21  C   UNL     1       7.776   5.337  13.883  0.00  0.00    +0.000 A 
ENDBRANCH  14  16
ENDBRANCH   5  14
BRANCH   6  22
ATOM     22  O   UNL     1       5.727   3.520  18.369  0.00  0.00    +0.000 OA
ATOM     23  H   UNL     1       6.414   3.283  17.705  0.00  0.00    +0.000 HD
ENDBRANCH   6  22
TORSDOF 7
ENDMDL
MODEL 2
REMARK VINA RESULT:      -7.4      2.184      6.449
REMARK  Name = 
REMARK  8 active torsions:
REMARK  status: ('A' for Active; 'I' for Inactive)
REMARK    1  A    between atoms: C_1  and  C_2
REMARK    2  A    between atoms: C_2  and  C_3
REMARK    3  A    between atoms: C_3  and  N_4
REMARK    4  A    between atoms: N_4  and  C_5
REMARK    5  A    between atoms: C_6  and  O_7
REMARK    6  A    between atoms: C_10  and  C_11
REMARK    7  A    between atoms: C_11  and  C_13
REMARK    8  A    between atoms: C_19  and  O_20
REMARK                            x       y       z     vdW  Elec       q    Type
REMARK                         _______ _______ _______ _____ _____    ______ ____
ROOT
ATOM      1  C   UNL     1       6.195   5.475  16.550  0.00  0.00    +0.000 A 
ATOM      2  C   UNL     1       7.122   6.266  17.257  0.00  0.00    +0.000 A 
ATOM      3  C   UNL     1       7.323   6.150  18.631  0.00  0.00    +0.000 A 
ATOM      4  C   UNL     1       6.579   5.225  19.356  0.00  0.00    +0.000 A 
ATOM      5  C   UNL     1       5.614   4.447  18.705  0.00  0.00    +0.000 A 
ATOM      6  C   UNL     1       5.440   4.554  17.311  0.00  0.00    +0.000 A 
ENDROOT
BRANCH   1   7
ATOM      7  N   UNL     1       6.100   5.699  15.140  0.00  0.00    +0.000 N 
ATOM      8  H   UNL     1       5.107   5.729  14.902  0.00  0.00    +0.000 HD
BRANCH   7   9
ATOM      9  C   UNL     1       6.775   4.712  14.285  0.00  0.00    +0.000 C 
BRANCH   9  11
ATOM     10  C   UNL     1       6.467   3.418  12.183  0.00  0.00    +0.000 C 
ATOM     11  C   UNL     1       5.789   3.884  13.470  0.00  0.00    +0.000 C 
ENDBRANCH   9  11
ENDBRANCH   7   9
ENDBRANCH   1   7
BRANCH   2  12
ATOM     12  O   UNL     1       7.886   7.182  16.578  0.00  0.00    +0.000 OA
ATOM     13  H   UNL     1       7.236   7.835  16.250  0.00  0.00    +0.000 HD
ENDBRANCH   2  12
BRANCH   5  14
ATOM     14  C   UNL     1       4.762   3.490  19.459  0.00  0.00    +0.000 C 
ATOM     15  O   UNL     1       5.255   2.411  19.791  0.00  0.00    +0.000 OA
BRANCH  14  16
ATOM     16  C   UNL     1       3.343   3.755  19.788  0.00  0.00    +0.000 A 
ATOM     17  C   UNL     1       2.429   2.706  19.642  0.00  0.00    +0.000 A 
ATOM     18  C   UNL     1       1.082   2.906  19.936  0.00  0.00    +0.000 A 
ATOM     19  C   UNL     1       0.644   4.160  20.364  0.00  0.00    +0.000 A 
ATOM     20  C   UNL     1       1.546   5.218  20.479  0.00  0.00    +0.000 A 
ATOM     21  C   UNL     1       2.894   5.022  20.178  0.00  0.00    +0.000 A 
ENDBRANCH  14  16
ENDBRANCH   5  14
BRANCH   6  22
ATOM     22  O   UNL     1       4.495   3.767  16.691  0.00  0.00    +0.000 OA
ATOM     23  H   UNL     1       3.676   4.301  16.569  0.00  0.00    +0.000 HD
ENDBRANCH   6  22
TORSDOF 7
ENDMDL
MODEL 3
REMARK VINA RESULT:      -7.2      2.438      6.778
REMARK  Name = 
REMARK  8 active torsions:
REMARK  status: ('A' for Active; 'I' for Inactive)
REMARK    1  A    between atoms: C_1  and  C_2
REMARK    2  A    between atoms: C_2  and  C_3
REMARK    3  A    between atoms: C_3  and  N_4
REMARK    4  A    between atoms: N_4  and  C_5
REMARK    5  A    between atoms: C_6  and  O_7
REMARK    6  A    between atoms: C_10  and  C_11
REMARK    7  A    between atoms: C_11  and  C_13
REMARK    8  A    between atoms: C_19  and  O_20
REMARK                            x       y       z     vdW  Elec       q    Type
REMARK                         _______ _______ _______ _____ _____    ______ ____
ROOT
ATOM      1  C   UNL     1       6.340   6.080  16.724  0.00  0.00    +0.000 A 
ATOM      2  C   UNL     1       6.584   4.801  16.186  0.00  0.00    +0.000 A 
ATOM      3  C   UNL     1       5.633   3.782  16.198  0.00  0.00    +0.000 A 
ATOM      4  C   UNL     1       4.386   4.015  16.769  0.00  0.00    +0.000 A 
ATOM      5  C   UNL     1       4.113   5.255  17.357  0.00  0.00    +0.000 A 
ATOM      6  C   UNL     1       5.072   6.287  17.314  0.00  0.00    +0.000 A 
ENDROOT
BRANCH   1   7
ATOM      7  N   UNL     1       7.406   7.031  16.636  0.00  0.00    +0.000 N 
ATOM      8  H   UNL     1       8.189   6.568  16.172  0.00  0.00    +0.000 HD
BRANCH   7   9
ATOM      9  C   UNL     1       7.864   7.602  17.910  0.00  0.00    +0.000 C 
BRANCH   9  11
ATOM     10  C   UNL     1       9.012   9.578  18.892  0.00  0.00    +0.000 C 
ATOM     11  C   UNL     1       7.997   9.119  17.848  0.00  0.00    +0.000 C 
ENDBRANCH   9  11
ENDBRANCH   7   9
ENDBRANCH   1   7
BRANCH   2  12
ATOM     12  O   UNL     1       7.795   4.533  15.601  0.00  0.00    +0.000 OA
ATOM     13  H   UNL     1       8.240   5.404  15.567  0.00  0.00    +0.000 HD
ENDBRANCH   2  12
BRANCH   5  14
ATOM     14  C   UNL     1       2.812   5.518  18.027  0.00  0.00    +0.000 C 
ATOM     15  O   UNL     1       2.219   6.563  17.753  0.00  0.00    +0.000 OA
BRANCH  14  16
ATOM     16  C   UNL     1       2.222   4.609  19.035  0.00  0.00    +0.000 A 
ATOM     17  C   UNL     1       2.639   4.744  20.364  0.00  0.00    +0.000 A 
ATOM     18  C   UNL     1       2.116   3.908  21.348  0.00  0.00    +0.000 A 
ATOM     19  C   UNL     1       1.184   2.929  21.005  0.00  0.00    +0.000 A 
ATOM     20  C   UNL     1       0.790   2.769  19.676  0.00  0.00    +0.000 A 
ATOM     21  C   UNL     1       1.319   3.598  18.686  0.00  0.00    +0.000 A 
ENDBRANCH  14  16
ENDBRANCH   5  14
BRANCH   6  22
ATOM     22  O   UNL     1       4.774   7.504  17.885  0.00  0.00    +0.000 OA
ATOM     23  H   UNL     1       4.937   8.210  17.218  0.00  0.00    +0.000 HD
ENDBRANCH   6  22
TORSDOF 7
ENDMDL
MODEL 4
REMARK VINA RESULT:      -7.2      2.671      6.472
REMARK  Name = 
REMARK  8 active torsions:
REMARK  status: ('A' for Active; 'I' for Inactive)
REMARK    1  A    between atoms: C_1  and  C_2
REMARK    2  A    between atoms: C_2  and  C_3
REMARK    3  A    between atoms: C_3  and  N_4
REMARK    4  A    between atoms: N_4  and  C_5
REMARK    5  A    between atoms: C_6  and  O_7
REMARK    6  A    between atoms: C_10  and  C_11
REMARK    7  A    between atoms: C_11  and  C_13
REMARK    8  A    between atoms: C_19  and  O_20
REMARK                            x       y       z     vdW  Elec       q    Type
REMARK                         _______ _______ _______ _____ _____    ______ ____
ROOT
ATOM      1  C   UNL     1       6.788   5.484  17.088  0.00  0.00    +0.000 A 
ATOM      2  C   UNL     1       6.330   5.128  15.804  0.00  0.00    +0.000 A 
ATOM      3  C   UNL     1       5.280   4.235  15.596  0.00  0.00    +0.000 A 
ATOM      4  C   UNL     1       4.650   3.651  16.691  0.00  0.00    +0.000 A 
ATOM      5  C   UNL     1       5.099   3.940  17.985  0.00  0.00    +0.000 A 
ATOM      6  C   UNL     1       6.142   4.865  18.184  0.00  0.00    +0.000 A 
ENDROOT
BRANCH   1   7
ATOM      7  N   UNL     1       7.870   6.417  17.151  0.00  0.00    +0.000 N 
ATOM      8  H   UNL     1       8.541   6.061  17.833  0.00  0.00    +0.000 HD
BRANCH   7   9
ATOM      9  C   UNL     1       7.508   7.798  17.499  0.00  0.00    +0.000 C 
BRANCH   9  11
ATOM     10  C   UNL     1       8.614   9.915  18.194  0.00  0.00    +0.000 C 
ATOM     11  C   UNL     1       8.490   8.421  18.484  0.00  0.00    +0.000 C 
ENDBRANCH   9  11
ENDBRANCH   7   9
ENDBRANCH   1   7
BRANCH   2  12
ATOM     12  O   UNL     1       6.915   5.689  14.698  0.00  0.00    +0.000 OA
ATOM     13  H   UNL     1       7.818   5.313  14.691  0.00  0.00    +0.000 HD
ENDBRANCH   2  12
BRANCH   5  14
ATOM     14  C   UNL     1       4.486   3.290  19.173  0.00  0.00    +0.000 C 
ATOM     15  O   UNL     1       5.224   2.676  19.945  0.00  0.00    +0.000 OA
BRANCH  14  16
ATOM     16  C   UNL     1       3.031   3.311  19.447  0.00  0.00    +0.000 A 
ATOM     17  C   UNL     1       2.222   2.399  18.759  0.00  0.00    +0.000 A 
ATOM     18  C   UNL     1       0.846   2.382  18.979  0.00  0.00    +0.000 A 
ATOM     19  C   UNL     1       0.275   3.283  19.878  0.00  0.00    +0.000 A 
ATOM     20  C   UNL     1       1.073   4.215  20.541  0.00  0.00    +0.000 A 
ATOM     21  C   UNL     1       2.450   4.241  20.317  0.00  0.00    +0.000 A 
ENDBRANCH  14  16
ENDBRANCH   5  14
BRANCH   6  22
ATOM     22  O   UNL     1       6.557   5.144  19.467  0.00  0.00    +0.000 OA
ATOM     23  H   UNL     1       5.995   4.634  20.094  0.00  0.00    +0.000 HD
ENDBRANCH   6  22
TORSDOF 7
ENDMDL
MODEL 5
REMARK VINA RESULT:      -7.2      2.444      6.727
REMARK  Name = 
REMARK  8 active torsions:
REMARK  status: ('A' for Active; 'I' for Inactive)
REMARK    1  A    between atoms: C_1  and  C_2
REMARK    2  A    between atoms: C_2  and  C_3
REMARK    3  A    between atoms: C_3  and  N_4
REMARK    4  A    between atoms: N_4  and  C_5
REMARK    5  A    between atoms: C_6  and  O_7
REMARK    6  A    between atoms: C_10  and  C_11
REMARK    7  A    between atoms: C_11  and  C_13
REMARK    8  A    between atoms: C_19  and  O_20
REMARK                            x       y       z     vdW  Elec       q    Type
REMARK                         _______ _______ _______ _____ _____    ______ ____
ROOT
ATOM      1  C   UNL     1       6.371   6.108  16.725  0.00  0.00    +0.000 A 
ATOM      2  C   UNL     1       6.608   4.836  16.169  0.00  0.00    +0.000 A 
ATOM      3  C   UNL     1       5.655   3.819  16.175  0.00  0.00    +0.000 A 
ATOM      4  C   UNL     1       4.413   4.047  16.759  0.00  0.00    +0.000 A 
ATOM      5  C   UNL     1       4.147   5.281  17.363  0.00  0.00    +0.000 A 
ATOM      6  C   UNL     1       5.108   6.310  17.327  0.00  0.00    +0.000 A 
ENDROOT
BRANCH   1   7
ATOM      7  N   UNL     1       7.439   7.057  16.641  0.00  0.00    +0.000 N 
ATOM      8  H   UNL     1       8.220   6.597  16.173  0.00  0.00    +0.000 HD
BRANCH   7   9
ATOM      9  C   UNL     1       7.899   7.620  17.917  0.00  0.00    +0.000 C 
BRANCH   9  11
ATOM     10  C   UNL     1       8.996   9.593  18.963  0.00  0.00    +0.000 C 
ATOM     11  C   UNL     1       8.042   9.136  17.863  0.00  0.00    +0.000 C 
ENDBRANCH   9  11
ENDBRANCH   7   9
ENDBRANCH   1   7
BRANCH   2  12
ATOM     12  O   UNL     1       7.814   4.572  15.572  0.00  0.00    +0.000 OA
ATOM     13  H   UNL     1       8.375   4.249  16.305  0.00  0.00    +0.000 HD
ENDBRANCH   2  12
BRANCH   5  14
ATOM     14  C   UNL     1       2.852   5.538  18.046  0.00  0.00    +0.000 C 
ATOM     15  O   UNL     1       2.235   6.564  17.753  0.00  0.00    +0.000 OA
BRANCH  14  16
ATOM     16  C   UNL     1       2.294   4.646  19.088  0.00  0.00    +0.000 A 
ATOM     17  C   UNL     1       1.359   3.683  18.693  0.00  0.00    +0.000 A 
ATOM     18  C   UNL     1       0.803   2.822  19.637  0.00  0.00    +0.000 A 
ATOM     19  C   UNL     1       1.171   2.930  20.978  0.00  0.00    +0.000 A 
ATOM     20  C   UNL     1       2.078   3.910  21.381  0.00  0.00    +0.000 A 
ATOM     21  C   UNL     1       2.631   4.779  20.440  0.00  0.00    +0.000 A 
ENDBRANCH  14  16
ENDBRANCH   5  14
BRANCH   6  22
ATOM     22  O   UNL     1       4.817   7.521  17.915  0.00  0.00    +0.000 OA
ATOM     23  H   UNL     1       4.016   7.410  18.477  0.00  0.00    +0.000 HD
ENDBRANCH   6  22
TORSDOF 7
ENDMDL
MODEL 6
REMARK VINA RESULT:      -7.2      2.668      6.628
REMARK  Name = 
REMARK  8 active torsions:
REMARK  status: ('A' for Active; 'I' for Inactive)
REMARK    1  A    between atoms: C_1  and  C_2
REMARK    2  A    between atoms: C_2  and  C_3
REMARK    3  A    between atoms: C_3  and  N_4
REMARK    4  A    between atoms: N_4  and  C_5
REMARK    5  A    between atoms: C_6  and  O_7
REMARK    6  A    between atoms: C_10  and  C_11
REMARK    7  A    between atoms: C_11  and  C_13
REMARK    8  A    between atoms: C_19  and  O_20
REMARK                            x       y       z     vdW  Elec       q    Type
REMARK                         _______ _______ _______ _____ _____    ______ ____
ROOT
ATOM      1  C   UNL     1       6.971   5.484  17.257  0.00  0.00    +0.000 A 
ATOM      2  C   UNL     1       6.598   5.076  15.961  0.00  0.00    +0.000 A 
ATOM      3  C   UNL     1       5.576   4.159  15.721  0.00  0.00    +0.000 A 
ATOM      4  C   UNL     1       4.888   3.603  16.795  0.00  0.00    +0.000 A 
ATOM      5  C   UNL     1       5.252   3.944  18.103  0.00  0.00    +0.000 A 
ATOM      6  C   UNL     1       6.269   4.893  18.332  0.00  0.00    +0.000 A 
ENDROOT
BRANCH   1   7
ATOM      7  N   UNL     1       8.034   6.437  17.352  0.00  0.00    +0.000 N 
ATOM      8  H   UNL     1       8.629   6.152  18.131  0.00  0.00    +0.000 HD
BRANCH   7   9
ATOM      9  C   UNL     1       7.627   7.836  17.536  0.00  0.00    +0.000 C 
BRANCH   9  11
ATOM     10  C   UNL     1       8.612  10.030  18.175  0.00  0.00    +0.000 C 
ATOM     11  C   UNL     1       8.490   8.559  18.564  0.00  0.00    +0.000 C 
ENDBRANCH   9  11
ENDBRANCH   7   9
ENDBRANCH   1   7
BRANCH   2  12
ATOM     12  O   UNL     1       7.242   5.609  14.873  0.00  0.00    +0.000 OA
ATOM     13  H   UNL     1       7.923   4.943  14.652  0.00  0.00    +0.000 HD
ENDBRANCH   2  12
BRANCH   5  14
ATOM     14  C   UNL     1       4.577   3.325  19.274  0.00  0.00    +0.000 C 
ATOM     15  O   UNL     1       5.192   2.471  19.915  0.00  0.00    +0.000 OA
BRANCH  14  16
ATOM     16  C   UNL     1       3.191   3.656  19.677  0.00  0.00    +0.000 A 
ATOM     17  C   UNL     1       2.941   4.941  20.170  0.00  0.00    +0.000 A 
ATOM     18  C   UNL     1       1.653   5.298  20.565  0.00  0.00    +0.000 A 
ATOM     19  C   UNL     1       0.617   4.369  20.479  0.00  0.00    +0.000 A 
ATOM     20  C   UNL     1       0.869   3.077  20.020  0.00  0.00    +0.000 A 
ATOM     21  C   UNL     1       2.158   2.712  19.631  0.00  0.00    +0.000 A 
ENDBRANCH  14  16
ENDBRANCH   5  14
BRANCH   6  22
ATOM     22  O   UNL     1       6.599   5.223  19.628  0.00  0.00    +0.000 OA
ATOM     23  H   UNL     1       7.098   4.471  20.023  0.00  0.00    +0.000 HD
ENDBRANCH   6  22
TORSDOF 7
ENDMDL
MODEL 7
REMARK VINA RESULT:      -7.2      1.982      6.617
REMARK  Name = 
REMARK  8 active torsions:
REMARK  status: ('A' for Active; 'I' for Inactive)
REMARK    1  A    between atoms: C_1  and  C_2
REMARK    2  A    between atoms: C_2  and  C_3
REMARK    3  A    between atoms: C_3  and  N_4
REMARK    4  A    between atoms: N_4  and  C_5
REMARK    5  A    between atoms: C_6  and  O_7
REMARK    6  A    between atoms: C_10  and  C_11
REMARK    7  A    between atoms: C_11  and  C_13
REMARK    8  A    between atoms: C_19  and  O_20
REMARK                            x       y       z     vdW  Elec       q    Type
REMARK                         _______ _______ _______ _____ _____    ______ ____
ROOT
ATOM      1  C   UNL     1       6.142   5.061  16.448  0.00  0.00    +0.000 A 
ATOM      2  C   UNL     1       5.981   6.409  16.825  0.00  0.00    +0.000 A 
ATOM      3  C   UNL     1       4.867   6.870  17.525  0.00  0.00    +0.000 A 
ATOM      4  C   UNL     1       3.856   5.978  17.868  0.00  0.00    +0.000 A 
ATOM      5  C   UNL     1       3.951   4.638  17.477  0.00  0.00    +0.000 A 
ATOM      6  C   UNL     1       5.094   4.178  16.793  0.00  0.00    +0.000 A 
ENDROOT
BRANCH   1   7
ATOM      7  N   UNL     1       7.339   4.729  15.738  0.00  0.00    +0.000 N 
ATOM      8  H   UNL     1       8.091   5.304  16.122  0.00  0.00    +0.000 HD
BRANCH   7   9
ATOM      9  C   UNL     1       7.291   4.903  14.280  0.00  0.00    +0.000 C 
BRANCH   9  11
ATOM     10  C   UNL     1       6.744   3.675  12.187  0.00  0.00    +0.000 C 
ATOM     11  C   UNL     1       6.295   3.958  13.618  0.00  0.00    +0.000 C 
ENDBRANCH   9  11
ENDBRANCH   7   9
ENDBRANCH   1   7
BRANCH   2  12
ATOM     12  O   UNL     1       6.959   7.319  16.518  0.00  0.00    +0.000 OA
ATOM     13  H   UNL     1       6.881   7.997  17.218  0.00  0.00    +0.000 HD
ENDBRANCH   2  12
BRANCH   5  14
ATOM     14  C   UNL     1       2.862   3.671  17.777  0.00  0.00    +0.000 C 
ATOM     15  O   UNL     1       2.228   3.199  16.831  0.00  0.00    +0.000 OA
BRANCH  14  16
ATOM     16  C   UNL     1       2.479   3.285  19.154  0.00  0.00    +0.000 A 
ATOM     17  C   UNL     1       1.140   3.443  19.530  0.00  0.00    +0.000 A 
ATOM     18  C   UNL     1       0.731   3.098  20.816  0.00  0.00    +0.000 A 
ATOM     19  C   UNL     1       1.661   2.605  21.732  0.00  0.00    +0.000 A 
ATOM     20  C   UNL     1       3.002   2.477  21.372  0.00  0.00    +0.000 A 
ATOM     21  C   UNL     1       3.417   2.830  20.087  0.00  0.00    +0.000 A 
ENDBRANCH  14  16
ENDBRANCH   5  14
BRANCH   6  22
ATOM     22  O   UNL     1       5.171   2.851  16.432  0.00  0.00    +0.000 OA
ATOM     23  H   UNL     1       4.554   2.696  15.680  0.00  0.00    +0.000 HD
ENDBRANCH   6  22
TORSDOF 7
ENDMDL
MODEL 8
REMARK VINA RESULT:      -7.2      0.582      1.332
REMARK  Name = 
REMARK  8 active torsions:
REMARK  status: ('A' for Active; 'I' for Inactive)
REMARK    1  A    between atoms: C_1  and  C_2
REMARK    2  A    between atoms: C_2  and  C_3
REMARK    3  A    between atoms: C_3  and  N_4
REMARK    4  A    between atoms: N_4  and  C_5
REMARK    5  A    between atoms: C_6  and  O_7
REMARK    6  A    between atoms: C_10  and  C_11
REMARK    7  A    between atoms: C_11  and  C_13
REMARK    8  A    between atoms: C_19  and  O_20
REMARK                            x       y       z     vdW  Elec       q    Type
REMARK                         _______ _______ _______ _____ _____    ______ ____
ROOT
ATOM      1  C   UNL     1       4.252   5.465  18.826  0.00  0.00    +0.000 A 
ATOM      2  C   UNL     1       3.633   6.595  18.258  0.00  0.00    +0.000 A 
ATOM      3  C   UNL     1       4.003   7.120  17.021  0.00  0.00    +0.000 A 
ATOM      4  C   UNL     1       5.034   6.520  16.304  0.00  0.00    +0.000 A 
ATOM      5  C   UNL     1       5.709   5.421  16.847  0.00  0.00    +0.000 A 
ATOM      6  C   UNL     1       5.307   4.883  18.086  0.00  0.00    +0.000 A 
ENDROOT
BRANCH   1   7
ATOM      7  N   UNL     1       3.764   5.034  20.100  0.00  0.00    +0.000 N 
ATOM      8  H   UNL     1       4.568   4.963  20.726  0.00  0.00    +0.000 HD
BRANCH   7   9
ATOM      9  C   UNL     1       3.026   3.763  20.109  0.00  0.00    +0.000 C 
BRANCH   9  11
ATOM     10  C   UNL     1       1.069   3.378  18.623  0.00  0.00    +0.000 C 
ATOM     11  C   UNL     1       1.524   3.967  19.956  0.00  0.00    +0.000 C 
ENDBRANCH   9  11
ENDBRANCH   7   9
ENDBRANCH   1   7
BRANCH   2  12
ATOM     12  O   UNL     1       2.604   7.209  18.926  0.00  0.00    +0.000 OA
ATOM     13  H   UNL     1       2.914   7.250  19.853  0.00  0.00    +0.000 HD
ENDBRANCH   2  12
BRANCH   5  14
ATOM     14  C   UNL     1       6.852   4.792  16.134  0.00  0.00    +0.000 C 
ATOM     15  O   UNL     1       7.854   4.499  16.788  0.00  0.00    +0.000 OA
BRANCH  14  16
ATOM     16  C   UNL     1       6.858   4.545  14.674  0.00  0.00    +0.000 A 
ATOM     17  C   UNL     1       7.796   5.234  13.897  0.00  0.00    +0.000 A 
ATOM     18  C   UNL     1       7.838   5.038  12.518  0.00  0.00    +0.000 A 
ATOM     19  C   UNL     1       6.937   4.162  11.912  0.00  0.00    +0.000 A 
ATOM     20  C   UNL     1       5.979   3.499  12.679  0.00  0.00    +0.000 A 
ATOM     21  C   UNL     1       5.928   3.699  14.059  0.00  0.00    +0.000 A 
ENDBRANCH  14  16
ENDBRANCH   5  14
BRANCH   6  22
ATOM     22  O   UNL     1       5.978   3.792  18.593  0.00  0.00    +0.000 OA
ATOM     23  H   UNL     1       5.461   3.434  19.351  0.00  0.00    +0.000 HD
ENDBRANCH   6  22
TORSDOF 7
ENDMDL
MODEL 9
REMARK VINA RESULT:      -7.2      1.981      6.666
REMARK  Name = 
REMARK  8 active torsions:
REMARK  status: ('A' for Active; 'I' for Inactive)
REMARK    1  A    between atoms: C_1  and  C_2
REMARK    2  A    between atoms: C_2  and  C_3
REMARK    3  A    between atoms: C_3  and  N_4
REMARK    4  A    between atoms: N_4  and  C_5
REMARK    5  A    between atoms: C_6  and  O_7
REMARK    6  A    between atoms: C_10  and  C_11
REMARK    7  A    between atoms: C_11  and  C_13
REMARK    8  A    between atoms: C_19  and  O_20
REMARK                            x       y       z     vdW  Elec       q    Type
REMARK                         _______ _______ _______ _____ _____    ______ ____
ROOT
ATOM      1  C   UNL     1       6.053   5.058  16.468  0.00  0.00    +0.000 A 
ATOM      2  C   UNL     1       5.854   6.409  16.813  0.00  0.00    +0.000 A 
ATOM      3  C   UNL     1       4.723   6.859  17.491  0.00  0.00    +0.000 A 
ATOM      4  C   UNL     1       3.730   5.950  17.844  0.00  0.00    +0.000 A 
ATOM      5  C   UNL     1       3.861   4.604  17.484  0.00  0.00    +0.000 A 
ATOM      6  C   UNL     1       5.022   4.157  16.822  0.00  0.00    +0.000 A 
ENDROOT
BRANCH   1   7
ATOM      7  N   UNL     1       7.265   4.740  15.778  0.00  0.00    +0.000 N 
ATOM      8  H   UNL     1       8.002   5.328  16.169  0.00  0.00    +0.000 HD
BRANCH   7   9
ATOM      9  C   UNL     1       7.235   4.903  14.318  0.00  0.00    +0.000 C 
BRANCH   9  11
ATOM     10  C   UNL     1       6.678   3.698  12.214  0.00  0.00    +0.000 C 
ATOM     11  C   UNL     1       6.239   3.961  13.652  0.00  0.00    +0.000 C 
ENDBRANCH   9  11
ENDBRANCH   7   9
ENDBRANCH   1   7
BRANCH   2  12
ATOM     12  O   UNL     1       6.814   7.336  16.495  0.00  0.00    +0.000 OA
ATOM     13  H   UNL     1       6.348   8.193  16.563  0.00  0.00    +0.000 HD
ENDBRANCH   2  12
BRANCH   5  14
ATOM     14  C   UNL     1       2.793   3.618  17.794  0.00  0.00    +0.000 C 
ATOM     15  O   UNL     1       2.201   3.087  16.853  0.00  0.00    +0.000 OA
BRANCH  14  16
ATOM     16  C   UNL     1       2.381   3.279  19.175  0.00  0.00    +0.000 A 
ATOM     17  C   UNL     1       3.371   2.862  20.071  0.00  0.00    +0.000 A 
ATOM     18  C   UNL     1       3.032   2.529  21.381  0.00  0.00    +0.000 A 
ATOM     19  C   UNL     1       1.702   2.600  21.794  0.00  0.00    +0.000 A 
ATOM     20  C   UNL     1       0.707   2.984  20.895  0.00  0.00    +0.000 A 
ATOM     21  C   UNL     1       1.041   3.310  19.580  0.00  0.00    +0.000 A 
ENDBRANCH  14  16
ENDBRANCH   5  14
BRANCH   6  22
ATOM     22  O   UNL     1       5.135   2.825  16.491  0.00  0.00    +0.000 OA
ATOM     23  H   UNL     1       4.933   2.287  17.291  0.00  0.00    +0.000 HD
ENDBRANCH   6  22
TORSDOF 7
ENDMDL
