MODEL 1
REMARK VINA RESULT:      -8.5      0.000      0.000
REMARK  Name = 
REMARK  8 active torsions:
REMARK  status: ('A' for Active; 'I' for Inactive)
REMARK    1  A    between atoms: C_1  and  C_2
REMARK    2  A    between atoms: C_5  and  S_6
REMARK    3  A    between atoms: S_6  and  N_9
REMARK    4  A    between atoms: N_9  and  C_10
REMARK    5  A    between atoms: C_10  and  C_11
REMARK    6  A    between atoms: C_14  and  C_15
REMARK    7  A    between atoms: C_15  and  N_16
REMARK    8  A    between atoms: C_17  and  C_19
REMARK                            x       y       z     vdW  Elec       q    Type
REMARK                         _______ _______ _______ _____ _____    ______ ____
ROOT
ATOM      1  C   UNL     1       1.945   6.351  20.229  0.00  0.00    +0.000 A 
ATOM      2  C   UNL     1       1.413   7.430  20.950  0.00  0.00    +0.000 A 
ATOM      3  C   UNL     1       1.297   8.697  20.366  0.00  0.00    +0.000 A 
ATOM      4  C   UNL     1       1.717   8.919  19.049  0.00  0.00    +0.000 A 
ATOM      5  C   UNL     1       2.311   7.863  18.349  0.00  0.00    +0.000 A 
ATOM      6  C   UNL     1       2.423   6.596  18.932  0.00  0.00    +0.000 A 
ENDROOT
BRANCH   1   7
ATOM      7  C   UNL     1       2.082   4.960  20.817  0.00  0.00    +0.000 C 
BRANCH   7   8
ATOM      8  N   UNL     1       1.700   3.883  19.896  0.00  0.00    +0.000 NA
ATOM      9  H   UNL     1       0.790   3.464  20.065  0.00  0.00    +0.000 HD
BRANCH   8  10
ATOM     10  S   UNL     1       2.846   2.685  19.597  0.00  0.00    +0.000 S 
ATOM     11  O   UNL     1       2.222   1.617  18.848  0.00  0.00    +0.000 OA
ATOM     12  O   UNL     1       3.534   2.442  20.851  0.00  0.00    +0.000 OA
BRANCH  10  17
ATOM     13  C   UNL     1       6.849   5.384  15.913  0.00  0.00    +0.000 C 
ATOM     14  C   UNL     1       5.844   4.757  16.835  0.00  0.00    +0.000 A 
ATOM     15  C   UNL     1       6.103   4.645  18.207  0.00  0.00    +0.000 A 
ATOM     16  C   UNL     1       5.179   4.029  19.052  0.00  0.00    +0.000 A 
ATOM     17  C   UNL     1       3.989   3.524  18.523  0.00  0.00    +0.000 A 
ATOM     18  C   UNL     1       3.718   3.623  17.156  0.00  0.00    +0.000 A 
ATOM     19  C   UNL     1       4.643   4.247  16.317  0.00  0.00    +0.000 A 
ENDBRANCH  10  17
ENDBRANCH   8  10
ENDBRANCH   7   8
ENDBRANCH   1   7
BRANCH   4  20
ATOM     20  C   UNL     1       1.542  10.265  18.396  0.00  0.00    +0.000 C 
BRANCH  20  21
ATOM     21  N   UNL     1       0.214  10.432  17.856  0.00  0.00    +0.000 N 
ATOM     22  C   UNL     1      -0.808  10.960  18.609  0.00  0.00    +0.000 C 
ATOM     23  O   UNL     1      -0.628  11.312  19.773  0.00  0.00    +0.000 OA
ATOM     24  H   UNL     1       0.011  10.010  16.959  0.00  0.00    +0.000 HD
BRANCH  22  25
ATOM     25  C   UNL     1      -2.164  11.118  17.982  0.00  0.00    +0.000 A 
ATOM     26  C   UNL     1      -2.327  10.504  16.722  0.00  0.00    +0.000 A 
ATOM     27  C   UNL     1      -3.555  10.520  16.054  0.00  0.00    +0.000 A 
ATOM     28  C   UNL     1      -4.656  11.126  16.645  0.00  0.00    +0.000 A 
ATOM     29  C   UNL     1      -4.514  11.750  17.883  0.00  0.00    +0.000 A 
ATOM     30  C   UNL     1      -3.274  11.774  18.542  0.00  0.00    +0.000 A 
ATOM     31 CL   UNL     1      -3.243  12.675  20.018  0.00  0.00    +0.000 Cl
ENDBRANCH  22  25
ENDBRANCH  20  21
ENDBRANCH   4  20
TORSDOF 7
ENDMDL
MODEL 2
REMARK VINA RESULT:      -8.3      2.347      2.938
REMARK  Name = 
REMARK  8 active torsions:
REMARK  status: ('A' for Active; 'I' for Inactive)
REMARK    1  A    between atoms: C_1  and  C_2
REMARK    2  A    between atoms: C_5  and  S_6
REMARK    3  A    between atoms: S_6  and  N_9
REMARK    4  A    between atoms: N_9  and  C_10
REMARK    5  A    between atoms: C_10  and  C_11
REMARK    6  A    between atoms: C_14  and  C_15
REMARK    7  A    between atoms: C_15  and  N_16
REMARK    8  A    between atoms: C_17  and  C_19
REMARK                            x       y       z     vdW  Elec       q    Type
REMARK                         _______ _______ _______ _____ _____    ______ ____
ROOT
ATOM      1  C   UNL     1       2.408   6.602  19.004  0.00  0.00    +0.000 A 
ATOM      2  C   UNL     1       1.988   7.090  20.250  0.00  0.00    +0.000 A 
ATOM      3  C   UNL     1       1.497   8.395  20.383  0.00  0.00    +0.000 A 
ATOM      4  C   UNL     1       1.421   9.247  19.274  0.00  0.00    +0.000 A 
ATOM      5  C   UNL     1       1.902   8.788  18.043  0.00  0.00    +0.000 A 
ATOM      6  C   UNL     1       2.388   7.483  17.911  0.00  0.00    +0.000 A 
ENDROOT
BRANCH   1   7
ATOM      7  C   UNL     1       2.938   5.195  18.811  0.00  0.00    +0.000 C 
BRANCH   7   8
ATOM      8  N   UNL     1       3.699   5.010  17.570  0.00  0.00    +0.000 NA
ATOM      9  H   UNL     1       3.190   4.575  16.805  0.00  0.00    +0.000 HD
BRANCH   8  10
ATOM     10  S   UNL     1       5.236   4.334  17.705  0.00  0.00    +0.000 S 
ATOM     11  O   UNL     1       5.548   3.632  16.479  0.00  0.00    +0.000 OA
ATOM     12  O   UNL     1       5.293   3.679  18.999  0.00  0.00    +0.000 OA
BRANCH  10  17
ATOM     13  C   UNL     1       8.649   9.336  18.167  0.00  0.00    +0.000 C 
ATOM     14  C   UNL     1       7.826   8.089  18.016  0.00  0.00    +0.000 A 
ATOM     15  C   UNL     1       6.677   8.084  17.215  0.00  0.00    +0.000 A 
ATOM     16  C   UNL     1       5.897   6.932  17.106  0.00  0.00    +0.000 A 
ATOM     17  C   UNL     1       6.269   5.778  17.799  0.00  0.00    +0.000 A 
ATOM     18  C   UNL     1       7.410   5.769  18.607  0.00  0.00    +0.000 A 
ATOM     19  C   UNL     1       8.190   6.923  18.705  0.00  0.00    +0.000 A 
ENDBRANCH  10  17
ENDBRANCH   8  10
ENDBRANCH   7   8
ENDBRANCH   1   7
BRANCH   4  20
ATOM     20  C   UNL     1       0.840  10.632  19.400  0.00  0.00    +0.000 C 
BRANCH  20  21
ATOM     21  N   UNL     1      -0.582  10.643  19.152  0.00  0.00    +0.000 N 
ATOM     22  C   UNL     1      -1.191  11.693  18.507  0.00  0.00    +0.000 C 
ATOM     23  O   UNL     1      -0.546  12.662  18.115  0.00  0.00    +0.000 OA
ATOM     24  H   UNL     1      -1.146   9.931  19.600  0.00  0.00    +0.000 HD
BRANCH  22  25
ATOM     25  C   UNL     1      -2.673  11.636  18.270  0.00  0.00    +0.000 A 
ATOM     26  C   UNL     1      -3.477  12.101  19.332  0.00  0.00    +0.000 A 
ATOM     27  C   UNL     1      -4.870  12.163  19.223  0.00  0.00    +0.000 A 
ATOM     28  C   UNL     1      -5.488  11.786  18.038  0.00  0.00    +0.000 A 
ATOM     29  C   UNL     1      -4.714  11.311  16.981  0.00  0.00    +0.000 A 
ATOM     30  C   UNL     1      -3.318  11.208  17.097  0.00  0.00    +0.000 A 
ATOM     31 CL   UNL     1      -2.516  10.504  15.735  0.00  0.00    +0.000 Cl
ENDBRANCH  22  25
ENDBRANCH  20  21
ENDBRANCH   4  20
TORSDOF 7
ENDMDL
MODEL 3
REMARK VINA RESULT:      -8.2      5.599      8.347
REMARK  Name = 
REMARK  8 active torsions:
REMARK  status: ('A' for Active; 'I' for Inactive)
REMARK    1  A    between atoms: C_1  and  C_2
REMARK    2  A    between atoms: C_5  and  S_6
REMARK    3  A    between atoms: S_6  and  N_9
REMARK    4  A    between atoms: N_9  and  C_10
REMARK    5  A    between atoms: C_10  and  C_11
REMARK    6  A    between atoms: C_14  and  C_15
REMARK    7  A    between atoms: C_15  and  N_16
REMARK    8  A    between atoms: C_17  and  C_19
REMARK                            x       y       z     vdW  Elec       q    Type
REMARK                         _______ _______ _______ _____ _____    ______ ____
ROOT
ATOM      1  C   UNL     1       6.233   5.295  18.605  0.00  0.00    +0.000 A 
ATOM      2  C   UNL     1       7.431   5.650  19.243  0.00  0.00    +0.000 A 
ATOM      3  C   UNL     1       8.143   6.791  18.852  0.00  0.00    +0.000 A 
ATOM      4  C   UNL     1       7.679   7.601  17.808  0.00  0.00    +0.000 A 
ATOM      5  C   UNL     1       6.522   7.213  17.124  0.00  0.00    +0.000 A 
ATOM      6  C   UNL     1       5.809   6.075  17.518  0.00  0.00    +0.000 A 
ENDROOT
BRANCH   1   7
ATOM      7  C   UNL     1       5.425   4.075  19.000  0.00  0.00    +0.000 C 
BRANCH   7   8
ATOM      8  N   UNL     1       4.627   3.508  17.906  0.00  0.00    +0.000 NA
ATOM      9  H   UNL     1       4.783   3.922  16.991  0.00  0.00    +0.000 HD
BRANCH   8  10
ATOM     10  S   UNL     1       2.978   3.307  18.181  0.00  0.00    +0.000 S 
ATOM     11  O   UNL     1       2.790   2.241  19.141  0.00  0.00    +0.000 OA
ATOM     12  O   UNL     1       2.335   3.289  16.881  0.00  0.00    +0.000 OA
BRANCH  10  17
ATOM     13  C   UNL     1       1.310   8.537  20.780  0.00  0.00    +0.000 C 
ATOM     14  C   UNL     1       1.764   7.253  20.146  0.00  0.00    +0.000 A 
ATOM     15  C   UNL     1       2.193   7.227  18.813  0.00  0.00    +0.000 A 
ATOM     16  C   UNL     1       2.580   6.025  18.219  0.00  0.00    +0.000 A 
ATOM     17  C   UNL     1       2.542   4.843  18.964  0.00  0.00    +0.000 A 
ATOM     18  C   UNL     1       2.112   4.853  20.293  0.00  0.00    +0.000 A 
ATOM     19  C   UNL     1       1.732   6.060  20.883  0.00  0.00    +0.000 A 
ENDBRANCH  10  17
ENDBRANCH   8  10
ENDBRANCH   7   8
ENDBRANCH   1   7
BRANCH   4  20
ATOM     20  C   UNL     1       8.410   8.860  17.422  0.00  0.00    +0.000 C 
BRANCH  20  21
ATOM     21  N   UNL     1       8.429   9.822  18.497  0.00  0.00    +0.000 N 
ATOM     22  C   UNL     1       9.350  10.842  18.534  0.00  0.00    +0.000 C 
ATOM     23  O   UNL     1      10.193  10.973  17.649  0.00  0.00    +0.000 OA
ATOM     24  H   UNL     1       7.847   9.641  19.305  0.00  0.00    +0.000 HD
BRANCH  22  25
ATOM     25  C   UNL     1       9.307  11.817  19.675  0.00  0.00    +0.000 A 
ATOM     26  C   UNL     1       9.227  11.244  20.962  0.00  0.00    +0.000 A 
ATOM     27  C   UNL     1       9.242  12.032  22.117  0.00  0.00    +0.000 A 
ATOM     28  C   UNL     1       9.367  13.411  22.011  0.00  0.00    +0.000 A 
ATOM     29  C   UNL     1       9.434  13.999  20.749  0.00  0.00    +0.000 A 
ATOM     30  C   UNL     1       9.379  13.217  19.584  0.00  0.00    +0.000 A 
ATOM     31 CL   UNL     1       9.371  14.108  18.100  0.00  0.00    +0.000 Cl
ENDBRANCH  22  25
ENDBRANCH  20  21
ENDBRANCH   4  20
TORSDOF 7
ENDMDL
MODEL 4
REMARK VINA RESULT:      -8.2      6.995      9.970
REMARK  Name = 
REMARK  8 active torsions:
REMARK  status: ('A' for Active; 'I' for Inactive)
REMARK    1  A    between atoms: C_1  and  C_2
REMARK    2  A    between atoms: C_5  and  S_6
REMARK    3  A    between atoms: S_6  and  N_9
REMARK    4  A    between atoms: N_9  and  C_10
REMARK    5  A    between atoms: C_10  and  C_11
REMARK    6  A    between atoms: C_14  and  C_15
REMARK    7  A    between atoms: C_15  and  N_16
REMARK    8  A    between atoms: C_17  and  C_19
REMARK                            x       y       z     vdW  Elec       q    Type
REMARK                         _______ _______ _______ _____ _____    ______ ____
ROOT
ATOM      1  C   UNL     1       8.198   8.601  18.151  0.00  0.00    +0.000 A 
ATOM      2  C   UNL     1       8.606   7.630  19.078  0.00  0.00    +0.000 A 
ATOM      3  C   UNL     1       8.180   6.301  18.961  0.00  0.00    +0.000 A 
ATOM      4  C   UNL     1       7.330   5.911  17.919  0.00  0.00    +0.000 A 
ATOM      5  C   UNL     1       6.866   6.889  17.033  0.00  0.00    +0.000 A 
ATOM      6  C   UNL     1       7.295   8.216  17.148  0.00  0.00    +0.000 A 
ENDROOT
BRANCH   1   7
ATOM      7  C   UNL     1       8.641  10.048  18.233  0.00  0.00    +0.000 C 
BRANCH   7   8
ATOM      8  N   UNL     1       9.523  10.339  19.369  0.00  0.00    +0.000 NA
ATOM      9  H   UNL     1       9.113  10.199  20.288  0.00  0.00    +0.000 HD
BRANCH   8  10
ATOM     10  S   UNL     1      10.377  11.791  19.328  0.00  0.00    +0.000 S 
ATOM     11  O   UNL     1       9.971  12.538  18.158  0.00  0.00    +0.000 OA
ATOM     12  O   UNL     1      11.767  11.466  19.586  0.00  0.00    +0.000 OA
BRANCH  10  17
ATOM     13  C   UNL     1       8.400  14.576  24.349  0.00  0.00    +0.000 C 
ATOM     14  C   UNL     1       8.850  13.897  23.088  0.00  0.00    +0.000 A 
ATOM     15  C   UNL     1       8.494  12.568  22.825  0.00  0.00    +0.000 A 
ATOM     16  C   UNL     1       8.946  11.932  21.668  0.00  0.00    +0.000 A 
ATOM     17  C   UNL     1       9.755  12.629  20.768  0.00  0.00    +0.000 A 
ATOM     18  C   UNL     1      10.123  13.953  21.019  0.00  0.00    +0.000 A 
ATOM     19  C   UNL     1       9.662  14.586  22.175  0.00  0.00    +0.000 A 
ENDBRANCH  10  17
ENDBRANCH   8  10
ENDBRANCH   7   8
ENDBRANCH   1   7
BRANCH   4  20
ATOM     20  C   UNL     1       6.915   4.472  17.756  0.00  0.00    +0.000 C 
BRANCH  20  21
ATOM     21  N   UNL     1       5.803   4.133  18.609  0.00  0.00    +0.000 N 
ATOM     22  C   UNL     1       4.504   4.226  18.169  0.00  0.00    +0.000 C 
ATOM     23  O   UNL     1       4.241   4.602  17.029  0.00  0.00    +0.000 OA
ATOM     24  H   UNL     1       5.991   3.970  19.590  0.00  0.00    +0.000 HD
BRANCH  22  25
ATOM     25  C   UNL     1       3.392   3.846  19.105  0.00  0.00    +0.000 A 
ATOM     26  C   UNL     1       2.819   4.909  19.834  0.00  0.00    +0.000 A 
ATOM     27  C   UNL     1       1.736   4.708  20.695  0.00  0.00    +0.000 A 
ATOM     28  C   UNL     1       1.182   3.441  20.823  0.00  0.00    +0.000 A 
ATOM     29  C   UNL     1       1.740   2.373  20.122  0.00  0.00    +0.000 A 
ATOM     30  C   UNL     1       2.854   2.560  19.287  0.00  0.00    +0.000 A 
ATOM     31 CL   UNL     1       3.487   1.118  18.571  0.00  0.00    +0.000 Cl
ENDBRANCH  22  25
ENDBRANCH  20  21
ENDBRANCH   4  20
TORSDOF 7
ENDMDL
MODEL 5
REMARK VINA RESULT:      -8.2      6.554      9.564
REMARK  Name = 
REMARK  8 active torsions:
REMARK  status: ('A' for Active; 'I' for Inactive)
REMARK    1  A    between atoms: C_1  and  C_2
REMARK    2  A    between atoms: C_5  and  S_6
REMARK    3  A    between atoms: S_6  and  N_9
REMARK    4  A    between atoms: N_9  and  C_10
REMARK    5  A    between atoms: C_10  and  C_11
REMARK    6  A    between atoms: C_14  and  C_15
REMARK    7  A    between atoms: C_15  and  N_16
REMARK    8  A    between atoms: C_17  and  C_19
REMARK                            x       y       z     vdW  Elec       q    Type
REMARK                         _______ _______ _______ _____ _____    ______ ____
ROOT
ATOM      1  C   UNL     1       8.113   8.351  18.040  0.00  0.00    +0.000 A 
ATOM      2  C   UNL     1       8.464   7.412  19.021  0.00  0.00    +0.000 A 
ATOM      3  C   UNL     1       8.002   6.091  18.950  0.00  0.00    +0.000 A 
ATOM      4  C   UNL     1       7.173   5.680  17.899  0.00  0.00    +0.000 A 
ATOM      5  C   UNL     1       6.766   6.630  16.956  0.00  0.00    +0.000 A 
ATOM      6  C   UNL     1       7.230   7.947  17.027  0.00  0.00    +0.000 A 
ENDROOT
BRANCH   1   7
ATOM      7  C   UNL     1       8.596   9.788  18.072  0.00  0.00    +0.000 C 
BRANCH   7   8
ATOM      8  N   UNL     1       9.256  10.168  19.327  0.00  0.00    +0.000 NA
ATOM      9  H   UNL     1       8.695  10.056  20.167  0.00  0.00    +0.000 HD
BRANCH   8  10
ATOM     10  S   UNL     1      10.061  11.647  19.355  0.00  0.00    +0.000 S 
ATOM     11  O   UNL     1       9.547  12.479  18.289  0.00  0.00    +0.000 OA
ATOM     12  O   UNL     1      11.475  11.352  19.484  0.00  0.00    +0.000 OA
BRANCH  10  17
ATOM     13  C   UNL     1       8.063  14.056  24.560  0.00  0.00    +0.000 C 
ATOM     14  C   UNL     1       8.596  13.455  23.292  0.00  0.00    +0.000 A 
ATOM     15  C   UNL     1       9.301  14.239  22.370  0.00  0.00    +0.000 A 
ATOM     16  C   UNL     1       9.763  13.682  21.177  0.00  0.00    +0.000 A 
ATOM     17  C   UNL     1       9.523  12.333  20.905  0.00  0.00    +0.000 A 
ATOM     18  C   UNL     1       8.816  11.539  21.812  0.00  0.00    +0.000 A 
ATOM     19  C   UNL     1       8.362  12.101  23.007  0.00  0.00    +0.000 A 
ENDBRANCH  10  17
ENDBRANCH   8  10
ENDBRANCH   7   8
ENDBRANCH   1   7
BRANCH   4  20
ATOM     20  C   UNL     1       6.721   4.247  17.786  0.00  0.00    +0.000 C 
BRANCH  20  21
ATOM     21  N   UNL     1       5.449   4.032  18.432  0.00  0.00    +0.000 N 
ATOM     22  C   UNL     1       4.277   3.986  17.715  0.00  0.00    +0.000 C 
ATOM     23  O   UNL     1       4.269   4.126  16.494  0.00  0.00    +0.000 OA
ATOM     24  H   UNL     1       5.419   4.068  19.443  0.00  0.00    +0.000 HD
BRANCH  22  25
ATOM     25  C   UNL     1       2.987   3.746  18.447  0.00  0.00    +0.000 A 
ATOM     26  C   UNL     1       2.348   2.520  18.169  0.00  0.00    +0.000 A 
ATOM     27  C   UNL     1       1.173   2.140  18.826  0.00  0.00    +0.000 A 
ATOM     28  C   UNL     1       0.627   2.968  19.798  0.00  0.00    +0.000 A 
ATOM     29  C   UNL     1       1.235   4.190  20.080  0.00  0.00    +0.000 A 
ATOM     30  C   UNL     1       2.392   4.596  19.395  0.00  0.00    +0.000 A 
ATOM     31 CL   UNL     1       2.962   6.182  19.790  0.00  0.00    +0.000 Cl
ENDBRANCH  22  25
ENDBRANCH  20  21
ENDBRANCH   4  20
TORSDOF 7
ENDMDL
MODEL 6
REMARK VINA RESULT:      -8.2      6.519      9.598
REMARK  Name = 
REMARK  8 active torsions:
REMARK  status: ('A' for Active; 'I' for Inactive)
REMARK    1  A    between atoms: C_1  and  C_2
REMARK    2  A    between atoms: C_5  and  S_6
REMARK    3  A    between atoms: S_6  and  N_9
REMARK    4  A    between atoms: N_9  and  C_10
REMARK    5  A    between atoms: C_10  and  C_11
REMARK    6  A    between atoms: C_14  and  C_15
REMARK    7  A    between atoms: C_15  and  N_16
REMARK    8  A    between atoms: C_17  and  C_19
REMARK                            x       y       z     vdW  Elec       q    Type
REMARK                         _______ _______ _______ _____ _____    ______ ____
ROOT
ATOM      1  C   UNL     1       8.072   8.357  18.011  0.00  0.00    +0.000 A 
ATOM      2  C   UNL     1       7.318   7.849  16.943  0.00  0.00    +0.000 A 
ATOM      3  C   UNL     1       6.918   6.507  16.920  0.00  0.00    +0.000 A 
ATOM      4  C   UNL     1       7.269   5.638  17.961  0.00  0.00    +0.000 A 
ATOM      5  C   UNL     1       8.078   6.124  18.993  0.00  0.00    +0.000 A 
ATOM      6  C   UNL     1       8.474   7.465  19.017  0.00  0.00    +0.000 A 
ENDROOT
BRANCH   1   7
ATOM      7  C   UNL     1       8.520   9.804  18.082  0.00  0.00    +0.000 C 
BRANCH   7   8
ATOM      8  N   UNL     1       9.283  10.133  19.293  0.00  0.00    +0.000 NA
ATOM      9  H   UNL     1       8.795   9.985  20.171  0.00  0.00    +0.000 HD
BRANCH   8  10
ATOM     10  S   UNL     1      10.088  11.612  19.315  0.00  0.00    +0.000 S 
ATOM     11  O   UNL     1       9.566  12.445  18.254  0.00  0.00    +0.000 OA
ATOM     12  O   UNL     1      11.504  11.316  19.431  0.00  0.00    +0.000 OA
BRANCH  10  17
ATOM     13  C   UNL     1       8.142  14.032  24.534  0.00  0.00    +0.000 C 
ATOM     14  C   UNL     1       8.661  13.424  23.263  0.00  0.00    +0.000 A 
ATOM     15  C   UNL     1       9.445  14.177  22.379  0.00  0.00    +0.000 A 
ATOM     16  C   UNL     1       9.895  13.617  21.183  0.00  0.00    +0.000 A 
ATOM     17  C   UNL     1       9.563  12.297  20.870  0.00  0.00    +0.000 A 
ATOM     18  C   UNL     1       8.777  11.535  21.738  0.00  0.00    +0.000 A 
ATOM     19  C   UNL     1       8.336  12.099  22.937  0.00  0.00    +0.000 A 
ENDBRANCH  10  17
ENDBRANCH   8  10
ENDBRANCH   7   8
ENDBRANCH   1   7
BRANCH   4  20
ATOM     20  C   UNL     1       6.792   4.209  17.970  0.00  0.00    +0.000 C 
BRANCH  20  21
ATOM     21  N   UNL     1       5.587   4.049  18.747  0.00  0.00    +0.000 N 
ATOM     22  C   UNL     1       4.345   4.065  18.159  0.00  0.00    +0.000 C 
ATOM     23  O   UNL     1       4.214   4.217  16.946  0.00  0.00    +0.000 OA
ATOM     24  H   UNL     1       5.667   4.077  19.755  0.00  0.00    +0.000 HD
BRANCH  22  25
ATOM     25  C   UNL     1       3.130   3.881  19.024  0.00  0.00    +0.000 A 
ATOM     26  C   UNL     1       2.718   2.545  19.216  0.00  0.00    +0.000 A 
ATOM     27  C   UNL     1       1.640   2.224  20.047  0.00  0.00    +0.000 A 
ATOM     28  C   UNL     1       0.969   3.232  20.729  0.00  0.00    +0.000 A 
ATOM     29  C   UNL     1       1.351   4.559  20.543  0.00  0.00    +0.000 A 
ATOM     30  C   UNL     1       2.407   4.892  19.678  0.00  0.00    +0.000 A 
ATOM     31 CL   UNL     1       2.688   6.588  19.480  0.00  0.00    +0.000 Cl
ENDBRANCH  22  25
ENDBRANCH  20  21
ENDBRANCH   4  20
TORSDOF 7
ENDMDL
MODEL 7
REMARK VINA RESULT:      -8.2      1.341      1.942
REMARK  Name = 
REMARK  8 active torsions:
REMARK  status: ('A' for Active; 'I' for Inactive)
REMARK    1  A    between atoms: C_1  and  C_2
REMARK    2  A    between atoms: C_5  and  S_6
REMARK    3  A    between atoms: S_6  and  N_9
REMARK    4  A    between atoms: N_9  and  C_10
REMARK    5  A    between atoms: C_10  and  C_11
REMARK    6  A    between atoms: C_14  and  C_15
REMARK    7  A    between atoms: C_15  and  N_16
REMARK    8  A    between atoms: C_17  and  C_19
REMARK                            x       y       z     vdW  Elec       q    Type
REMARK                         _______ _______ _______ _____ _____    ______ ____
ROOT
ATOM      1  C   UNL     1       2.222   5.947  19.768  0.00  0.00    +0.000 A 
ATOM      2  C   UNL     1       1.892   6.994  20.641  0.00  0.00    +0.000 A 
ATOM      3  C   UNL     1       1.701   8.296  20.161  0.00  0.00    +0.000 A 
ATOM      4  C   UNL     1       1.844   8.584  18.799  0.00  0.00    +0.000 A 
ATOM      5  C   UNL     1       2.239   7.557  17.935  0.00  0.00    +0.000 A 
ATOM      6  C   UNL     1       2.425   6.256  18.415  0.00  0.00    +0.000 A 
ENDROOT
BRANCH   1   7
ATOM      7  C   UNL     1       2.429   4.521  20.241  0.00  0.00    +0.000 C 
BRANCH   7   8
ATOM      8  N   UNL     1       2.434   3.529  19.158  0.00  0.00    +0.000 NA
ATOM      9  H   UNL     1       1.640   2.896  19.142  0.00  0.00    +0.000 HD
BRANCH   8  10
ATOM     10  S   UNL     1       3.864   2.677  18.904  0.00  0.00    +0.000 S 
ATOM     11  O   UNL     1       3.680   1.777  17.787  0.00  0.00    +0.000 OA
ATOM     12  O   UNL     1       4.308   2.207  20.203  0.00  0.00    +0.000 OA
BRANCH  10  17
ATOM     13  C   UNL     1       7.525   7.209  17.188  0.00  0.00    +0.000 C 
ATOM     14  C   UNL     1       6.652   6.060  17.602  0.00  0.00    +0.000 A 
ATOM     15  C   UNL     1       5.902   5.354  16.653  0.00  0.00    +0.000 A 
ATOM     16  C   UNL     1       5.065   4.310  17.049  0.00  0.00    +0.000 A 
ATOM     17  C   UNL     1       4.980   3.967  18.401  0.00  0.00    +0.000 A 
ATOM     18  C   UNL     1       5.717   4.666  19.360  0.00  0.00    +0.000 A 
ATOM     19  C   UNL     1       6.558   5.705  18.956  0.00  0.00    +0.000 A 
ENDBRANCH  10  17
ENDBRANCH   8  10
ENDBRANCH   7   8
ENDBRANCH   1   7
BRANCH   4  20
ATOM     20  C   UNL     1       1.583   9.971  18.269  0.00  0.00    +0.000 C 
BRANCH  20  21
ATOM     21  N   UNL     1       0.172  10.239  18.135  0.00  0.00    +0.000 N 
ATOM     22  C   UNL     1      -0.505  11.007  19.052  0.00  0.00    +0.000 C 
ATOM     23  O   UNL     1       0.069  11.497  20.022  0.00  0.00    +0.000 OA
ATOM     24  H   UNL     1      -0.343   9.722  17.434  0.00  0.00    +0.000 HD
BRANCH  22  25
ATOM     25  C   UNL     1      -1.971  11.258  18.847  0.00  0.00    +0.000 A 
ATOM     26  C   UNL     1      -2.595  12.060  19.826  0.00  0.00    +0.000 A 
ATOM     27  C   UNL     1      -3.941  12.423  19.727  0.00  0.00    +0.000 A 
ATOM     28  C   UNL     1      -4.688  12.016  18.628  0.00  0.00    +0.000 A 
ATOM     29  C   UNL     1      -4.096  11.212  17.656  0.00  0.00    +0.000 A 
ATOM     30  C   UNL     1      -2.755  10.809  17.770  0.00  0.00    +0.000 A 
ATOM     31 CL   UNL     1      -2.203   9.731  16.534  0.00  0.00    +0.000 Cl
ENDBRANCH  22  25
ENDBRANCH  20  21
ENDBRANCH   4  20
TORSDOF 7
ENDMDL
MODEL 8
REMARK VINA RESULT:      -8.1      1.877      2.568
REMARK  Name = 
REMARK  8 active torsions:
REMARK  status: ('A' for Active; 'I' for Inactive)
REMARK    1  A    between atoms: C_1  and  C_2
REMARK    2  A    between atoms: C_5  and  S_6
REMARK    3  A    between atoms: S_6  and  N_9
REMARK    4  A    between atoms: N_9  and  C_10
REMARK    5  A    between atoms: C_10  and  C_11
REMARK    6  A    between atoms: C_14  and  C_15
REMARK    7  A    between atoms: C_15  and  N_16
REMARK    8  A    between atoms: C_17  and  C_19
REMARK                            x       y       z     vdW  Elec       q    Type
REMARK                         _______ _______ _______ _____ _____    ______ ____
ROOT
ATOM      1  C   UNL     1       2.268   7.119  19.361  0.00  0.00    +0.000 A 
ATOM      2  C   UNL     1       1.759   7.632  20.563  0.00  0.00    +0.000 A 
ATOM      3  C   UNL     1       1.200   8.915  20.617  0.00  0.00    +0.000 A 
ATOM      4  C   UNL     1       1.142   9.719  19.473  0.00  0.00    +0.000 A 
ATOM      5  C   UNL     1       1.710   9.238  18.288  0.00  0.00    +0.000 A 
ATOM      6  C   UNL     1       2.265   7.955  18.234  0.00  0.00    +0.000 A 
ENDROOT
BRANCH   1   7
ATOM      7  C   UNL     1       2.874   5.734  19.253  0.00  0.00    +0.000 C 
BRANCH   7   8
ATOM      8  N   UNL     1       4.209   5.713  18.642  0.00  0.00    +0.000 NA
ATOM      9  H   UNL     1       4.315   6.278  17.804  0.00  0.00    +0.000 HD
BRANCH   8  10
ATOM     10  S   UNL     1       4.931   4.207  18.426  0.00  0.00    +0.000 S 
ATOM     11  O   UNL     1       3.896   3.202  18.323  0.00  0.00    +0.000 OA
ATOM     12  O   UNL     1       6.000   4.110  19.403  0.00  0.00    +0.000 OA
BRANCH  10  17
ATOM     13  C   UNL     1       7.457   5.002  12.960  0.00  0.00    +0.000 C 
ATOM     14  C   UNL     1       6.841   4.762  14.308  0.00  0.00    +0.000 A 
ATOM     15  C   UNL     1       5.512   4.335  14.422  0.00  0.00    +0.000 A 
ATOM     16  C   UNL     1       4.936   4.149  15.679  0.00  0.00    +0.000 A 
ATOM     17  C   UNL     1       5.693   4.387  16.829  0.00  0.00    +0.000 A 
ATOM     18  C   UNL     1       7.018   4.818  16.731  0.00  0.00    +0.000 A 
ATOM     19  C   UNL     1       7.591   4.996  15.471  0.00  0.00    +0.000 A 
ENDBRANCH  10  17
ENDBRANCH   8  10
ENDBRANCH   7   8
ENDBRANCH   1   7
BRANCH   4  20
ATOM     20  C   UNL     1       0.490  11.077  19.512  0.00  0.00    +0.000 C 
BRANCH  20  21
ATOM     21  N   UNL     1      -0.925  11.001  19.236  0.00  0.00    +0.000 N 
ATOM     22  C   UNL     1      -1.545  11.905  18.406  0.00  0.00    +0.000 C 
ATOM     23  O   UNL     1      -0.916  12.811  17.865  0.00  0.00    +0.000 OA
ATOM     24  H   UNL     1      -1.481  10.361  19.788  0.00  0.00    +0.000 HD
BRANCH  22  25
ATOM     25  C   UNL     1      -3.018  11.763  18.151  0.00  0.00    +0.000 A 
ATOM     26  C   UNL     1      -3.858  12.099  19.234  0.00  0.00    +0.000 A 
ATOM     27  C   UNL     1      -5.251  12.071  19.116  0.00  0.00    +0.000 A 
ATOM     28  C   UNL     1      -5.836  11.735  17.901  0.00  0.00    +0.000 A 
ATOM     29  C   UNL     1      -5.025  11.387  16.823  0.00  0.00    +0.000 A 
ATOM     30  C   UNL     1      -3.626  11.372  16.945  0.00  0.00    +0.000 A 
ATOM     31 CL   UNL     1      -2.770  10.819  15.546  0.00  0.00    +0.000 Cl
ENDBRANCH  22  25
ENDBRANCH  20  21
ENDBRANCH   4  20
TORSDOF 7
ENDMDL
MODEL 9
REMARK VINA RESULT:      -8.1      2.464      3.275
REMARK  Name = 
REMARK  8 active torsions:
REMARK  status: ('A' for Active; 'I' for Inactive)
REMARK    1  A    between atoms: C_1  and  C_2
REMARK    2  A    between atoms: C_5  and  S_6
REMARK    3  A    between atoms: S_6  and  N_9
REMARK    4  A    between atoms: N_9  and  C_10
REMARK    5  A    between atoms: C_10  and  C_11
REMARK    6  A    between atoms: C_14  and  C_15
REMARK    7  A    between atoms: C_15  and  N_16
REMARK    8  A    between atoms: C_17  and  C_19
REMARK                            x       y       z     vdW  Elec       q    Type
REMARK                         _______ _______ _______ _____ _____    ______ ____
ROOT
ATOM      1  C   UNL     1       2.284   6.814  19.683  0.00  0.00    +0.000 A 
ATOM      2  C   UNL     1       1.635   7.622  20.629  0.00  0.00    +0.000 A 
ATOM      3  C   UNL     1       1.172   8.899  20.287  0.00  0.00    +0.000 A 
ATOM      4  C   UNL     1       1.352   9.402  18.993  0.00  0.00    +0.000 A 
ATOM      5  C   UNL     1       2.058   8.628  18.066  0.00  0.00    +0.000 A 
ATOM      6  C   UNL     1       2.517   7.351  18.408  0.00  0.00    +0.000 A 
ENDROOT
BRANCH   1   7
ATOM      7  C   UNL     1       2.794   5.423  20.006  0.00  0.00    +0.000 C 
BRANCH   7   8
ATOM      8  N   UNL     1       3.456   4.755  18.879  0.00  0.00    +0.000 NA
ATOM      9  H   UNL     1       2.955   3.964  18.483  0.00  0.00    +0.000 HD
BRANCH   8  10
ATOM     10  S   UNL     1       5.088   4.380  19.060  0.00  0.00    +0.000 S 
ATOM     11  O   UNL     1       5.205   3.031  19.567  0.00  0.00    +0.000 OA
ATOM     12  O   UNL     1       5.705   5.509  19.732  0.00  0.00    +0.000 OA
BRANCH  10  17
ATOM     13  C   UNL     1       6.986   4.610  13.295  0.00  0.00    +0.000 C 
ATOM     14  C   UNL     1       6.521   4.510  14.719  0.00  0.00    +0.000 A 
ATOM     15  C   UNL     1       5.180   4.233  15.016  0.00  0.00    +0.000 A 
ATOM     16  C   UNL     1       4.748   4.176  16.341  0.00  0.00    +0.000 A 
ATOM     17  C   UNL     1       5.661   4.393  17.376  0.00  0.00    +0.000 A 
ATOM     18  C   UNL     1       7.000   4.676  17.096  0.00  0.00    +0.000 A 
ATOM     19  C   UNL     1       7.428   4.724  15.768  0.00  0.00    +0.000 A 
ENDBRANCH  10  17
ENDBRANCH   8  10
ENDBRANCH   7   8
ENDBRANCH   1   7
BRANCH   4  20
ATOM     20  C   UNL     1       0.805  10.751  18.604  0.00  0.00    +0.000 C 
BRANCH  20  21
ATOM     21  N   UNL     1       0.173  11.416  19.718  0.00  0.00    +0.000 N 
ATOM     22  C   UNL     1      -1.195  11.485  19.833  0.00  0.00    +0.000 C 
ATOM     23  O   UNL     1      -1.933  10.979  18.990  0.00  0.00    +0.000 OA
ATOM     24  H   UNL     1       0.758  11.966  20.334  0.00  0.00    +0.000 HD
BRANCH  22  25
ATOM     25  C   UNL     1      -1.789  12.182  21.023  0.00  0.00    +0.000 A 
ATOM     26  C   UNL     1      -2.515  13.358  20.740  0.00  0.00    +0.000 A 
ATOM     27  C   UNL     1      -3.171  14.073  21.746  0.00  0.00    +0.000 A 
ATOM     28  C   UNL     1      -3.140  13.611  23.056  0.00  0.00    +0.000 A 
ATOM     29  C   UNL     1      -2.418  12.459  23.360  0.00  0.00    +0.000 A 
ATOM     30  C   UNL     1      -1.722  11.758  22.361  0.00  0.00    +0.000 A 
ATOM     31 CL   UNL     1      -0.793  10.409  22.921  0.00  0.00    +0.000 Cl
ENDBRANCH  22  25
ENDBRANCH  20  21
ENDBRANCH   4  20
TORSDOF 7
ENDMDL
