MODEL 1
REMARK VINA RESULT:      -8.1      0.000      0.000
REMARK  Name = 
REMARK  8 active torsions:
REMARK  status: ('A' for Active; 'I' for Inactive)
REMARK    1  A    between atoms: C_1  and  O_2
REMARK    2  A    between atoms: O_2  and  C_3
REMARK    3  A    between atoms: C_6  and  N_7
REMARK    4  A    between atoms: C_12  and  N_13
REMARK    5  A    between atoms: C_16  and  N_17
REMARK    6  A    between atoms: C_18  and  C_20
REMARK    7  A    between atoms: C_24  and  N_25
REMARK    8  A    between atoms: C_26  and  C_27
REMARK                            x       y       z     vdW  Elec       q    Type
REMARK                         _______ _______ _______ _____ _____    ______ ____
ROOT
ATOM      1  N   UNL     1       1.849   6.543  19.234  0.00  0.00    +0.000 N 
ATOM      2  C   UNL     1       2.045   7.052  17.886  0.00  0.00    +0.000 C 
ATOM      3  C   UNL     1       2.636   8.443  18.094  0.00  0.00    +0.000 C 
ATOM      4  C   UNL     1       1.970   8.931  19.379  0.00  0.00    +0.000 C 
ATOM      5  C   UNL     1       1.848   7.640  20.218  0.00  0.00    +0.000 C 
ENDROOT
BRANCH   1  11
ATOM      6  N   UNL     1       4.542   2.811  18.355  0.00  0.00    +0.000 N 
ATOM      7  C   UNL     1       3.594   3.430  19.188  0.00  0.00    +0.000 A 
ATOM      8  N   UNL     1       3.382   2.883  20.389  0.00  0.00    +0.000 NA
ATOM      9  C   UNL     1       2.582   3.579  21.214  0.00  0.00    +0.000 A 
ATOM     10  C   UNL     1       2.016   4.795  20.892  0.00  0.00    +0.000 A 
ATOM     11  C   UNL     1       2.270   5.290  19.633  0.00  0.00    +0.000 A 
ATOM     12  N   UNL     1       3.032   4.583  18.790  0.00  0.00    +0.000 NA
ATOM     13  H   UNL     1       5.083   2.208  18.965  0.00  0.00    +0.000 HD
BRANCH   6  17
ATOM     14  C   UNL     1       6.962   5.003  15.665  0.00  0.00    +0.000 A 
ATOM     15  C   UNL     1       5.929   4.207  15.182  0.00  0.00    +0.000 A 
ATOM     16  C   UNL     1       5.121   3.502  16.069  0.00  0.00    +0.000 A 
ATOM     17  C   UNL     1       5.360   3.523  17.448  0.00  0.00    +0.000 A 
ATOM     18  C   UNL     1       6.387   4.344  17.930  0.00  0.00    +0.000 A 
ATOM     19  C   UNL     1       7.195   5.062  17.039  0.00  0.00    +0.000 A 
BRANCH  14  21
ATOM     20  C   UNL     1       7.572   5.113  13.397  0.00  0.00    +0.000 C 
ATOM     21  O   UNL     1       7.691   5.652  14.708  0.00  0.00    +0.000 OA
ENDBRANCH  14  21
ENDBRANCH   6  17
ENDBRANCH   1  11
BRANCH   4  22
ATOM     22  N   UNL     1       0.679   9.564  19.100  0.00  0.00    +0.000 N 
ATOM     23  C   UNL     1       0.304  10.738  19.720  0.00  0.00    +0.000 C 
ATOM     24  O   UNL     1       1.009  11.300  20.562  0.00  0.00    +0.000 OA
ATOM     25  H   UNL     1       0.086   9.127  18.408  0.00  0.00    +0.000 HD
BRANCH  23  26
ATOM     26  C   UNL     1      -0.996  11.349  19.343  0.00  0.00    +0.000 A 
ATOM     27  C   UNL     1      -1.856  11.901  20.302  0.00  0.00    +0.000 A 
ATOM     28  C   UNL     1      -3.111  12.359  19.912  0.00  0.00    +0.000 A 
ATOM     29  C   UNL     1      -3.532  12.231  18.583  0.00  0.00    +0.000 A 
ATOM     30  C   UNL     1      -2.700  11.669  17.608  0.00  0.00    +0.000 A 
ATOM     31  C   UNL     1      -1.411  11.274  17.991  0.00  0.00    +0.000 A 
BRANCH  30  32
ATOM     32  N   UNL     1      -3.128  11.420  16.263  0.00  0.00    +0.000 N 
ATOM     33  C   UNL     1      -3.132  10.194  15.636  0.00  0.00    +0.000 C 
ATOM     34  C   UNL     1      -3.545  10.210  14.174  0.00  0.00    +0.000 C 
ATOM     35  O   UNL     1      -2.885   9.113  16.159  0.00  0.00    +0.000 OA
ATOM     36  H   UNL     1      -3.441  12.234  15.743  0.00  0.00    +0.000 HD
ENDBRANCH  30  32
ENDBRANCH  23  26
ENDBRANCH   4  22
TORSDOF 6
ENDMDL
MODEL 2
REMARK VINA RESULT:      -8.1      1.609      2.343
REMARK  Name = 
REMARK  8 active torsions:
REMARK  status: ('A' for Active; 'I' for Inactive)
REMARK    1  A    between atoms: C_1  and  O_2
REMARK    2  A    between atoms: O_2  and  C_3
REMARK    3  A    between atoms: C_6  and  N_7
REMARK    4  A    between atoms: C_12  and  N_13
REMARK    5  A    between atoms: C_16  and  N_17
REMARK    6  A    between atoms: C_18  and  C_20
REMARK    7  A    between atoms: C_24  and  N_25
REMARK    8  A    between atoms: C_26  and  C_27
REMARK                            x       y       z     vdW  Elec       q    Type
REMARK                         _______ _______ _______ _____ _____    ______ ____
ROOT
ATOM      1  N   UNL     1       1.781   6.981  18.714  0.00  0.00    +0.000 N 
ATOM      2  C   UNL     1       2.361   7.529  17.498  0.00  0.00    +0.000 C 
ATOM      3  C   UNL     1       2.548   9.011  17.809  0.00  0.00    +0.000 C 
ATOM      4  C   UNL     1       1.369   9.341  18.722  0.00  0.00    +0.000 C 
ATOM      5  C   UNL     1       1.198   8.047  19.548  0.00  0.00    +0.000 C 
ENDROOT
BRANCH   1  11
ATOM      6  N   UNL     1       4.659   3.289  18.507  0.00  0.00    +0.000 N 
ATOM      7  C   UNL     1       3.675   3.999  19.219  0.00  0.00    +0.000 A 
ATOM      8  N   UNL     1       3.480   3.663  20.497  0.00  0.00    +0.000 NA
ATOM      9  C   UNL     1       2.640   4.453  21.187  0.00  0.00    +0.000 A 
ATOM     10  C   UNL     1       2.018   5.563  20.655  0.00  0.00    +0.000 A 
ATOM     11  C   UNL     1       2.259   5.841  19.328  0.00  0.00    +0.000 A 
ATOM     12  N   UNL     1       3.061   5.034  18.623  0.00  0.00    +0.000 NA
ATOM     13  H   UNL     1       5.223   2.831  19.214  0.00  0.00    +0.000 HD
BRANCH   6  17
ATOM     14  C   UNL     1       7.004   5.092  15.483  0.00  0.00    +0.000 A 
ATOM     15  C   UNL     1       5.849   4.394  15.145  0.00  0.00    +0.000 A 
ATOM     16  C   UNL     1       5.068   3.819  16.143  0.00  0.00    +0.000 A 
ATOM     17  C   UNL     1       5.449   3.870  17.489  0.00  0.00    +0.000 A 
ATOM     18  C   UNL     1       6.601   4.593  17.825  0.00  0.00    +0.000 A 
ATOM     19  C   UNL     1       7.383   5.181  16.822  0.00  0.00    +0.000 A 
BRANCH  14  21
ATOM     20  C   UNL     1       7.541   4.913  13.200  0.00  0.00    +0.000 C 
ATOM     21  O   UNL     1       7.694   5.617  14.426  0.00  0.00    +0.000 OA
ENDBRANCH  14  21
ENDBRANCH   6  17
ENDBRANCH   1  11
BRANCH   4  22
ATOM     22  N   UNL     1       0.179   9.693  17.946  0.00  0.00    +0.000 N 
ATOM     23  C   UNL     1      -0.971  10.150  18.558  0.00  0.00    +0.000 C 
ATOM     24  O   UNL     1      -1.075  10.255  19.782  0.00  0.00    +0.000 OA
ATOM     25  H   UNL     1       0.241   9.622  16.940  0.00  0.00    +0.000 HD
BRANCH  23  26
ATOM     26  C   UNL     1      -2.118  10.540  17.698  0.00  0.00    +0.000 A 
ATOM     27  C   UNL     1      -2.099  10.344  16.311  0.00  0.00    +0.000 A 
ATOM     28  C   UNL     1      -3.150  10.828  15.538  0.00  0.00    +0.000 A 
ATOM     29  C   UNL     1      -4.197  11.543  16.131  0.00  0.00    +0.000 A 
ATOM     30  C   UNL     1      -4.234  11.766  17.513  0.00  0.00    +0.000 A 
ATOM     31  C   UNL     1      -3.210  11.216  18.295  0.00  0.00    +0.000 A 
BRANCH  30  32
ATOM     32  N   UNL     1      -5.227  12.582  18.147  0.00  0.00    +0.000 N 
ATOM     33  C   UNL     1      -6.517  12.197  18.435  0.00  0.00    +0.000 C 
ATOM     34  C   UNL     1      -7.404  13.280  19.025  0.00  0.00    +0.000 C 
ATOM     35  O   UNL     1      -6.981  11.070  18.306  0.00  0.00    +0.000 OA
ATOM     36  H   UNL     1      -4.935  13.525  18.385  0.00  0.00    +0.000 HD
ENDBRANCH  30  32
ENDBRANCH  23  26
ENDBRANCH   4  22
TORSDOF 6
ENDMDL
MODEL 3
REMARK VINA RESULT:      -8.0      2.393      9.408
REMARK  Name = 
REMARK  8 active torsions:
REMARK  status: ('A' for Active; 'I' for Inactive)
REMARK    1  A    between atoms: C_1  and  O_2
REMARK    2  A    between atoms: O_2  and  C_3
REMARK    3  A    between atoms: C_6  and  N_7
REMARK    4  A    between atoms: C_12  and  N_13
REMARK    5  A    between atoms: C_16  and  N_17
REMARK    6  A    between atoms: C_18  and  C_20
REMARK    7  A    between atoms: C_24  and  N_25
REMARK    8  A    between atoms: C_26  and  C_27
REMARK                            x       y       z     vdW  Elec       q    Type
REMARK                         _______ _______ _______ _____ _____    ______ ____
ROOT
ATOM      1  N   UNL     1      -0.479  10.086  22.109  0.00  0.00    +0.000 N 
ATOM      2  C   UNL     1      -0.036   9.397  23.310  0.00  0.00    +0.000 C 
ATOM      3  C   UNL     1       1.485   9.374  23.189  0.00  0.00    +0.000 C 
ATOM      4  C   UNL     1       1.726   9.249  21.686  0.00  0.00    +0.000 C 
ATOM      5  C   UNL     1       0.577  10.085  21.080  0.00  0.00    +0.000 C 
ENDROOT
BRANCH   1  11
ATOM      6  N   UNL     1      -3.290  12.925  19.661  0.00  0.00    +0.000 N 
ATOM      7  C   UNL     1      -2.772  12.544  20.912  0.00  0.00    +0.000 A 
ATOM      8  N   UNL     1      -3.377  13.030  22.000  0.00  0.00    +0.000 NA
ATOM      9  C   UNL     1      -2.952  12.534  23.174  0.00  0.00    +0.000 A 
ATOM     10  C   UNL     1      -1.974  11.568  23.292  0.00  0.00    +0.000 A 
ATOM     11  C   UNL     1      -1.389  11.124  22.128  0.00  0.00    +0.000 A 
ATOM     12  N   UNL     1      -1.777  11.643  20.957  0.00  0.00    +0.000 NA
ATOM     13  H   UNL     1      -4.216  13.291  19.854  0.00  0.00    +0.000 HD
BRANCH   6  17
ATOM     14  C   UNL     1      -3.286  10.347  16.307  0.00  0.00    +0.000 A 
ATOM     15  C   UNL     1      -2.092  10.649  16.955  0.00  0.00    +0.000 A 
ATOM     16  C   UNL     1      -2.098  11.481  18.071  0.00  0.00    +0.000 A 
ATOM     17  C   UNL     1      -3.278  12.080  18.528  0.00  0.00    +0.000 A 
ATOM     18  C   UNL     1      -4.479  11.755  17.885  0.00  0.00    +0.000 A 
ATOM     19  C   UNL     1      -4.476  10.909  16.768  0.00  0.00    +0.000 A 
BRANCH  14  21
ATOM     20  C   UNL     1      -3.574  10.089  13.987  0.00  0.00    +0.000 C 
ATOM     21  O   UNL     1      -3.165   9.520  15.225  0.00  0.00    +0.000 OA
ENDBRANCH  14  21
ENDBRANCH   6  17
ENDBRANCH   1  11
BRANCH   4  22
ATOM     22  N   UNL     1       1.709   7.848  21.261  0.00  0.00    +0.000 N 
ATOM     23  C   UNL     1       1.995   7.487  19.960  0.00  0.00    +0.000 C 
ATOM     24  O   UNL     1       2.245   8.315  19.080  0.00  0.00    +0.000 OA
ATOM     25  H   UNL     1       1.514   7.150  21.965  0.00  0.00    +0.000 HD
BRANCH  23  26
ATOM     26  C   UNL     1       2.012   6.042  19.619  0.00  0.00    +0.000 A 
ATOM     27  C   UNL     1       1.476   5.075  20.480  0.00  0.00    +0.000 A 
ATOM     28  C   UNL     1       1.617   3.727  20.166  0.00  0.00    +0.000 A 
ATOM     29  C   UNL     1       2.326   3.333  19.025  0.00  0.00    +0.000 A 
ATOM     30  C   UNL     1       2.885   4.277  18.156  0.00  0.00    +0.000 A 
ATOM     31  C   UNL     1       2.680   5.634  18.438  0.00  0.00    +0.000 A 
BRANCH  30  32
ATOM     32  N   UNL     1       3.709   3.920  17.038  0.00  0.00    +0.000 N 
ATOM     33  C   UNL     1       5.081   4.019  16.989  0.00  0.00    +0.000 C 
ATOM     34  C   UNL     1       5.713   3.666  15.653  0.00  0.00    +0.000 C 
ATOM     35  O   UNL     1       5.819   4.311  17.922  0.00  0.00    +0.000 OA
ATOM     36  H   UNL     1       3.215   3.579  16.220  0.00  0.00    +0.000 HD
ENDBRANCH  30  32
ENDBRANCH  23  26
ENDBRANCH   4  22
TORSDOF 6
ENDMDL
MODEL 4
REMARK VINA RESULT:      -7.7      2.049      3.071
REMARK  Name = 
REMARK  8 active torsions:
REMARK  status: ('A' for Active; 'I' for Inactive)
REMARK    1  A    between atoms: C_1  and  O_2
REMARK    2  A    between atoms: O_2  and  C_3
REMARK    3  A    between atoms: C_6  and  N_7
REMARK    4  A    between atoms: C_12  and  N_13
REMARK    5  A    between atoms: C_16  and  N_17
REMARK    6  A    between atoms: C_18  and  C_20
REMARK    7  A    between atoms: C_24  and  N_25
REMARK    8  A    between atoms: C_26  and  C_27
REMARK                            x       y       z     vdW  Elec       q    Type
REMARK                         _______ _______ _______ _____ _____    ______ ____
ROOT
ATOM      1  N   UNL     1       1.604   6.417  19.687  0.00  0.00    +0.000 N 
ATOM      2  C   UNL     1       1.791   7.174  18.460  0.00  0.00    +0.000 C 
ATOM      3  C   UNL     1       2.121   8.585  18.939  0.00  0.00    +0.000 C 
ATOM      4  C   UNL     1       1.304   8.733  20.220  0.00  0.00    +0.000 C 
ATOM      5  C   UNL     1       1.354   7.314  20.829  0.00  0.00    +0.000 C 
ENDROOT
BRANCH   1  11
ATOM      6  N   UNL     1       5.256   3.597  18.874  0.00  0.00    +0.000 N 
ATOM      7  C   UNL     1       4.013   3.791  19.502  0.00  0.00    +0.000 A 
ATOM      8  N   UNL     1       3.657   2.910  20.442  0.00  0.00    +0.000 NA
ATOM      9  C   UNL     1       2.535   3.205  21.122  0.00  0.00    +0.000 A 
ATOM     10  C   UNL     1       1.785   4.342  20.911  0.00  0.00    +0.000 A 
ATOM     11  C   UNL     1       2.208   5.198  19.918  0.00  0.00    +0.000 A 
ATOM     12  N   UNL     1       3.300   4.890  19.208  0.00  0.00    +0.000 NA
ATOM     13  H   UNL     1       5.763   2.957  19.475  0.00  0.00    +0.000 HD
BRANCH   6  17
ATOM     14  C   UNL     1       7.655   6.826  17.563  0.00  0.00    +0.000 A 
ATOM     15  C   UNL     1       6.767   6.216  16.682  0.00  0.00    +0.000 A 
ATOM     16  C   UNL     1       5.964   5.167  17.121  0.00  0.00    +0.000 A 
ATOM     17  C   UNL     1       6.070   4.661  18.422  0.00  0.00    +0.000 A 
ATOM     18  C   UNL     1       6.949   5.294  19.310  0.00  0.00    +0.000 A 
ATOM     19  C   UNL     1       7.751   6.356  18.873  0.00  0.00    +0.000 A 
BRANCH  14  21
ATOM     20  C   UNL     1       8.296   9.082  17.724  0.00  0.00    +0.000 C 
ATOM     21  O   UNL     1       8.393   7.845  17.029  0.00  0.00    +0.000 OA
ENDBRANCH  14  21
ENDBRANCH   6  17
ENDBRANCH   1  11
BRANCH   4  22
ATOM     22  N   UNL     1      -0.057   9.191  19.931  0.00  0.00    +0.000 N 
ATOM     23  C   UNL     1      -0.291  10.392  19.293  0.00  0.00    +0.000 C 
ATOM     24  O   UNL     1       0.617  11.158  18.963  0.00  0.00    +0.000 OA
ATOM     25  H   UNL     1      -0.818   8.578  20.185  0.00  0.00    +0.000 HD
BRANCH  23  26
ATOM     26  C   UNL     1      -1.696  10.762  18.985  0.00  0.00    +0.000 A 
ATOM     27  C   UNL     1      -2.381  10.210  17.894  0.00  0.00    +0.000 A 
ATOM     28  C   UNL     1      -3.656  10.672  17.582  0.00  0.00    +0.000 A 
ATOM     29  C   UNL     1      -4.235  11.710  18.321  0.00  0.00    +0.000 A 
ATOM     30  C   UNL     1      -3.568  12.291  19.406  0.00  0.00    +0.000 A 
ATOM     31  C   UNL     1      -2.314  11.774  19.760  0.00  0.00    +0.000 A 
BRANCH  30  32
ATOM     32  N   UNL     1      -4.075  13.424  20.122  0.00  0.00    +0.000 N 
ATOM     33  C   UNL     1      -4.719  13.383  21.338  0.00  0.00    +0.000 C 
ATOM     34  C   UNL     1      -5.247  14.715  21.842  0.00  0.00    +0.000 C 
ATOM     35  O   UNL     1      -4.853  12.396  22.052  0.00  0.00    +0.000 OA
ATOM     36  H   UNL     1      -3.948  14.323  19.667  0.00  0.00    +0.000 HD
ENDBRANCH  30  32
ENDBRANCH  23  26
ENDBRANCH   4  22
TORSDOF 6
ENDMDL
MODEL 5
REMARK VINA RESULT:      -7.7      3.651      5.035
REMARK  Name = 
REMARK  8 active torsions:
REMARK  status: ('A' for Active; 'I' for Inactive)
REMARK    1  A    between atoms: C_1  and  O_2
REMARK    2  A    between atoms: O_2  and  C_3
REMARK    3  A    between atoms: C_6  and  N_7
REMARK    4  A    between atoms: C_12  and  N_13
REMARK    5  A    between atoms: C_16  and  N_17
REMARK    6  A    between atoms: C_18  and  C_20
REMARK    7  A    between atoms: C_24  and  N_25
REMARK    8  A    between atoms: C_26  and  C_27
REMARK                            x       y       z     vdW  Elec       q    Type
REMARK                         _______ _______ _______ _____ _____    ______ ____
ROOT
ATOM      1  N   UNL     1       1.689   8.185  19.749  0.00  0.00    +0.000 N 
ATOM      2  C   UNL     1       1.032   8.933  20.809  0.00  0.00    +0.000 C 
ATOM      3  C   UNL     1      -0.132   9.628  20.110  0.00  0.00    +0.000 C 
ATOM      4  C   UNL     1       0.411   9.927  18.714  0.00  0.00    +0.000 C 
ATOM      5  C   UNL     1       1.310   8.705  18.423  0.00  0.00    +0.000 C 
ENDROOT
BRANCH   1  11
ATOM      6  N   UNL     1       4.752   4.787  18.737  0.00  0.00    +0.000 N 
ATOM      7  C   UNL     1       3.544   5.163  19.352  0.00  0.00    +0.000 A 
ATOM      8  N   UNL     1       2.983   4.286  20.190  0.00  0.00    +0.000 NA
ATOM      9  C   UNL     1       1.913   4.731  20.870  0.00  0.00    +0.000 A 
ATOM     10  C   UNL     1       1.409   6.009  20.759  0.00  0.00    +0.000 A 
ATOM     11  C   UNL     1       2.033   6.854  19.868  0.00  0.00    +0.000 A 
ATOM     12  N   UNL     1       3.073   6.405  19.156  0.00  0.00    +0.000 NA
ATOM     13  H   UNL     1       5.098   4.004  19.281  0.00  0.00    +0.000 HD
BRANCH   6  17
ATOM     14  C   UNL     1       7.807   7.570  17.834  0.00  0.00    +0.000 A 
ATOM     15  C   UNL     1       6.608   7.598  17.128  0.00  0.00    +0.000 A 
ATOM     16  C   UNL     1       5.597   6.695  17.440  0.00  0.00    +0.000 A 
ATOM     17  C   UNL     1       5.776   5.706  18.414  0.00  0.00    +0.000 A 
ATOM     18  C   UNL     1       6.976   5.697  19.137  0.00  0.00    +0.000 A 
ATOM     19  C   UNL     1       7.992   6.612  18.831  0.00  0.00    +0.000 A 
BRANCH  14  21
ATOM     20  C   UNL     1       8.652   9.743  18.135  0.00  0.00    +0.000 C 
ATOM     21  O   UNL     1       8.730   8.501  17.447  0.00  0.00    +0.000 OA
ENDBRANCH  14  21
ENDBRANCH   6  17
ENDBRANCH   1  11
BRANCH   4  22
ATOM     22  N   UNL     1       1.136  11.199  18.688  0.00  0.00    +0.000 N 
ATOM     23  C   UNL     1       0.473  12.403  18.564  0.00  0.00    +0.000 C 
ATOM     24  O   UNL     1      -0.752  12.477  18.434  0.00  0.00    +0.000 OA
ATOM     25  H   UNL     1       2.139  11.165  18.800  0.00  0.00    +0.000 HD
BRANCH  23  26
ATOM     26  C   UNL     1       1.273  13.654  18.601  0.00  0.00    +0.000 A 
ATOM     27  C   UNL     1       0.680  14.900  18.843  0.00  0.00    +0.000 A 
ATOM     28  C   UNL     1       1.455  16.053  18.757  0.00  0.00    +0.000 A 
ATOM     29  C   UNL     1       2.803  15.977  18.389  0.00  0.00    +0.000 A 
ATOM     30  C   UNL     1       3.417  14.747  18.128  0.00  0.00    +0.000 A 
ATOM     31  C   UNL     1       2.652  13.584  18.284  0.00  0.00    +0.000 A 
BRANCH  30  32
ATOM     32  N   UNL     1       4.762  14.630  17.645  0.00  0.00    +0.000 N 
ATOM     33  C   UNL     1       5.902  14.842  18.388  0.00  0.00    +0.000 C 
ATOM     34  C   UNL     1       7.208  14.748  17.618  0.00  0.00    +0.000 C 
ATOM     35  O   UNL     1       5.951  15.044  19.595  0.00  0.00    +0.000 OA
ATOM     36  H   UNL     1       4.857  14.381  16.665  0.00  0.00    +0.000 HD
ENDBRANCH  30  32
ENDBRANCH  23  26
ENDBRANCH   4  22
TORSDOF 6
ENDMDL
MODEL 6
REMARK VINA RESULT:      -7.7      1.612      2.589
REMARK  Name = 
REMARK  8 active torsions:
REMARK  status: ('A' for Active; 'I' for Inactive)
REMARK    1  A    between atoms: C_1  and  O_2
REMARK    2  A    between atoms: O_2  and  C_3
REMARK    3  A    between atoms: C_6  and  N_7
REMARK    4  A    between atoms: C_12  and  N_13
REMARK    5  A    between atoms: C_16  and  N_17
REMARK    6  A    between atoms: C_18  and  C_20
REMARK    7  A    between atoms: C_24  and  N_25
REMARK    8  A    between atoms: C_26  and  C_27
REMARK                            x       y       z     vdW  Elec       q    Type
REMARK                         _______ _______ _______ _____ _____    ______ ____
ROOT
ATOM      1  N   UNL     1       1.918   6.557  19.021  0.00  0.00    +0.000 N 
ATOM      2  C   UNL     1       2.200   7.059  17.686  0.00  0.00    +0.000 C 
ATOM      3  C   UNL     1       2.677   8.490  17.918  0.00  0.00    +0.000 C 
ATOM      4  C   UNL     1       1.867   8.949  19.129  0.00  0.00    +0.000 C 
ATOM      5  C   UNL     1       1.756   7.665  19.979  0.00  0.00    +0.000 C 
ENDROOT
BRANCH   1  11
ATOM      6  N   UNL     1       4.723   2.871  18.310  0.00  0.00    +0.000 N 
ATOM      7  C   UNL     1       3.763   3.503  19.120  0.00  0.00    +0.000 A 
ATOM      8  N   UNL     1       3.580   3.014  20.351  0.00  0.00    +0.000 NA
ATOM      9  C   UNL     1       2.765   3.727  21.147  0.00  0.00    +0.000 A 
ATOM     10  C   UNL     1       2.157   4.905  20.767  0.00  0.00    +0.000 A 
ATOM     11  C   UNL     1       2.383   5.341  19.481  0.00  0.00    +0.000 A 
ATOM     12  N   UNL     1       3.160   4.615  18.668  0.00  0.00    +0.000 NA
ATOM     13  H   UNL     1       5.288   2.319  18.946  0.00  0.00    +0.000 HD
BRANCH   6  17
ATOM     14  C   UNL     1       7.050   4.996  15.488  0.00  0.00    +0.000 A 
ATOM     15  C   UNL     1       5.972   4.226  15.063  0.00  0.00    +0.000 A 
ATOM     16  C   UNL     1       5.196   3.544  15.995  0.00  0.00    +0.000 A 
ATOM     17  C   UNL     1       5.509   3.560  17.359  0.00  0.00    +0.000 A 
ATOM     18  C   UNL     1       6.581   4.355  17.783  0.00  0.00    +0.000 A 
ATOM     19  C   UNL     1       7.358   5.051  16.847  0.00  0.00    +0.000 A 
BRANCH  14  21
ATOM     20  C   UNL     1       7.608   5.034  13.204  0.00  0.00    +0.000 C 
ATOM     21  O   UNL     1       7.743   5.624  14.491  0.00  0.00    +0.000 OA
ENDBRANCH  14  21
ENDBRANCH   6  17
ENDBRANCH   1  11
BRANCH   4  22
ATOM     22  N   UNL     1       0.568   9.489  18.723  0.00  0.00    +0.000 N 
ATOM     23  C   UNL     1      -0.248  10.149  19.619  0.00  0.00    +0.000 C 
ATOM     24  O   UNL     1       0.047  10.291  20.808  0.00  0.00    +0.000 OA
ATOM     25  H   UNL     1       0.306   9.393  17.752  0.00  0.00    +0.000 HD
BRANCH  23  26
ATOM     26  C   UNL     1      -1.527  10.717  19.120  0.00  0.00    +0.000 A 
ATOM     27  C   UNL     1      -2.034  10.390  17.855  0.00  0.00    +0.000 A 
ATOM     28  C   UNL     1      -3.176  11.034  17.389  0.00  0.00    +0.000 A 
ATOM     29  C   UNL     1      -3.789  12.034  18.153  0.00  0.00    +0.000 A 
ATOM     30  C   UNL     1      -3.295  12.392  19.413  0.00  0.00    +0.000 A 
ATOM     31  C   UNL     1      -2.187  11.691  19.908  0.00  0.00    +0.000 A 
BRANCH  30  32
ATOM     32  N   UNL     1      -3.825  13.480  20.181  0.00  0.00    +0.000 N 
ATOM     33  C   UNL     1      -4.714  13.365  21.226  0.00  0.00    +0.000 C 
ATOM     34  C   UNL     1      -5.198  14.678  21.817  0.00  0.00    +0.000 C 
ATOM     35  O   UNL     1      -5.097  12.320  21.739  0.00  0.00    +0.000 OA
ATOM     36  H   UNL     1      -3.513  14.406  19.905  0.00  0.00    +0.000 HD
ENDBRANCH  30  32
ENDBRANCH  23  26
ENDBRANCH   4  22
TORSDOF 6
ENDMDL
MODEL 7
REMARK VINA RESULT:      -7.7      1.886      3.207
REMARK  Name = 
REMARK  8 active torsions:
REMARK  status: ('A' for Active; 'I' for Inactive)
REMARK    1  A    between atoms: C_1  and  O_2
REMARK    2  A    between atoms: O_2  and  C_3
REMARK    3  A    between atoms: C_6  and  N_7
REMARK    4  A    between atoms: C_12  and  N_13
REMARK    5  A    between atoms: C_16  and  N_17
REMARK    6  A    between atoms: C_18  and  C_20
REMARK    7  A    between atoms: C_24  and  N_25
REMARK    8  A    between atoms: C_26  and  C_27
REMARK                            x       y       z     vdW  Elec       q    Type
REMARK                         _______ _______ _______ _____ _____    ______ ____
ROOT
ATOM      1  N   UNL     1       1.838   6.429  19.359  0.00  0.00    +0.000 N 
ATOM      2  C   UNL     1       1.863   6.942  17.999  0.00  0.00    +0.000 C 
ATOM      3  C   UNL     1       2.524   8.312  18.129  0.00  0.00    +0.000 C 
ATOM      4  C   UNL     1       2.058   8.810  19.495  0.00  0.00    +0.000 C 
ATOM      5  C   UNL     1       2.009   7.517  20.338  0.00  0.00    +0.000 C 
ENDROOT
BRANCH   1  11
ATOM      6  N   UNL     1       4.481   2.727  18.233  0.00  0.00    +0.000 N 
ATOM      7  C   UNL     1       3.566   3.315  19.125  0.00  0.00    +0.000 A 
ATOM      8  N   UNL     1       3.396   2.721  20.310  0.00  0.00    +0.000 NA
ATOM      9  C   UNL     1       2.629   3.385  21.191  0.00  0.00    +0.000 A 
ATOM     10  C   UNL     1       2.057   4.614  20.939  0.00  0.00    +0.000 A 
ATOM     11  C   UNL     1       2.267   5.160  19.692  0.00  0.00    +0.000 A 
ATOM     12  N   UNL     1       2.995   4.485  18.794  0.00  0.00    +0.000 NA
ATOM     13  H   UNL     1       5.041   2.099  18.799  0.00  0.00    +0.000 HD
BRANCH   6  17
ATOM     14  C   UNL     1       6.866   4.899  15.497  0.00  0.00    +0.000 A 
ATOM     15  C   UNL     1       7.139   4.960  16.860  0.00  0.00    +0.000 A 
ATOM     16  C   UNL     1       6.366   4.229  17.757  0.00  0.00    +0.000 A 
ATOM     17  C   UNL     1       5.269   3.473  17.328  0.00  0.00    +0.000 A 
ATOM     18  C   UNL     1       5.013   3.398  15.953  0.00  0.00    +0.000 A 
ATOM     19  C   UNL     1       5.797   4.125  15.047  0.00  0.00    +0.000 A 
BRANCH  14  21
ATOM     20  C   UNL     1       7.727   5.264  13.339  0.00  0.00    +0.000 C 
ATOM     21  O   UNL     1       7.687   5.654  14.707  0.00  0.00    +0.000 OA
ENDBRANCH  14  21
ENDBRANCH   6  17
ENDBRANCH   1  11
BRANCH   4  22
ATOM     22  N   UNL     1       0.763   9.487  19.399  0.00  0.00    +0.000 N 
ATOM     23  C   UNL     1       0.347  10.386  20.360  0.00  0.00    +0.000 C 
ATOM     24  O   UNL     1       1.017  10.643  21.364  0.00  0.00    +0.000 OA
ATOM     25  H   UNL     1       0.198   9.299  18.582  0.00  0.00    +0.000 HD
BRANCH  23  26
ATOM     26  C   UNL     1      -0.954  11.074  20.164  0.00  0.00    +0.000 A 
ATOM     27  C   UNL     1      -1.636  11.026  18.941  0.00  0.00    +0.000 A 
ATOM     28  C   UNL     1      -2.794  11.779  18.774  0.00  0.00    +0.000 A 
ATOM     29  C   UNL     1      -3.254  12.612  19.801  0.00  0.00    +0.000 A 
ATOM     30  C   UNL     1      -2.585  12.690  21.028  0.00  0.00    +0.000 A 
ATOM     31  C   UNL     1      -1.459  11.877  21.216  0.00  0.00    +0.000 A 
BRANCH  30  32
ATOM     32  N   UNL     1      -2.957  13.608  22.065  0.00  0.00    +0.000 N 
ATOM     33  C   UNL     1      -3.843  13.347  23.085  0.00  0.00    +0.000 C 
ATOM     34  C   UNL     1      -4.142  14.519  24.005  0.00  0.00    +0.000 C 
ATOM     35  O   UNL     1      -4.359  12.264  23.337  0.00  0.00    +0.000 OA
ATOM     36  H   UNL     1      -2.526  14.526  22.015  0.00  0.00    +0.000 HD
ENDBRANCH  30  32
ENDBRANCH  23  26
ENDBRANCH   4  22
TORSDOF 6
ENDMDL
MODEL 8
REMARK VINA RESULT:      -7.6      6.297      8.439
REMARK  Name = 
REMARK  8 active torsions:
REMARK  status: ('A' for Active; 'I' for Inactive)
REMARK    1  A    between atoms: C_1  and  O_2
REMARK    2  A    between atoms: O_2  and  C_3
REMARK    3  A    between atoms: C_6  and  N_7
REMARK    4  A    between atoms: C_12  and  N_13
REMARK    5  A    between atoms: C_16  and  N_17
REMARK    6  A    between atoms: C_18  and  C_20
REMARK    7  A    between atoms: C_24  and  N_25
REMARK    8  A    between atoms: C_26  and  C_27
REMARK                            x       y       z     vdW  Elec       q    Type
REMARK                         _______ _______ _______ _____ _____    ______ ____
ROOT
ATOM      1  N   UNL     1       5.263  15.465  18.898  0.00  0.00    +0.000 N 
ATOM      2  C   UNL     1       4.445  15.865  17.765  0.00  0.00    +0.000 C 
ATOM      3  C   UNL     1       3.128  16.312  18.394  0.00  0.00    +0.000 C 
ATOM      4  C   UNL     1       2.975  15.392  19.604  0.00  0.00    +0.000 C 
ATOM      5  C   UNL     1       4.431  15.210  20.087  0.00  0.00    +0.000 C 
ENDROOT
BRANCH   1  11
ATOM      6  N   UNL     1       9.693  14.329  19.917  0.00  0.00    +0.000 N 
ATOM      7  C   UNL     1       8.760  15.331  19.597  0.00  0.00    +0.000 A 
ATOM      8  N   UNL     1       9.241  16.529  19.249  0.00  0.00    +0.000 NA
ATOM      9  C   UNL     1       8.334  17.417  18.810  0.00  0.00    +0.000 A 
ATOM     10  C   UNL     1       6.988  17.143  18.687  0.00  0.00    +0.000 A 
ATOM     11  C   UNL     1       6.564  15.892  19.075  0.00  0.00    +0.000 A 
ATOM     12  N   UNL     1       7.455  15.016  19.553  0.00  0.00    +0.000 NA
ATOM     13  H   UNL     1      10.578  14.657  19.547  0.00  0.00    +0.000 HD
BRANCH   6  17
ATOM     14  C   UNL     1       9.123  10.211  19.130  0.00  0.00    +0.000 A 
ATOM     15  C   UNL     1       9.115  11.128  18.084  0.00  0.00    +0.000 A 
ATOM     16  C   UNL     1       9.323  12.479  18.342  0.00  0.00    +0.000 A 
ATOM     17  C   UNL     1       9.480  12.958  19.649  0.00  0.00    +0.000 A 
ATOM     18  C   UNL     1       9.509  12.027  20.695  0.00  0.00    +0.000 A 
ATOM     19  C   UNL     1       9.310  10.665  20.436  0.00  0.00    +0.000 A 
BRANCH  14  21
ATOM     20  C   UNL     1       7.923   8.726  17.758  0.00  0.00    +0.000 C 
ATOM     21  O   UNL     1       8.911   8.911  18.765  0.00  0.00    +0.000 OA
ENDBRANCH  14  21
ENDBRANCH   6  17
ENDBRANCH   1  11
BRANCH   4  22
ATOM     22  N   UNL     1       2.326  14.133  19.234  0.00  0.00    +0.000 N 
ATOM     23  C   UNL     1       0.954  13.992  19.274  0.00  0.00    +0.000 C 
ATOM     24  O   UNL     1       0.203  14.894  19.653  0.00  0.00    +0.000 OA
ATOM     25  H   UNL     1       2.919  13.380  18.913  0.00  0.00    +0.000 HD
BRANCH  23  26
ATOM     26  C   UNL     1       0.366  12.702  18.830  0.00  0.00    +0.000 A 
ATOM     27  C   UNL     1      -0.936  12.622  18.319  0.00  0.00    +0.000 A 
ATOM     28  C   UNL     1      -1.479  11.376  18.023  0.00  0.00    +0.000 A 
ATOM     29  C   UNL     1      -0.752  10.207  18.273  0.00  0.00    +0.000 A 
ATOM     30  C   UNL     1       0.545  10.256  18.797  0.00  0.00    +0.000 A 
ATOM     31  C   UNL     1       1.114  11.515  19.028  0.00  0.00    +0.000 A 
BRANCH  30  32
ATOM     32  N   UNL     1       1.284   9.084  19.169  0.00  0.00    +0.000 N 
ATOM     33  C   UNL     1       2.129   8.374  18.346  0.00  0.00    +0.000 C 
ATOM     34  C   UNL     1       2.720   7.113  18.951  0.00  0.00    +0.000 C 
ATOM     35  O   UNL     1       2.474   8.694  17.214  0.00  0.00    +0.000 OA
ATOM     36  H   UNL     1       1.147   8.763  20.122  0.00  0.00    +0.000 HD
ENDBRANCH  30  32
ENDBRANCH  23  26
ENDBRANCH   4  22
TORSDOF 6
ENDMDL
MODEL 9
REMARK VINA RESULT:      -7.5      2.402      9.719
REMARK  Name = 
REMARK  8 active torsions:
REMARK  status: ('A' for Active; 'I' for Inactive)
REMARK    1  A    between atoms: C_1  and  O_2
REMARK    2  A    between atoms: O_2  and  C_3
REMARK    3  A    between atoms: C_6  and  N_7
REMARK    4  A    between atoms: C_12  and  N_13
REMARK    5  A    between atoms: C_16  and  N_17
REMARK    6  A    between atoms: C_18  and  C_20
REMARK    7  A    between atoms: C_24  and  N_25
REMARK    8  A    between atoms: C_26  and  C_27
REMARK                            x       y       z     vdW  Elec       q    Type
REMARK                         _______ _______ _______ _____ _____    ______ ____
ROOT
ATOM      1  N   UNL     1       1.444   9.064  20.041  0.00  0.00    +0.000 N 
ATOM      2  C   UNL     1       1.718   9.529  18.691  0.00  0.00    +0.000 C 
ATOM      3  C   UNL     1       1.371   8.335  17.807  0.00  0.00    +0.000 C 
ATOM      4  C   UNL     1       1.749   7.129  18.663  0.00  0.00    +0.000 C 
ATOM      5  C   UNL     1       1.392   7.592  20.092  0.00  0.00    +0.000 C 
ENDROOT
BRANCH   1  11
ATOM      6  N   UNL     1      -2.011  12.146  20.757  0.00  0.00    +0.000 N 
ATOM      7  C   UNL     1      -1.004  11.332  21.305  0.00  0.00    +0.000 A 
ATOM      8  N   UNL     1      -1.023  11.138  22.627  0.00  0.00    +0.000 NA
ATOM      9  C   UNL     1      -0.140  10.242  23.098  0.00  0.00    +0.000 A 
ATOM     10  C   UNL     1       0.730   9.528  22.301  0.00  0.00    +0.000 A 
ATOM     11  C   UNL     1       0.700   9.789  20.950  0.00  0.00    +0.000 A 
ATOM     12  N   UNL     1      -0.148  10.711  20.478  0.00  0.00    +0.000 NA
ATOM     13  H   UNL     1      -2.728  12.205  21.473  0.00  0.00    +0.000 HD
BRANCH   6  17
ATOM     14  C   UNL     1      -3.680  11.470  16.929  0.00  0.00    +0.000 A 
ATOM     15  C   UNL     1      -2.301  11.415  17.107  0.00  0.00    +0.000 A 
ATOM     16  C   UNL     1      -1.756  11.617  18.372  0.00  0.00    +0.000 A 
ATOM     17  C   UNL     1      -2.560  11.941  19.471  0.00  0.00    +0.000 A 
ATOM     18  C   UNL     1      -3.948  11.973  19.289  0.00  0.00    +0.000 A 
ATOM     19  C   UNL     1      -4.500  11.759  18.019  0.00  0.00    +0.000 A 
BRANCH  14  21
ATOM     20  C   UNL     1      -3.273  10.406  14.872  0.00  0.00    +0.000 C 
ATOM     21  O   UNL     1      -4.108  11.255  15.649  0.00  0.00    +0.000 OA
ENDBRANCH  14  21
ENDBRANCH   6  17
ENDBRANCH   1  11
BRANCH   4  22
ATOM     22  N   UNL     1       3.164   6.787  18.502  0.00  0.00    +0.000 N 
ATOM     23  C   UNL     1       3.556   5.557  18.013  0.00  0.00    +0.000 C 
ATOM     24  O   UNL     1       2.750   4.671  17.719  0.00  0.00    +0.000 OA
ATOM     25  H   UNL     1       3.844   7.499  18.729  0.00  0.00    +0.000 HD
BRANCH  23  26
ATOM     26  C   UNL     1       5.008   5.305  17.825  0.00  0.00    +0.000 A 
ATOM     27  C   UNL     1       5.866   5.101  18.914  0.00  0.00    +0.000 A 
ATOM     28  C   UNL     1       7.235   4.981  18.692  0.00  0.00    +0.000 A 
ATOM     29  C   UNL     1       7.758   5.106  17.399  0.00  0.00    +0.000 A 
ATOM     30  C   UNL     1       6.925   5.326  16.296  0.00  0.00    +0.000 A 
ATOM     31  C   UNL     1       5.542   5.375  16.516  0.00  0.00    +0.000 A 
BRANCH  30  32
ATOM     32  N   UNL     1       7.425   5.567  14.974  0.00  0.00    +0.000 N 
ATOM     33  C   UNL     1       7.185   4.780  13.870  0.00  0.00    +0.000 C 
ATOM     34  C   UNL     1       7.908   5.199  12.602  0.00  0.00    +0.000 C 
ATOM     35  O   UNL     1       6.419   3.825  13.815  0.00  0.00    +0.000 OA
ATOM     36  H   UNL     1       8.013   6.388  14.870  0.00  0.00    +0.000 HD
ENDBRANCH  30  32
ENDBRANCH  23  26
ENDBRANCH   4  22
TORSDOF 6
ENDMDL
