MODEL 1
REMARK VINA RESULT:      -8.7      0.000      0.000
REMARK  Name = 
REMARK  3 active torsions:
REMARK  status: ('A' for Active; 'I' for Inactive)
REMARK    1  A    between atoms: N_5  and  N_6
REMARK    2  A    between atoms: C_15  and  C_16
REMARK    3  A    between atoms: C_24  and  C_25
REMARK                            x       y       z     vdW  Elec       q    Type
REMARK                         _______ _______ _______ _____ _____    ______ ____
ROOT
ATOM      1  O   UNL     1       0.021   9.334  21.117  0.00  0.00    +0.000 OA
ATOM      2  C   UNL     1       0.768   9.311  20.156  0.00  0.00    +0.000 C 
ATOM      3  N   UNL     1       1.587   8.248  19.846  0.00  0.00    +0.000 NA
ATOM      4  C   UNL     1       2.242   8.402  18.743  0.00  0.00    +0.000 C 
ATOM      5  N   UNL     1       3.108   7.506  18.166  0.00  0.00    +0.000 N 
ATOM      6  S   UNL     1       1.961   9.899  17.886  0.00  0.00    +0.000 S 
ATOM      7  C   UNL     1       0.887  10.403  19.145  0.00  0.00    +0.000 C 
ATOM      8  C   UNL     1       0.306  11.610  19.167  0.00  0.00    +0.000 C 
ATOM      9  H   UNL     1       3.529   7.763  17.278  0.00  0.00    +0.000 HD
ENDROOT
BRANCH   5  10
ATOM     10  N   UNL     1       3.158   6.161  18.514  0.00  0.00    +0.000 N 
ATOM     11  C   UNL     1       1.895   5.541  18.931  0.00  0.00    +0.000 C 
ATOM     12  C   UNL     1       1.893   4.054  18.797  0.00  0.00    +0.000 A 
ATOM     13  C   UNL     1       0.698   3.335  18.957  0.00  0.00    +0.000 A 
ATOM     14  C   UNL     1       0.706   1.945  18.884  0.00  0.00    +0.000 A 
ATOM     15  C   UNL     1       1.904   1.273  18.665  0.00  0.00    +0.000 A 
ATOM     16  C   UNL     1       3.093   1.992  18.514  0.00  0.00    +0.000 A 
ATOM     17  C   UNL     1       3.097   3.387  18.576  0.00  0.00    +0.000 A 
ATOM     18  N   UNL     1       4.310   4.070  18.431  0.00  0.00    +0.000 NA
ATOM     19  C   UNL     1       4.312   5.375  18.408  0.00  0.00    +0.000 C 
BRANCH  19  20
ATOM     20  C   UNL     1       5.671   6.008  18.263  0.00  0.00    +0.000 A 
ATOM     21  C   UNL     1       6.706   5.624  19.129  0.00  0.00    +0.000 A 
ATOM     22  C   UNL     1       7.953   6.253  19.058  0.00  0.00    +0.000 A 
ATOM     23  C   UNL     1       8.171   7.264  18.124  0.00  0.00    +0.000 A 
ATOM     24  C   UNL     1       7.146   7.648  17.260  0.00  0.00    +0.000 A 
ATOM     25  C   UNL     1       5.897   7.032  17.336  0.00  0.00    +0.000 A 
ENDBRANCH  19  20
ENDBRANCH   5  10
BRANCH   8  26
ATOM     26  C   UNL     1      -0.534  12.128  20.248  0.00  0.00    +0.000 A 
ATOM     27  C   UNL     1      -1.928  12.130  20.103  0.00  0.00    +0.000 A 
ATOM     28  C   UNL     1      -2.744  12.566  21.150  0.00  0.00    +0.000 A 
ATOM     29  C   UNL     1      -2.164  13.000  22.340  0.00  0.00    +0.000 A 
ATOM     30 BR   UNL     1      -3.268  13.549  23.774  0.00  0.00    +0.000 Br
ATOM     31  C   UNL     1      -0.778  13.023  22.486  0.00  0.00    +0.000 A 
ATOM     32  C   UNL     1       0.038  12.588  21.437  0.00  0.00    +0.000 A 
ENDBRANCH   8  26
TORSDOF 3
ENDMDL
MODEL 2
REMARK VINA RESULT:      -8.5      0.233      1.244
REMARK  Name = 
REMARK  3 active torsions:
REMARK  status: ('A' for Active; 'I' for Inactive)
REMARK    1  A    between atoms: N_5  and  N_6
REMARK    2  A    between atoms: C_15  and  C_16
REMARK    3  A    between atoms: C_24  and  C_25
REMARK                            x       y       z     vdW  Elec       q    Type
REMARK                         _______ _______ _______ _____ _____    ______ ____
ROOT
ATOM      1  O   UNL     1       0.175   9.386  21.249  0.00  0.00    +0.000 OA
ATOM      2  C   UNL     1       0.850   9.324  20.238  0.00  0.00    +0.000 C 
ATOM      3  N   UNL     1       1.641   8.245  19.908  0.00  0.00    +0.000 NA
ATOM      4  C   UNL     1       2.214   8.354  18.756  0.00  0.00    +0.000 C 
ATOM      5  N   UNL     1       3.032   7.432  18.151  0.00  0.00    +0.000 N 
ATOM      6  S   UNL     1       1.877   9.820  17.866  0.00  0.00    +0.000 S 
ATOM      7  C   UNL     1       0.900  10.377  19.181  0.00  0.00    +0.000 C 
ATOM      8  C   UNL     1       0.326  11.587  19.200  0.00  0.00    +0.000 C 
ATOM      9  H   UNL     1       3.388   7.653  17.225  0.00  0.00    +0.000 HD
ENDROOT
BRANCH   5  10
ATOM     10  N   UNL     1       3.102   6.100  18.543  0.00  0.00    +0.000 N 
ATOM     11  C   UNL     1       1.840   5.460  18.930  0.00  0.00    +0.000 C 
ATOM     12  C   UNL     1       1.881   3.970  18.844  0.00  0.00    +0.000 A 
ATOM     13  C   UNL     1       0.700   3.224  18.980  0.00  0.00    +0.000 A 
ATOM     14  C   UNL     1       0.746   1.834  18.953  0.00  0.00    +0.000 A 
ATOM     15  C   UNL     1       1.968   1.187  18.802  0.00  0.00    +0.000 A 
ATOM     16  C   UNL     1       3.144   1.933  18.675  0.00  0.00    +0.000 A 
ATOM     17  C   UNL     1       3.109   3.328  18.692  0.00  0.00    +0.000 A 
ATOM     18  N   UNL     1       4.310   4.039  18.572  0.00  0.00    +0.000 NA
ATOM     19  C   UNL     1       4.279   5.342  18.507  0.00  0.00    +0.000 C 
BRANCH  19  20
ATOM     20  C   UNL     1       5.627   6.007  18.396  0.00  0.00    +0.000 A 
ATOM     21  C   UNL     1       5.840   6.970  17.399  0.00  0.00    +0.000 A 
ATOM     22  C   UNL     1       7.104   7.543  17.234  0.00  0.00    +0.000 A 
ATOM     23  C   UNL     1       8.157   7.161  18.062  0.00  0.00    +0.000 A 
ATOM     24  C   UNL     1       7.950   6.205  19.056  0.00  0.00    +0.000 A 
ATOM     25  C   UNL     1       6.693   5.621  19.216  0.00  0.00    +0.000 A 
ENDBRANCH  19  20
ENDBRANCH   5  10
BRANCH   8  26
ATOM     26  C   UNL     1      -0.432  12.150  20.320  0.00  0.00    +0.000 A 
ATOM     27  C   UNL     1       0.244  12.823  21.345  0.00  0.00    +0.000 A 
ATOM     28  C   UNL     1      -0.472  13.416  22.389  0.00  0.00    +0.000 A 
ATOM     29  C   UNL     1      -1.863  13.333  22.405  0.00  0.00    +0.000 A 
ATOM     30 BR   UNL     1      -2.835  14.172  23.792  0.00  0.00    +0.000 Br
ATOM     31  C   UNL     1      -2.543  12.646  21.400  0.00  0.00    +0.000 A 
ATOM     32  C   UNL     1      -1.825  12.051  20.357  0.00  0.00    +0.000 A 
ENDBRANCH   8  26
TORSDOF 3
ENDMDL
MODEL 3
REMARK VINA RESULT:      -8.1      3.329      4.946
REMARK  Name = 
REMARK  3 active torsions:
REMARK  status: ('A' for Active; 'I' for Inactive)
REMARK    1  A    between atoms: N_5  and  N_6
REMARK    2  A    between atoms: C_15  and  C_16
REMARK    3  A    between atoms: C_24  and  C_25
REMARK                            x       y       z     vdW  Elec       q    Type
REMARK                         _______ _______ _______ _____ _____    ______ ____
ROOT
ATOM      1  O   UNL     1       2.797   8.669  17.145  0.00  0.00    +0.000 OA
ATOM      2  C   UNL     1       3.079   7.600  17.653  0.00  0.00    +0.000 C 
ATOM      3  N   UNL     1       3.815   6.621  17.023  0.00  0.00    +0.000 NA
ATOM      4  C   UNL     1       4.063   5.596  17.770  0.00  0.00    +0.000 C 
ATOM      5  N   UNL     1       4.793   4.485  17.429  0.00  0.00    +0.000 N 
ATOM      6  S   UNL     1       3.425   5.658  19.395  0.00  0.00    +0.000 S 
ATOM      7  C   UNL     1       2.711   7.195  19.042  0.00  0.00    +0.000 C 
ATOM      8  C   UNL     1       1.937   7.856  19.913  0.00  0.00    +0.000 C 
ATOM      9  H   UNL     1       4.922   3.769  18.140  0.00  0.00    +0.000 HD
ENDROOT
BRANCH   5  10
ATOM     10  N   UNL     1       5.654   4.442  16.339  0.00  0.00    +0.000 N 
ATOM     11  C   UNL     1       5.303   3.512  15.259  0.00  0.00    +0.000 C 
ATOM     12  C   UNL     1       5.932   3.861  13.950  0.00  0.00    +0.000 A 
ATOM     13  C   UNL     1       5.534   3.197  12.779  0.00  0.00    +0.000 A 
ATOM     14  C   UNL     1       6.157   3.484  11.569  0.00  0.00    +0.000 A 
ATOM     15  C   UNL     1       7.183   4.423  11.527  0.00  0.00    +0.000 A 
ATOM     16  C   UNL     1       7.582   5.076  12.697  0.00  0.00    +0.000 A 
ATOM     17  C   UNL     1       6.959   4.803  13.915  0.00  0.00    +0.000 A 
ATOM     18  N   UNL     1       7.394   5.470  15.066  0.00  0.00    +0.000 NA
ATOM     19  C   UNL     1       6.766   5.281  16.194  0.00  0.00    +0.000 C 
BRANCH  19  20
ATOM     20  C   UNL     1       7.327   6.035  17.371  0.00  0.00    +0.000 A 
ATOM     21  C   UNL     1       7.567   7.412  17.256  0.00  0.00    +0.000 A 
ATOM     22  C   UNL     1       8.155   8.114  18.313  0.00  0.00    +0.000 A 
ATOM     23  C   UNL     1       8.502   7.447  19.486  0.00  0.00    +0.000 A 
ATOM     24  C   UNL     1       8.263   6.078  19.606  0.00  0.00    +0.000 A 
ATOM     25  C   UNL     1       7.688   5.372  18.549  0.00  0.00    +0.000 A 
ENDBRANCH  19  20
ENDBRANCH   5  10
BRANCH   8  26
ATOM     26  C   UNL     1       1.231   9.109  19.640  0.00  0.00    +0.000 A 
ATOM     27  C   UNL     1       1.541  10.256  20.382  0.00  0.00    +0.000 A 
ATOM     28  C   UNL     1       0.918  11.472  20.092  0.00  0.00    +0.000 A 
ATOM     29  C   UNL     1      -0.014  11.540  19.059  0.00  0.00    +0.000 A 
ATOM     30 BR   UNL     1      -0.826  13.194  18.636  0.00  0.00    +0.000 Br
ATOM     31  C   UNL     1      -0.346  10.399  18.329  0.00  0.00    +0.000 A 
ATOM     32  C   UNL     1       0.277   9.181  18.621  0.00  0.00    +0.000 A 
ENDBRANCH   8  26
TORSDOF 3
ENDMDL
MODEL 4
REMARK VINA RESULT:      -7.8      1.359      1.615
REMARK  Name = 
REMARK  3 active torsions:
REMARK  status: ('A' for Active; 'I' for Inactive)
REMARK    1  A    between atoms: N_5  and  N_6
REMARK    2  A    between atoms: C_15  and  C_16
REMARK    3  A    between atoms: C_24  and  C_25
REMARK                            x       y       z     vdW  Elec       q    Type
REMARK                         _______ _______ _______ _____ _____    ______ ____
ROOT
ATOM      1  O   UNL     1       0.390   9.636  21.416  0.00  0.00    +0.000 OA
ATOM      2  C   UNL     1       0.936   9.433  20.347  0.00  0.00    +0.000 C 
ATOM      3  N   UNL     1       1.762   8.358  20.098  0.00  0.00    +0.000 NA
ATOM      4  C   UNL     1       2.176   8.294  18.876  0.00  0.00    +0.000 C 
ATOM      5  N   UNL     1       2.980   7.327  18.328  0.00  0.00    +0.000 N 
ATOM      6  S   UNL     1       1.616   9.559  17.808  0.00  0.00    +0.000 S 
ATOM      7  C   UNL     1       0.771  10.285  19.132  0.00  0.00    +0.000 C 
ATOM      8  C   UNL     1       0.111  11.446  19.027  0.00  0.00    +0.000 C 
ATOM      9  H   UNL     1       3.200   7.400  17.338  0.00  0.00    +0.000 HD
ENDROOT
BRANCH   5  10
ATOM     10  N   UNL     1       3.203   6.091  18.925  0.00  0.00    +0.000 N 
ATOM     11  C   UNL     1       2.412   5.785  20.123  0.00  0.00    +0.000 C 
ATOM     12  C   UNL     1       2.309   4.323  20.406  0.00  0.00    +0.000 A 
ATOM     13  C   UNL     1       1.422   3.858  21.390  0.00  0.00    +0.000 A 
ATOM     14  C   UNL     1       1.365   2.502  21.692  0.00  0.00    +0.000 A 
ATOM     15  C   UNL     1       2.198   1.610  21.024  0.00  0.00    +0.000 A 
ATOM     16  C   UNL     1       3.087   2.078  20.051  0.00  0.00    +0.000 A 
ATOM     17  C   UNL     1       3.147   3.436  19.733  0.00  0.00    +0.000 A 
ATOM     18  N   UNL     1       4.058   3.866  18.760  0.00  0.00    +0.000 NA
ATOM     19  C   UNL     1       4.066   5.120  18.400  0.00  0.00    +0.000 C 
BRANCH  19  20
ATOM     20  C   UNL     1       5.095   5.478  17.359  0.00  0.00    +0.000 A 
ATOM     21  C   UNL     1       4.955   4.985  16.054  0.00  0.00    +0.000 A 
ATOM     22  C   UNL     1       5.937   5.246  15.094  0.00  0.00    +0.000 A 
ATOM     23  C   UNL     1       7.059   6.000  15.432  0.00  0.00    +0.000 A 
ATOM     24  C   UNL     1       7.203   6.494  16.728  0.00  0.00    +0.000 A 
ATOM     25  C   UNL     1       6.231   6.225  17.693  0.00  0.00    +0.000 A 
ENDBRANCH  19  20
ENDBRANCH   5  10
BRANCH   8  26
ATOM     26  C   UNL     1      -0.542  12.154  20.129  0.00  0.00    +0.000 A 
ATOM     27  C   UNL     1      -1.920  12.007  20.328  0.00  0.00    +0.000 A 
ATOM     28  C   UNL     1      -2.546  12.630  21.411  0.00  0.00    +0.000 A 
ATOM     29  C   UNL     1      -1.791  13.400  22.293  0.00  0.00    +0.000 A 
ATOM     30 BR   UNL     1      -2.627  14.207  23.784  0.00  0.00    +0.000 Br
ATOM     31  C   UNL     1      -0.422  13.570  22.091  0.00  0.00    +0.000 A 
ATOM     32  C   UNL     1       0.203  12.948  21.006  0.00  0.00    +0.000 A 
ENDBRANCH   8  26
TORSDOF 3
ENDMDL
MODEL 5
REMARK VINA RESULT:      -7.7      3.683      9.030
REMARK  Name = 
REMARK  3 active torsions:
REMARK  status: ('A' for Active; 'I' for Inactive)
REMARK    1  A    between atoms: N_5  and  N_6
REMARK    2  A    between atoms: C_15  and  C_16
REMARK    3  A    between atoms: C_24  and  C_25
REMARK                            x       y       z     vdW  Elec       q    Type
REMARK                         _______ _______ _______ _____ _____    ______ ____
ROOT
ATOM      1  O   UNL     1       1.341   8.043  20.501  0.00  0.00    +0.000 OA
ATOM      2  C   UNL     1       1.350   8.973  19.715  0.00  0.00    +0.000 C 
ATOM      3  N   UNL     1       0.667  10.153  19.914  0.00  0.00    +0.000 NA
ATOM      4  C   UNL     1       0.874  11.034  18.992  0.00  0.00    +0.000 C 
ATOM      5  N   UNL     1       0.357  12.304  18.935  0.00  0.00    +0.000 N 
ATOM      6  S   UNL     1       1.956  10.559  17.705  0.00  0.00    +0.000 S 
ATOM      7  C   UNL     1       2.126   9.002  18.440  0.00  0.00    +0.000 C 
ATOM      8  C   UNL     1       2.836   8.009  17.888  0.00  0.00    +0.000 C 
ATOM      9  H   UNL     1       0.635  12.892  18.154  0.00  0.00    +0.000 HD
ENDROOT
BRANCH   5  10
ATOM     10  N   UNL     1      -0.205  12.950  20.031  0.00  0.00    +0.000 N 
ATOM     11  C   UNL     1      -1.605  12.634  20.334  0.00  0.00    +0.000 C 
ATOM     12  C   UNL     1      -1.986  12.931  21.747  0.00  0.00    +0.000 A 
ATOM     13  C   UNL     1      -3.222  12.495  22.249  0.00  0.00    +0.000 A 
ATOM     14  C   UNL     1      -3.600  12.818  23.549  0.00  0.00    +0.000 A 
ATOM     15  C   UNL     1      -2.752  13.583  24.343  0.00  0.00    +0.000 A 
ATOM     16  C   UNL     1      -1.526  14.023  23.837  0.00  0.00    +0.000 A 
ATOM     17  C   UNL     1      -1.132  13.698  22.538  0.00  0.00    +0.000 A 
ATOM     18  N   UNL     1       0.100  14.166  22.064  0.00  0.00    +0.000 NA
ATOM     19  C   UNL     1       0.511  13.802  20.881  0.00  0.00    +0.000 C 
BRANCH  19  20
ATOM     20  C   UNL     1       1.841  14.375  20.464  0.00  0.00    +0.000 A 
ATOM     21  C   UNL     1       3.012  13.924  21.090  0.00  0.00    +0.000 A 
ATOM     22  C   UNL     1       4.247  14.496  20.768  0.00  0.00    +0.000 A 
ATOM     23  C   UNL     1       4.317  15.517  19.821  0.00  0.00    +0.000 A 
ATOM     24  C   UNL     1       3.155  15.967  19.195  0.00  0.00    +0.000 A 
ATOM     25  C   UNL     1       1.920  15.408  19.522  0.00  0.00    +0.000 A 
ENDBRANCH  19  20
ENDBRANCH   5  10
BRANCH   8  26
ATOM     26  C   UNL     1       2.941   6.647  18.412  0.00  0.00    +0.000 A 
ATOM     27  C   UNL     1       1.964   5.699  18.081  0.00  0.00    +0.000 A 
ATOM     28  C   UNL     1       2.083   4.380  18.527  0.00  0.00    +0.000 A 
ATOM     29  C   UNL     1       3.179   4.012  19.304  0.00  0.00    +0.000 A 
ATOM     30 BR   UNL     1       3.364   2.217  19.871  0.00  0.00    +0.000 Br
ATOM     31  C   UNL     1       4.145   4.952  19.657  0.00  0.00    +0.000 A 
ATOM     32  C   UNL     1       4.025   6.273  19.212  0.00  0.00    +0.000 A 
ENDBRANCH   8  26
TORSDOF 3
ENDMDL
MODEL 6
REMARK VINA RESULT:      -7.7      4.042      9.442
REMARK  Name = 
REMARK  3 active torsions:
REMARK  status: ('A' for Active; 'I' for Inactive)
REMARK    1  A    between atoms: N_5  and  N_6
REMARK    2  A    between atoms: C_15  and  C_16
REMARK    3  A    between atoms: C_24  and  C_25
REMARK                            x       y       z     vdW  Elec       q    Type
REMARK                         _______ _______ _______ _____ _____    ______ ____
ROOT
ATOM      1  O   UNL     1       2.610   7.809  16.810  0.00  0.00    +0.000 OA
ATOM      2  C   UNL     1       2.199   8.076  17.924  0.00  0.00    +0.000 C 
ATOM      3  N   UNL     1       1.261   9.051  18.183  0.00  0.00    +0.000 NA
ATOM      4  C   UNL     1       0.911   9.118  19.425  0.00  0.00    +0.000 C 
ATOM      5  N   UNL     1      -0.018   9.965  19.976  0.00  0.00    +0.000 N 
ATOM      6  S   UNL     1       1.685   7.981  20.503  0.00  0.00    +0.000 S 
ATOM      7  C   UNL     1       2.610   7.370  19.174  0.00  0.00    +0.000 C 
ATOM      8  C   UNL     1       3.553   6.429  19.314  0.00  0.00    +0.000 C 
ATOM      9  H   UNL     1      -0.203   9.879  20.972  0.00  0.00    +0.000 HD
ENDROOT
BRANCH   5  10
ATOM     10  N   UNL     1      -0.962  10.655  19.224  0.00  0.00    +0.000 N 
ATOM     11  C   UNL     1      -1.130  10.232  17.829  0.00  0.00    +0.000 C 
ATOM     12  C   UNL     1      -2.447  10.626  17.246  0.00  0.00    +0.000 A 
ATOM     13  C   UNL     1      -2.842  10.120  15.997  0.00  0.00    +0.000 A 
ATOM     14  C   UNL     1      -4.045  10.528  15.430  0.00  0.00    +0.000 A 
ATOM     15  C   UNL     1      -4.847  11.447  16.099  0.00  0.00    +0.000 A 
ATOM     16  C   UNL     1      -4.446  11.954  17.338  0.00  0.00    +0.000 A 
ATOM     17  C   UNL     1      -3.246  11.546  17.922  0.00  0.00    +0.000 A 
ATOM     18  N   UNL     1      -2.874  12.086  19.159  0.00  0.00    +0.000 NA
ATOM     19  C   UNL     1      -1.794  11.652  19.749  0.00  0.00    +0.000 C 
BRANCH  19  20
ATOM     20  C   UNL     1      -1.479  12.311  21.067  0.00  0.00    +0.000 A 
ATOM     21  C   UNL     1      -2.224  11.967  22.205  0.00  0.00    +0.000 A 
ATOM     22  C   UNL     1      -1.994  12.621  23.419  0.00  0.00    +0.000 A 
ATOM     23  C   UNL     1      -1.022  13.615  23.503  0.00  0.00    +0.000 A 
ATOM     24  C   UNL     1      -0.277  13.959  22.375  0.00  0.00    +0.000 A 
ATOM     25  C   UNL     1      -0.512  13.318  21.158  0.00  0.00    +0.000 A 
ENDBRANCH  19  20
ENDBRANCH   5  10
BRANCH   8  26
ATOM     26  C   UNL     1       4.429   5.941  18.248  0.00  0.00    +0.000 A 
ATOM     27  C   UNL     1       4.060   4.810  17.509  0.00  0.00    +0.000 A 
ATOM     28  C   UNL     1       4.858   4.369  16.450  0.00  0.00    +0.000 A 
ATOM     29  C   UNL     1       6.025   5.060  16.133  0.00  0.00    +0.000 A 
ATOM     30 BR   UNL     1       7.083   4.491  14.673  0.00  0.00    +0.000 Br
ATOM     31  C   UNL     1       6.413   6.174  16.876  0.00  0.00    +0.000 A 
ATOM     32  C   UNL     1       5.615   6.614  17.937  0.00  0.00    +0.000 A 
ENDBRANCH   8  26
TORSDOF 3
ENDMDL
MODEL 7
REMARK VINA RESULT:      -7.6      3.656      9.091
REMARK  Name = 
REMARK  3 active torsions:
REMARK  status: ('A' for Active; 'I' for Inactive)
REMARK    1  A    between atoms: N_5  and  N_6
REMARK    2  A    between atoms: C_15  and  C_16
REMARK    3  A    between atoms: C_24  and  C_25
REMARK                            x       y       z     vdW  Elec       q    Type
REMARK                         _______ _______ _______ _____ _____    ______ ____
ROOT
ATOM      1  O   UNL     1       1.238   8.091  20.462  0.00  0.00    +0.000 OA
ATOM      2  C   UNL     1       1.272   9.033  19.691  0.00  0.00    +0.000 C 
ATOM      3  N   UNL     1       0.605  10.220  19.900  0.00  0.00    +0.000 NA
ATOM      4  C   UNL     1       0.838  11.112  18.995  0.00  0.00    +0.000 C 
ATOM      5  N   UNL     1       0.342  12.391  18.951  0.00  0.00    +0.000 N 
ATOM      6  S   UNL     1       1.931  10.641  17.715  0.00  0.00    +0.000 S 
ATOM      7  C   UNL     1       2.067   9.070  18.428  0.00  0.00    +0.000 C 
ATOM      8  C   UNL     1       2.769   8.075  17.869  0.00  0.00    +0.000 C 
ATOM      9  H   UNL     1       0.640  12.987  18.183  0.00  0.00    +0.000 HD
ENDROOT
BRANCH   5  10
ATOM     10  N   UNL     1      -0.225  13.029  20.049  0.00  0.00    +0.000 N 
ATOM     11  C   UNL     1      -1.624  12.703  20.349  0.00  0.00    +0.000 C 
ATOM     12  C   UNL     1      -2.008  12.991  21.762  0.00  0.00    +0.000 A 
ATOM     13  C   UNL     1      -3.243  12.546  22.260  0.00  0.00    +0.000 A 
ATOM     14  C   UNL     1      -3.624  12.860  23.561  0.00  0.00    +0.000 A 
ATOM     15  C   UNL     1      -2.783  13.627  24.361  0.00  0.00    +0.000 A 
ATOM     16  C   UNL     1      -1.558  14.076  23.858  0.00  0.00    +0.000 A 
ATOM     17  C   UNL     1      -1.160  13.760  22.558  0.00  0.00    +0.000 A 
ATOM     18  N   UNL     1       0.070  14.237  22.088  0.00  0.00    +0.000 NA
ATOM     19  C   UNL     1       0.485  13.880  20.904  0.00  0.00    +0.000 C 
BRANCH  19  20
ATOM     20  C   UNL     1       1.812  14.463  20.492  0.00  0.00    +0.000 A 
ATOM     21  C   UNL     1       1.858  15.408  19.457  0.00  0.00    +0.000 A 
ATOM     22  C   UNL     1       3.087  15.905  19.012  0.00  0.00    +0.000 A 
ATOM     23  C   UNL     1       4.271  15.463  19.598  0.00  0.00    +0.000 A 
ATOM     24  C   UNL     1       4.231  14.525  20.629  0.00  0.00    +0.000 A 
ATOM     25  C   UNL     1       3.007  14.017  21.068  0.00  0.00    +0.000 A 
ENDBRANCH  19  20
ENDBRANCH   5  10
BRANCH   8  26
ATOM     26  C   UNL     1       2.845   6.703  18.374  0.00  0.00    +0.000 A 
ATOM     27  C   UNL     1       3.896   6.333  19.223  0.00  0.00    +0.000 A 
ATOM     28  C   UNL     1       3.948   5.044  19.758  0.00  0.00    +0.000 A 
ATOM     29  C   UNL     1       2.947   4.126  19.444  0.00  0.00    +0.000 A 
ATOM     30 BR   UNL     1       2.992   2.395  20.203  0.00  0.00    +0.000 Br
ATOM     31  C   UNL     1       1.909   4.478  18.583  0.00  0.00    +0.000 A 
ATOM     32  C   UNL     1       1.859   5.768  18.045  0.00  0.00    +0.000 A 
ENDBRANCH   8  26
TORSDOF 3
ENDMDL
MODEL 8
REMARK VINA RESULT:      -7.5      6.648     10.004
REMARK  Name = 
REMARK  3 active torsions:
REMARK  status: ('A' for Active; 'I' for Inactive)
REMARK    1  A    between atoms: N_5  and  N_6
REMARK    2  A    between atoms: C_15  and  C_16
REMARK    3  A    between atoms: C_24  and  C_25
REMARK                            x       y       z     vdW  Elec       q    Type
REMARK                         _______ _______ _______ _____ _____    ______ ____
ROOT
ATOM      1  O   UNL     1       3.978  14.226  20.446  0.00  0.00    +0.000 OA
ATOM      2  C   UNL     1       2.957  14.632  19.920  0.00  0.00    +0.000 C 
ATOM      3  N   UNL     1       1.694  14.206  20.266  0.00  0.00    +0.000 NA
ATOM      4  C   UNL     1       0.748  14.820  19.635  0.00  0.00    +0.000 C 
ATOM      5  N   UNL     1      -0.603  14.632  19.789  0.00  0.00    +0.000 N 
ATOM      6  S   UNL     1       1.255  16.042  18.493  0.00  0.00    +0.000 S 
ATOM      7  C   UNL     1       2.907  15.676  18.854  0.00  0.00    +0.000 C 
ATOM      8  C   UNL     1       3.936  16.254  18.221  0.00  0.00    +0.000 C 
ATOM      9  H   UNL     1      -1.226  15.214  19.235  0.00  0.00    +0.000 HD
ENDROOT
BRANCH   5  10
ATOM     10  N   UNL     1      -1.164  13.986  20.884  0.00  0.00    +0.000 N 
ATOM     11  C   UNL     1      -1.132  14.707  22.162  0.00  0.00    +0.000 C 
ATOM     12  C   UNL     1      -2.155  14.227  23.138  0.00  0.00    +0.000 A 
ATOM     13  C   UNL     1      -2.391  14.945  24.320  0.00  0.00    +0.000 A 
ATOM     14  C   UNL     1      -3.306  14.469  25.254  0.00  0.00    +0.000 A 
ATOM     15  C   UNL     1      -3.976  13.274  25.016  0.00  0.00    +0.000 A 
ATOM     16  C   UNL     1      -3.732  12.557  23.841  0.00  0.00    +0.000 A 
ATOM     17  C   UNL     1      -2.824  13.028  22.893  0.00  0.00    +0.000 A 
ATOM     18  N   UNL     1      -2.600  12.276  21.733  0.00  0.00    +0.000 NA
ATOM     19  C   UNL     1      -1.813  12.747  20.805  0.00  0.00    +0.000 C 
BRANCH  19  20
ATOM     20  C   UNL     1      -1.630  11.850  19.609  0.00  0.00    +0.000 A 
ATOM     21  C   UNL     1      -2.663  11.737  18.667  0.00  0.00    +0.000 A 
ATOM     22  C   UNL     1      -2.540  10.855  17.590  0.00  0.00    +0.000 A 
ATOM     23  C   UNL     1      -1.387  10.085  17.448  0.00  0.00    +0.000 A 
ATOM     24  C   UNL     1      -0.356  10.195  18.380  0.00  0.00    +0.000 A 
ATOM     25  C   UNL     1      -0.480  11.065  19.463  0.00  0.00    +0.000 A 
ENDBRANCH  19  20
ENDBRANCH   5  10
BRANCH   8  26
ATOM     26  C   UNL     1       5.348  15.920  18.416  0.00  0.00    +0.000 A 
ATOM     27  C   UNL     1       6.131  16.693  19.283  0.00  0.00    +0.000 A 
ATOM     28  C   UNL     1       7.464  16.350  19.523  0.00  0.00    +0.000 A 
ATOM     29  C   UNL     1       8.011  15.234  18.896  0.00  0.00    +0.000 A 
ATOM     30 BR   UNL     1       9.802  14.742  19.254  0.00  0.00    +0.000 Br
ATOM     31  C   UNL     1       7.247  14.470  18.014  0.00  0.00    +0.000 A 
ATOM     32  C   UNL     1       5.913  14.816  17.773  0.00  0.00    +0.000 A 
ENDBRANCH   8  26
TORSDOF 3
ENDMDL
MODEL 9
REMARK VINA RESULT:      -7.5      3.985      9.756
REMARK  Name = 
REMARK  3 active torsions:
REMARK  status: ('A' for Active; 'I' for Inactive)
REMARK    1  A    between atoms: N_5  and  N_6
REMARK    2  A    between atoms: C_15  and  C_16
REMARK    3  A    between atoms: C_24  and  C_25
REMARK                            x       y       z     vdW  Elec       q    Type
REMARK                         _______ _______ _______ _____ _____    ______ ____
ROOT
ATOM      1  O   UNL     1       2.593   8.647  18.412  0.00  0.00    +0.000 OA
ATOM      2  C   UNL     1       1.852   8.880  19.349  0.00  0.00    +0.000 C 
ATOM      3  N   UNL     1       1.451  10.147  19.714  0.00  0.00    +0.000 NA
ATOM      4  C   UNL     1       0.605  10.163  20.690  0.00  0.00    +0.000 C 
ATOM      5  N   UNL     1       0.011  11.267  21.249  0.00  0.00    +0.000 N 
ATOM      6  S   UNL     1       0.151   8.604  21.337  0.00  0.00    +0.000 S 
ATOM      7  C   UNL     1       1.231   7.841  20.222  0.00  0.00    +0.000 C 
ATOM      8  C   UNL     1       1.453   6.520  20.212  0.00  0.00    +0.000 C 
ATOM      9  H   UNL     1      -0.658  11.114  21.999  0.00  0.00    +0.000 HD
ENDROOT
BRANCH   5  10
ATOM     10  N   UNL     1      -0.021  12.511  20.630  0.00  0.00    +0.000 N 
ATOM     11  C   UNL     1       0.721  13.593  21.288  0.00  0.00    +0.000 C 
ATOM     12  C   UNL     1       1.073  14.714  20.367  0.00  0.00    +0.000 A 
ATOM     13  C   UNL     1       1.955  15.721  20.790  0.00  0.00    +0.000 A 
ATOM     14  C   UNL     1       2.242  16.793  19.951  0.00  0.00    +0.000 A 
ATOM     15  C   UNL     1       1.643  16.869  18.698  0.00  0.00    +0.000 A 
ATOM     16  C   UNL     1       0.758  15.869  18.285  0.00  0.00    +0.000 A 
ATOM     17  C   UNL     1       0.469  14.784  19.113  0.00  0.00    +0.000 A 
ATOM     18  N   UNL     1      -0.431  13.808  18.666  0.00  0.00    +0.000 NA
ATOM     19  C   UNL     1      -0.646  12.751  19.400  0.00  0.00    +0.000 C 
BRANCH  19  20
ATOM     20  C   UNL     1      -1.642  11.773  18.832  0.00  0.00    +0.000 A 
ATOM     21  C   UNL     1      -1.203  10.774  17.952  0.00  0.00    +0.000 A 
ATOM     22  C   UNL     1      -2.123   9.904  17.360  0.00  0.00    +0.000 A 
ATOM     23  C   UNL     1      -3.482  10.027  17.644  0.00  0.00    +0.000 A 
ATOM     24  C   UNL     1      -3.924  11.018  18.520  0.00  0.00    +0.000 A 
ATOM     25  C   UNL     1      -3.010  11.896  19.104  0.00  0.00    +0.000 A 
ENDBRANCH  19  20
ENDBRANCH   5  10
BRANCH   8  26
ATOM     26  C   UNL     1       2.422   5.829  19.359  0.00  0.00    +0.000 A 
ATOM     27  C   UNL     1       1.986   5.190  18.191  0.00  0.00    +0.000 A 
ATOM     28  C   UNL     1       2.907   4.578  17.337  0.00  0.00    +0.000 A 
ATOM     29  C   UNL     1       4.264   4.606  17.654  0.00  0.00    +0.000 A 
ATOM     30 BR   UNL     1       5.516   3.816  16.477  0.00  0.00    +0.000 Br
ATOM     31  C   UNL     1       4.705   5.220  18.825  0.00  0.00    +0.000 A 
ATOM     32  C   UNL     1       3.782   5.831  19.680  0.00  0.00    +0.000 A 
ENDBRANCH   8  26
TORSDOF 3
ENDMDL
