MODEL 1
REMARK VINA RESULT:      -7.9      0.000      0.000
REMARK  Name = 
REMARK  7 active torsions:
REMARK  status: ('A' for Active; 'I' for Inactive)
REMARK    1  A    between atoms: C_1  and  C_2
REMARK    2  A    between atoms: N_12  and  C_13
REMARK    3  A    between atoms: C_13  and  C_14
REMARK    4  A    between atoms: C_14  and  C_15
REMARK    5  A    between atoms: C_15  and  O_16
REMARK    6  A    between atoms: O_16  and  C_17
REMARK    7  A    between atoms: C_22  and  C_23
REMARK                            x       y       z     vdW  Elec       q    Type
REMARK                         _______ _______ _______ _____ _____    ______ ____
ROOT
ATOM      1  C   UNL     1       2.095   2.332  18.478  0.00  0.00    +0.000 C 
ATOM      2  C   UNL     1       3.296   3.211  18.286  0.00  0.00    +0.000 A 
ATOM      3  C   UNL     1       3.916   3.877  19.372  0.00  0.00    +0.000 A 
ATOM      4  C   UNL     1       5.053   4.684  19.193  0.00  0.00    +0.000 A 
ATOM      5  C   UNL     1       5.562   4.825  17.915  0.00  0.00    +0.000 A 
ATOM      6  C   UNL     1       4.926   4.175  16.858  0.00  0.00    +0.000 A 
ATOM      7  C   UNL     1       3.812   3.371  16.999  0.00  0.00    +0.000 A 
ATOM      8  C   UNL     1       5.653   4.487  15.641  0.00  0.00    +0.000 C 
ATOM      9  O   UNL     1       5.399   4.107  14.519  0.00  0.00    +0.000 OA
ATOM     10  C   UNL     1       6.814   5.395  16.073  0.00  0.00    +0.000 C 
ATOM     11  O   UNL     1       7.633   5.835  15.294  0.00  0.00    +0.000 OA
ATOM     12  N   UNL     1       6.687   5.549  17.455  0.00  0.00    +0.000 N 
ENDROOT
BRANCH  12  13
ATOM     13  C   UNL     1       7.591   6.298  18.322  0.00  0.00    +0.000 C 
BRANCH  13  14
ATOM     14  C   UNL     1       7.798   7.754  17.898  0.00  0.00    +0.000 C 
BRANCH  14  15
ATOM     15  C   UNL     1       8.771   8.522  18.777  0.00  0.00    +0.000 C 
BRANCH  15  16
ATOM     16  O   UNL     1       8.514   9.923  18.594  0.00  0.00    +0.000 OA
BRANCH  16  17
ATOM     17  C   UNL     1       9.586  10.756  18.788  0.00  0.00    +0.000 A 
ATOM     18  C   UNL     1      10.411  11.186  17.743  0.00  0.00    +0.000 A 
ATOM     19  C   UNL     1      11.487  12.037  17.988  0.00  0.00    +0.000 A 
ATOM     20  C   UNL     1      11.734  12.490  19.276  0.00  0.00    +0.000 A 
ATOM     21  C   UNL     1      10.899  12.098  20.322  0.00  0.00    +0.000 A 
ATOM     22  C   UNL     1       9.822  11.224  20.094  0.00  0.00    +0.000 A 
ATOM     23  C   UNL     1       8.946  10.843  21.257  0.00  0.00    +0.000 C 
ENDBRANCH  16  17
ENDBRANCH  15  16
ENDBRANCH  14  15
ENDBRANCH  13  14
ENDBRANCH  12  13
TORSDOF 5
ENDMDL
MODEL 2
REMARK VINA RESULT:      -7.5      4.291      6.907
REMARK  Name = 
REMARK  7 active torsions:
REMARK  status: ('A' for Active; 'I' for Inactive)
REMARK    1  A    between atoms: C_1  and  C_2
REMARK    2  A    between atoms: N_12  and  C_13
REMARK    3  A    between atoms: C_13  and  C_14
REMARK    4  A    between atoms: C_14  and  C_15
REMARK    5  A    between atoms: C_15  and  O_16
REMARK    6  A    between atoms: O_16  and  C_17
REMARK    7  A    between atoms: C_22  and  C_23
REMARK                            x       y       z     vdW  Elec       q    Type
REMARK                         _______ _______ _______ _____ _____    ______ ____
ROOT
ATOM      1  C   UNL     1       7.690   5.039  12.868  0.00  0.00    +0.000 C 
ATOM      2  C   UNL     1       6.952   4.850  14.162  0.00  0.00    +0.000 A 
ATOM      3  C   UNL     1       5.777   4.063  14.243  0.00  0.00    +0.000 A 
ATOM      4  C   UNL     1       5.098   3.872  15.459  0.00  0.00    +0.000 A 
ATOM      5  C   UNL     1       5.602   4.481  16.594  0.00  0.00    +0.000 A 
ATOM      6  C   UNL     1       6.750   5.265  16.488  0.00  0.00    +0.000 A 
ATOM      7  C   UNL     1       7.444   5.470  15.312  0.00  0.00    +0.000 A 
ATOM      8  C   UNL     1       7.060   5.782  17.809  0.00  0.00    +0.000 C 
ATOM      9  O   UNL     1       7.983   6.505  18.113  0.00  0.00    +0.000 OA
ATOM     10  C   UNL     1       5.978   5.216  18.739  0.00  0.00    +0.000 C 
ATOM     11  O   UNL     1       5.946   5.445  19.930  0.00  0.00    +0.000 OA
ATOM     12  N   UNL     1       5.141   4.445  17.931  0.00  0.00    +0.000 N 
ENDROOT
BRANCH  12  13
ATOM     13  C   UNL     1       3.987   3.671  18.380  0.00  0.00    +0.000 C 
BRANCH  13  14
ATOM     14  C   UNL     1       2.646   4.382  18.184  0.00  0.00    +0.000 C 
BRANCH  14  15
ATOM     15  C   UNL     1       2.168   5.149  19.406  0.00  0.00    +0.000 C 
BRANCH  15  16
ATOM     16  O   UNL     1       2.773   6.450  19.371  0.00  0.00    +0.000 OA
BRANCH  16  17
ATOM     17  C   UNL     1       1.988   7.485  19.811  0.00  0.00    +0.000 A 
ATOM     18  C   UNL     1       1.437   7.525  21.097  0.00  0.00    +0.000 A 
ATOM     19  C   UNL     1       0.649   8.600  21.502  0.00  0.00    +0.000 A 
ATOM     20  C   UNL     1       0.425   9.661  20.636  0.00  0.00    +0.000 A 
ATOM     21  C   UNL     1       0.997   9.651  19.364  0.00  0.00    +0.000 A 
ATOM     22  C   UNL     1       1.777   8.565  18.934  0.00  0.00    +0.000 A 
ATOM     23  C   UNL     1       2.380   8.612  17.556  0.00  0.00    +0.000 C 
ENDBRANCH  16  17
ENDBRANCH  15  16
ENDBRANCH  14  15
ENDBRANCH  13  14
ENDBRANCH  12  13
TORSDOF 5
ENDMDL
MODEL 3
REMARK VINA RESULT:      -7.4      5.571      6.968
REMARK  Name = 
REMARK  7 active torsions:
REMARK  status: ('A' for Active; 'I' for Inactive)
REMARK    1  A    between atoms: C_1  and  C_2
REMARK    2  A    between atoms: N_12  and  C_13
REMARK    3  A    between atoms: C_13  and  C_14
REMARK    4  A    between atoms: C_14  and  C_15
REMARK    5  A    between atoms: C_15  and  O_16
REMARK    6  A    between atoms: O_16  and  C_17
REMARK    7  A    between atoms: C_22  and  C_23
REMARK                            x       y       z     vdW  Elec       q    Type
REMARK                         _______ _______ _______ _____ _____    ______ ____
ROOT
ATOM      1  C   UNL     1       1.967   2.665  21.500  0.00  0.00    +0.000 C 
ATOM      2  C   UNL     1       2.305   3.812  20.592  0.00  0.00    +0.000 A 
ATOM      3  C   UNL     1       1.827   5.123  20.836  0.00  0.00    +0.000 A 
ATOM      4  C   UNL     1       2.160   6.200  19.996  0.00  0.00    +0.000 A 
ATOM      5  C   UNL     1       2.973   5.952  18.904  0.00  0.00    +0.000 A 
ATOM      6  C   UNL     1       3.417   4.651  18.674  0.00  0.00    +0.000 A 
ATOM      7  C   UNL     1       3.114   3.573  19.480  0.00  0.00    +0.000 A 
ATOM      8  C   UNL     1       4.242   4.668  17.478  0.00  0.00    +0.000 C 
ATOM      9  O   UNL     1       4.801   3.726  16.963  0.00  0.00    +0.000 OA
ATOM     10  C   UNL     1       4.260   6.129  17.008  0.00  0.00    +0.000 C 
ATOM     11  O   UNL     1       4.874   6.501  16.030  0.00  0.00    +0.000 OA
ATOM     12  N   UNL     1       3.473   6.836  17.920  0.00  0.00    +0.000 N 
ENDROOT
BRANCH  12  13
ATOM     13  C   UNL     1       3.228   8.275  17.908  0.00  0.00    +0.000 C 
BRANCH  13  14
ATOM     14  C   UNL     1       1.755   8.655  17.736  0.00  0.00    +0.000 C 
BRANCH  14  15
ATOM     15  C   UNL     1       1.338   9.887  18.520  0.00  0.00    +0.000 C 
BRANCH  15  16
ATOM     16  O   UNL     1       1.094   9.482  19.876  0.00  0.00    +0.000 OA
BRANCH  16  17
ATOM     17  C   UNL     1       0.506  10.422  20.683  0.00  0.00    +0.000 A 
ATOM     18  C   UNL     1       0.586  11.796  20.430  0.00  0.00    +0.000 A 
ATOM     19  C   UNL     1      -0.032  12.714  21.276  0.00  0.00    +0.000 A 
ATOM     20  C   UNL     1      -0.761  12.269  22.370  0.00  0.00    +0.000 A 
ATOM     21  C   UNL     1      -0.879  10.900  22.614  0.00  0.00    +0.000 A 
ATOM     22  C   UNL     1      -0.245   9.963  21.781  0.00  0.00    +0.000 A 
ATOM     23  C   UNL     1      -0.416   8.499  22.084  0.00  0.00    +0.000 C 
ENDBRANCH  16  17
ENDBRANCH  15  16
ENDBRANCH  14  15
ENDBRANCH  13  14
ENDBRANCH  12  13
TORSDOF 5
ENDMDL
MODEL 4
REMARK VINA RESULT:      -7.3      1.713      2.996
REMARK  Name = 
REMARK  7 active torsions:
REMARK  status: ('A' for Active; 'I' for Inactive)
REMARK    1  A    between atoms: C_1  and  C_2
REMARK    2  A    between atoms: N_12  and  C_13
REMARK    3  A    between atoms: C_13  and  C_14
REMARK    4  A    between atoms: C_14  and  C_15
REMARK    5  A    between atoms: C_15  and  O_16
REMARK    6  A    between atoms: O_16  and  C_17
REMARK    7  A    between atoms: C_22  and  C_23
REMARK                            x       y       z     vdW  Elec       q    Type
REMARK                         _______ _______ _______ _____ _____    ______ ____
ROOT
ATOM      1  C   UNL     1       5.771   3.377  12.456  0.00  0.00    +0.000 C 
ATOM      2  C   UNL     1       6.115   4.060  13.748  0.00  0.00    +0.000 A 
ATOM      3  C   UNL     1       7.204   4.959  13.851  0.00  0.00    +0.000 A 
ATOM      4  C   UNL     1       7.512   5.613  15.057  0.00  0.00    +0.000 A 
ATOM      5  C   UNL     1       6.724   5.354  16.163  0.00  0.00    +0.000 A 
ATOM      6  C   UNL     1       5.667   4.452  16.044  0.00  0.00    +0.000 A 
ATOM      7  C   UNL     1       5.333   3.797  14.875  0.00  0.00    +0.000 A 
ATOM      8  C   UNL     1       5.011   4.363  17.336  0.00  0.00    +0.000 C 
ATOM      9  O   UNL     1       4.054   3.678  17.624  0.00  0.00    +0.000 OA
ATOM     10  C   UNL     1       5.779   5.320  18.258  0.00  0.00    +0.000 C 
ATOM     11  O   UNL     1       5.482   5.497  19.421  0.00  0.00    +0.000 OA
ATOM     12  N   UNL     1       6.793   5.876  17.475  0.00  0.00    +0.000 N 
ENDROOT
BRANCH  12  13
ATOM     13  C   UNL     1       7.760   6.881  17.909  0.00  0.00    +0.000 C 
BRANCH  13  14
ATOM     14  C   UNL     1       7.263   8.322  17.775  0.00  0.00    +0.000 C 
BRANCH  14  15
ATOM     15  C   UNL     1       8.375   9.352  17.671  0.00  0.00    +0.000 C 
BRANCH  15  16
ATOM     16  O   UNL     1       8.756   9.721  19.005  0.00  0.00    +0.000 OA
BRANCH  16  17
ATOM     17  C   UNL     1       9.720  10.692  19.103  0.00  0.00    +0.000 A 
ATOM     18  C   UNL     1      10.526  11.073  18.024  0.00  0.00    +0.000 A 
ATOM     19  C   UNL     1      11.490  12.068  18.171  0.00  0.00    +0.000 A 
ATOM     20  C   UNL     1      11.641  12.714  19.389  0.00  0.00    +0.000 A 
ATOM     21  C   UNL     1      10.821  12.369  20.464  0.00  0.00    +0.000 A 
ATOM     22  C   UNL     1       9.859  11.354  20.338  0.00  0.00    +0.000 A 
ATOM     23  C   UNL     1       8.992  11.031  21.525  0.00  0.00    +0.000 C 
ENDBRANCH  16  17
ENDBRANCH  15  16
ENDBRANCH  14  15
ENDBRANCH  13  14
ENDBRANCH  12  13
TORSDOF 5
ENDMDL
MODEL 5
REMARK VINA RESULT:      -7.3      4.350      7.507
REMARK  Name = 
REMARK  7 active torsions:
REMARK  status: ('A' for Active; 'I' for Inactive)
REMARK    1  A    between atoms: C_1  and  C_2
REMARK    2  A    between atoms: N_12  and  C_13
REMARK    3  A    between atoms: C_13  and  C_14
REMARK    4  A    between atoms: C_14  and  C_15
REMARK    5  A    between atoms: C_15  and  O_16
REMARK    6  A    between atoms: O_16  and  C_17
REMARK    7  A    between atoms: C_22  and  C_23
REMARK                            x       y       z     vdW  Elec       q    Type
REMARK                         _______ _______ _______ _____ _____    ______ ____
ROOT
ATOM      1  C   UNL     1       6.542   3.622  12.821  0.00  0.00    +0.000 C 
ATOM      2  C   UNL     1       6.314   4.386  14.093  0.00  0.00    +0.000 A 
ATOM      3  C   UNL     1       5.305   5.375  14.200  0.00  0.00    +0.000 A 
ATOM      4  C   UNL     1       5.081   6.075  15.398  0.00  0.00    +0.000 A 
ATOM      5  C   UNL     1       5.879   5.782  16.489  0.00  0.00    +0.000 A 
ATOM      6  C   UNL     1       6.877   4.818  16.356  0.00  0.00    +0.000 A 
ATOM      7  C   UNL     1       7.122   4.108  15.197  0.00  0.00    +0.000 A 
ATOM      8  C   UNL     1       7.561   4.706  17.632  0.00  0.00    +0.000 C 
ATOM      9  O   UNL     1       8.487   3.975  17.904  0.00  0.00    +0.000 OA
ATOM     10  C   UNL     1       6.861   5.704  18.566  0.00  0.00    +0.000 C 
ATOM     11  O   UNL     1       7.180   5.859  19.726  0.00  0.00    +0.000 OA
ATOM     12  N   UNL     1       5.862   6.310  17.801  0.00  0.00    +0.000 N 
ENDROOT
BRANCH  12  13
ATOM     13  C   UNL     1       4.903   7.304  18.273  0.00  0.00    +0.000 C 
BRANCH  13  14
ATOM     14  C   UNL     1       3.439   6.896  18.084  0.00  0.00    +0.000 C 
BRANCH  14  15
ATOM     15  C   UNL     1       2.743   6.480  19.369  0.00  0.00    +0.000 C 
BRANCH  15  16
ATOM     16  O   UNL     1       3.410   5.311  19.870  0.00  0.00    +0.000 OA
BRANCH  16  17
ATOM     17  C   UNL     1       3.083   4.129  19.257  0.00  0.00    +0.000 A 
ATOM     18  C   UNL     1       3.946   3.466  18.376  0.00  0.00    +0.000 A 
ATOM     19  C   UNL     1       3.571   2.264  17.780  0.00  0.00    +0.000 A 
ATOM     20  C   UNL     1       2.342   1.695  18.078  0.00  0.00    +0.000 A 
ATOM     21  C   UNL     1       1.486   2.326  18.981  0.00  0.00    +0.000 A 
ATOM     22  C   UNL     1       1.840   3.549  19.574  0.00  0.00    +0.000 A 
ATOM     23  C   UNL     1       0.885   4.180  20.551  0.00  0.00    +0.000 C 
ENDBRANCH  16  17
ENDBRANCH  15  16
ENDBRANCH  14  15
ENDBRANCH  13  14
ENDBRANCH  12  13
TORSDOF 5
ENDMDL
MODEL 6
REMARK VINA RESULT:      -7.3      3.912      6.327
REMARK  Name = 
REMARK  7 active torsions:
REMARK  status: ('A' for Active; 'I' for Inactive)
REMARK    1  A    between atoms: C_1  and  C_2
REMARK    2  A    between atoms: N_12  and  C_13
REMARK    3  A    between atoms: C_13  and  C_14
REMARK    4  A    between atoms: C_14  and  C_15
REMARK    5  A    between atoms: C_15  and  O_16
REMARK    6  A    between atoms: O_16  and  C_17
REMARK    7  A    between atoms: C_22  and  C_23
REMARK                            x       y       z     vdW  Elec       q    Type
REMARK                         _______ _______ _______ _____ _____    ______ ____
ROOT
ATOM      1  C   UNL     1       1.562   8.748  20.981  0.00  0.00    +0.000 C 
ATOM      2  C   UNL     1       1.827   7.492  20.203  0.00  0.00    +0.000 A 
ATOM      3  C   UNL     1       2.389   7.523  18.903  0.00  0.00    +0.000 A 
ATOM      4  C   UNL     1       2.654   6.344  18.184  0.00  0.00    +0.000 A 
ATOM      5  C   UNL     1       2.346   5.132  18.776  0.00  0.00    +0.000 A 
ATOM      6  C   UNL     1       1.778   5.126  20.048  0.00  0.00    +0.000 A 
ATOM      7  C   UNL     1       1.509   6.263  20.784  0.00  0.00    +0.000 A 
ATOM      8  C   UNL     1       1.556   3.743  20.430  0.00  0.00    +0.000 C 
ATOM      9  O   UNL     1       1.074   3.338  21.465  0.00  0.00    +0.000 OA
ATOM     10  C   UNL     1       2.062   2.901  19.250  0.00  0.00    +0.000 C 
ATOM     11  O   UNL     1       2.034   1.688  19.244  0.00  0.00    +0.000 OA
ATOM     12  N   UNL     1       2.522   3.813  18.297  0.00  0.00    +0.000 N 
ENDROOT
BRANCH  12  13
ATOM     13  C   UNL     1       3.136   3.479  17.015  0.00  0.00    +0.000 C 
BRANCH  13  14
ATOM     14  C   UNL     1       4.666   3.551  17.021  0.00  0.00    +0.000 C 
BRANCH  14  15
ATOM     15  C   UNL     1       5.307   3.159  15.700  0.00  0.00    +0.000 C 
BRANCH  15  16
ATOM     16  O   UNL     1       6.290   4.155  15.378  0.00  0.00    +0.000 OA
BRANCH  16  17
ATOM     17  C   UNL     1       6.709   4.939  16.422  0.00  0.00    +0.000 A 
ATOM     18  C   UNL     1       7.633   4.500  17.377  0.00  0.00    +0.000 A 
ATOM     19  C   UNL     1       8.033   5.334  18.419  0.00  0.00    +0.000 A 
ATOM     20  C   UNL     1       7.536   6.627  18.502  0.00  0.00    +0.000 A 
ATOM     21  C   UNL     1       6.642   7.090  17.537  0.00  0.00    +0.000 A 
ATOM     22  C   UNL     1       6.213   6.254  16.493  0.00  0.00    +0.000 A 
ATOM     23  C   UNL     1       5.257   6.809  15.472  0.00  0.00    +0.000 C 
ENDBRANCH  16  17
ENDBRANCH  15  16
ENDBRANCH  14  15
ENDBRANCH  13  14
ENDBRANCH  12  13
TORSDOF 5
ENDMDL
MODEL 7
REMARK VINA RESULT:      -7.2      5.794      7.801
REMARK  Name = 
REMARK  7 active torsions:
REMARK  status: ('A' for Active; 'I' for Inactive)
REMARK    1  A    between atoms: C_1  and  C_2
REMARK    2  A    between atoms: N_12  and  C_13
REMARK    3  A    between atoms: C_13  and  C_14
REMARK    4  A    between atoms: C_14  and  C_15
REMARK    5  A    between atoms: C_15  and  O_16
REMARK    6  A    between atoms: O_16  and  C_17
REMARK    7  A    between atoms: C_22  and  C_23
REMARK                            x       y       z     vdW  Elec       q    Type
REMARK                         _______ _______ _______ _____ _____    ______ ____
ROOT
ATOM      1  C   UNL     1       6.897   4.653  14.915  0.00  0.00    +0.000 C 
ATOM      2  C   UNL     1       5.816   5.054  15.876  0.00  0.00    +0.000 A 
ATOM      3  C   UNL     1       5.671   6.391  16.321  0.00  0.00    +0.000 A 
ATOM      4  C   UNL     1       4.645   6.768  17.206  0.00  0.00    +0.000 A 
ATOM      5  C   UNL     1       3.768   5.794  17.646  0.00  0.00    +0.000 A 
ATOM      6  C   UNL     1       3.940   4.481  17.208  0.00  0.00    +0.000 A 
ATOM      7  C   UNL     1       4.932   4.077  16.337  0.00  0.00    +0.000 A 
ATOM      8  C   UNL     1       2.900   3.670  17.814  0.00  0.00    +0.000 C 
ATOM      9  O   UNL     1       2.726   2.480  17.673  0.00  0.00    +0.000 OA
ATOM     10  C   UNL     1       2.064   4.636  18.665  0.00  0.00    +0.000 C 
ATOM     11  O   UNL     1       1.095   4.284  19.305  0.00  0.00    +0.000 OA
ATOM     12  N   UNL     1       2.652   5.893  18.509  0.00  0.00    +0.000 N 
ENDROOT
BRANCH  12  13
ATOM     13  C   UNL     1       2.179   7.142  19.098  0.00  0.00    +0.000 C 
BRANCH  13  14
ATOM     14  C   UNL     1       1.875   7.049  20.596  0.00  0.00    +0.000 C 
BRANCH  14  15
ATOM     15  C   UNL     1       1.136   8.254  21.153  0.00  0.00    +0.000 C 
BRANCH  15  16
ATOM     16  O   UNL     1       0.687   9.044  20.042  0.00  0.00    +0.000 OA
BRANCH  16  17
ATOM     17  C   UNL     1      -0.119  10.109  20.354  0.00  0.00    +0.000 A 
ATOM     18  C   UNL     1      -0.130  10.707  21.619  0.00  0.00    +0.000 A 
ATOM     19  C   UNL     1      -0.963  11.790  21.889  0.00  0.00    +0.000 A 
ATOM     20  C   UNL     1      -1.775  12.307  20.890  0.00  0.00    +0.000 A 
ATOM     21  C   UNL     1      -1.749  11.743  19.614  0.00  0.00    +0.000 A 
ATOM     22  C   UNL     1      -0.930  10.637  19.332  0.00  0.00    +0.000 A 
ATOM     23  C   UNL     1      -0.932  10.077  17.936  0.00  0.00    +0.000 C 
ENDBRANCH  16  17
ENDBRANCH  15  16
ENDBRANCH  14  15
ENDBRANCH  13  14
ENDBRANCH  12  13
TORSDOF 5
ENDMDL
MODEL 8
REMARK VINA RESULT:      -7.1      5.893      7.496
REMARK  Name = 
REMARK  7 active torsions:
REMARK  status: ('A' for Active; 'I' for Inactive)
REMARK    1  A    between atoms: C_1  and  C_2
REMARK    2  A    between atoms: N_12  and  C_13
REMARK    3  A    between atoms: C_13  and  C_14
REMARK    4  A    between atoms: C_14  and  C_15
REMARK    5  A    between atoms: C_15  and  O_16
REMARK    6  A    between atoms: O_16  and  C_17
REMARK    7  A    between atoms: C_22  and  C_23
REMARK                            x       y       z     vdW  Elec       q    Type
REMARK                         _______ _______ _______ _____ _____    ______ ____
ROOT
ATOM      1  C   UNL     1       6.636   4.554  14.452  0.00  0.00    +0.000 C 
ATOM      2  C   UNL     1       5.699   4.900  15.573  0.00  0.00    +0.000 A 
ATOM      3  C   UNL     1       5.690   6.184  16.170  0.00  0.00    +0.000 A 
ATOM      4  C   UNL     1       4.798   6.511  17.206  0.00  0.00    +0.000 A 
ATOM      5  C   UNL     1       3.917   5.539  17.644  0.00  0.00    +0.000 A 
ATOM      6  C   UNL     1       3.955   4.277  17.055  0.00  0.00    +0.000 A 
ATOM      7  C   UNL     1       4.814   3.923  16.033  0.00  0.00    +0.000 A 
ATOM      8  C   UNL     1       2.942   3.457  17.693  0.00  0.00    +0.000 C 
ATOM      9  O   UNL     1       2.678   2.299  17.451  0.00  0.00    +0.000 OA
ATOM     10  C   UNL     1       2.271   4.363  18.735  0.00  0.00    +0.000 C 
ATOM     11  O   UNL     1       1.361   3.991  19.446  0.00  0.00    +0.000 OA
ATOM     12  N   UNL     1       2.915   5.598  18.641  0.00  0.00    +0.000 N 
ENDROOT
BRANCH  12  13
ATOM     13  C   UNL     1       2.592   6.796  19.410  0.00  0.00    +0.000 C 
BRANCH  13  14
ATOM     14  C   UNL     1       2.239   8.012  18.549  0.00  0.00    +0.000 C 
BRANCH  14  15
ATOM     15  C   UNL     1       1.318   9.007  19.234  0.00  0.00    +0.000 C 
BRANCH  15  16
ATOM     16  O   UNL     1       0.797   9.887  18.226  0.00  0.00    +0.000 OA
BRANCH  16  17
ATOM     17  C   UNL     1       0.219  11.043  18.684  0.00  0.00    +0.000 A 
ATOM     18  C   UNL     1       0.954  12.078  19.272  0.00  0.00    +0.000 A 
ATOM     19  C   UNL     1       0.324  13.237  19.719  0.00  0.00    +0.000 A 
ATOM     20  C   UNL     1      -1.046  13.388  19.559  0.00  0.00    +0.000 A 
ATOM     21  C   UNL     1      -1.787  12.379  18.942  0.00  0.00    +0.000 A 
ATOM     22  C   UNL     1      -1.169  11.196  18.505  0.00  0.00    +0.000 A 
ATOM     23  C   UNL     1      -2.014  10.146  17.836  0.00  0.00    +0.000 C 
ENDBRANCH  16  17
ENDBRANCH  15  16
ENDBRANCH  14  15
ENDBRANCH  13  14
ENDBRANCH  12  13
TORSDOF 5
ENDMDL
MODEL 9
REMARK VINA RESULT:      -7.1      5.719      6.825
REMARK  Name = 
REMARK  7 active torsions:
REMARK  status: ('A' for Active; 'I' for Inactive)
REMARK    1  A    between atoms: C_1  and  C_2
REMARK    2  A    between atoms: N_12  and  C_13
REMARK    3  A    between atoms: C_13  and  C_14
REMARK    4  A    between atoms: C_14  and  C_15
REMARK    5  A    between atoms: C_15  and  O_16
REMARK    6  A    between atoms: O_16  and  C_17
REMARK    7  A    between atoms: C_22  and  C_23
REMARK                            x       y       z     vdW  Elec       q    Type
REMARK                         _______ _______ _______ _____ _____    ______ ____
ROOT
ATOM      1  C   UNL     1       6.710   4.425  14.634  0.00  0.00    +0.000 C 
ATOM      2  C   UNL     1       5.730   4.927  15.654  0.00  0.00    +0.000 A 
ATOM      3  C   UNL     1       5.645   6.299  15.997  0.00  0.00    +0.000 A 
ATOM      4  C   UNL     1       4.713   6.769  16.939  0.00  0.00    +0.000 A 
ATOM      5  C   UNL     1       3.870   5.853  17.540  0.00  0.00    +0.000 A 
ATOM      6  C   UNL     1       3.983   4.506  17.201  0.00  0.00    +0.000 A 
ATOM      7  C   UNL     1       4.882   4.010  16.277  0.00  0.00    +0.000 A 
ATOM      8  C   UNL     1       2.994   3.770  17.968  0.00  0.00    +0.000 C 
ATOM      9  O   UNL     1       2.792   2.575  17.945  0.00  0.00    +0.000 OA
ATOM     10  C   UNL     1       2.255   4.820  18.808  0.00  0.00    +0.000 C 
ATOM     11  O   UNL     1       1.347   4.543  19.564  0.00  0.00    +0.000 OA
ATOM     12  N   UNL     1       2.842   6.047  18.492  0.00  0.00    +0.000 N 
ENDROOT
BRANCH  12  13
ATOM     13  C   UNL     1       2.443   7.351  19.015  0.00  0.00    +0.000 C 
BRANCH  13  14
ATOM     14  C   UNL     1       1.663   8.210  18.016  0.00  0.00    +0.000 C 
BRANCH  14  15
ATOM     15  C   UNL     1       2.050   9.679  18.032  0.00  0.00    +0.000 C 
BRANCH  15  16
ATOM     16  O   UNL     1       0.965  10.412  18.619  0.00  0.00    +0.000 OA
BRANCH  16  17
ATOM     17  C   UNL     1       1.117  11.775  18.659  0.00  0.00    +0.000 A 
ATOM     18  C   UNL     1       2.311  12.415  18.311  0.00  0.00    +0.000 A 
ATOM     19  C   UNL     1       2.418  13.803  18.363  0.00  0.00    +0.000 A 
ATOM     20  C   UNL     1       1.324  14.570  18.737  0.00  0.00    +0.000 A 
ATOM     21  C   UNL     1       0.116  13.947  19.053  0.00  0.00    +0.000 A 
ATOM     22  C   UNL     1      -0.001  12.547  19.025  0.00  0.00    +0.000 A 
ATOM     23  C   UNL     1      -1.331  11.929  19.363  0.00  0.00    +0.000 C 
ENDBRANCH  16  17
ENDBRANCH  15  16
ENDBRANCH  14  15
ENDBRANCH  13  14
ENDBRANCH  12  13
TORSDOF 5
ENDMDL
