MODEL 1
REMARK VINA RESULT:      -7.6      0.000      0.000
REMARK  Name = 
REMARK  5 active torsions:
REMARK  status: ('A' for Active; 'I' for Inactive)
REMARK    1  A    between atoms: C_2  and  C_12
REMARK    2  A    between atoms: N_3  and  C_4
REMARK    3  A    between atoms: C_15  and  O_16
REMARK    4  A    between atoms: O_16  and  C_17
REMARK    5  A    between atoms: C_17  and  C_19
REMARK                            x       y       z     vdW  Elec       q    Type
REMARK                         _______ _______ _______ _____ _____    ______ ____
ROOT
ATOM      1  C   UNL     1       1.897   7.716  19.562  0.00  0.00    +0.000 A 
ATOM      2  C   UNL     1       2.466   7.486  18.302  0.00  0.00    +0.000 A 
ATOM      3  C   UNL     1       3.028   6.244  18.010  0.00  0.00    +0.000 A 
ATOM      4  C   UNL     1       3.013   5.239  18.978  0.00  0.00    +0.000 A 
ATOM      5  C   UNL     1       2.382   5.435  20.204  0.00  0.00    +0.000 A 
ATOM      6  C   UNL     1       1.828   6.681  20.501  0.00  0.00    +0.000 A 
ENDROOT
BRANCH   1   8
ATOM      7  O   UNL     1       0.960   9.298  20.997  0.00  0.00    +0.000 OA
ATOM      8  C   UNL     1       1.369   9.071  19.863  0.00  0.00    +0.000 C 
ATOM      9  N   UNL     1       1.321   9.932  18.782  0.00  0.00    +0.000 N 
ATOM     10  H   UNL     1       1.497   9.540  17.860  0.00  0.00    +0.000 HD
BRANCH   9  11
ATOM     11  C   UNL     1       0.813  11.253  18.781  0.00  0.00    +0.000 A 
ATOM     12  C   UNL     1       1.621  12.369  19.016  0.00  0.00    +0.000 A 
ATOM     13  C   UNL     1       1.060  13.646  19.073  0.00  0.00    +0.000 A 
ATOM     14 CL   UNL     1       2.067  15.005  19.385  0.00  0.00    +0.000 Cl
ATOM     15  C   UNL     1      -0.308  13.830  18.885  0.00  0.00    +0.000 A 
ATOM     16  C   UNL     1      -1.120  12.731  18.606  0.00  0.00    +0.000 A 
ATOM     17  C   UNL     1      -0.561  11.451  18.543  0.00  0.00    +0.000 A 
ATOM     18 CL   UNL     1      -1.609  10.119  18.194  0.00  0.00    +0.000 Cl
ENDBRANCH   9  11
ENDBRANCH   1   8
BRANCH   4  19
ATOM     19  O   UNL     1       3.609   4.020  18.605  0.00  0.00    +0.000 OA
BRANCH  19  20
ATOM     20  C   UNL     1       4.783   3.569  19.213  0.00  0.00    +0.000 C 
ATOM     21  O   UNL     1       4.879   2.609  19.967  0.00  0.00    +0.000 OA
BRANCH  20  22
ATOM     22  C   UNL     1       5.882   4.423  18.823  0.00  0.00    +0.000 A 
ATOM     23  C   UNL     1       6.425   4.684  17.580  0.00  0.00    +0.000 A 
ATOM     24  C   UNL     1       7.494   5.590  17.779  0.00  0.00    +0.000 A 
ATOM     25  C   UNL     1       7.546   5.824  19.132  0.00  0.00    +0.000 A 
ATOM     26  O   UNL     1       6.576   5.127  19.774  0.00  0.00    +0.000 OA
ENDBRANCH  20  22
ENDBRANCH  19  20
ENDBRANCH   4  19
TORSDOF 5
ENDMDL
MODEL 2
REMARK VINA RESULT:      -7.6      3.022      4.069
REMARK  Name = 
REMARK  5 active torsions:
REMARK  status: ('A' for Active; 'I' for Inactive)
REMARK    1  A    between atoms: C_2  and  C_12
REMARK    2  A    between atoms: N_3  and  C_4
REMARK    3  A    between atoms: C_15  and  O_16
REMARK    4  A    between atoms: O_16  and  C_17
REMARK    5  A    between atoms: C_17  and  C_19
REMARK                            x       y       z     vdW  Elec       q    Type
REMARK                         _______ _______ _______ _____ _____    ______ ____
ROOT
ATOM      1  C   UNL     1       3.197   5.555  19.081  0.00  0.00    +0.000 A 
ATOM      2  C   UNL     1       3.052   5.624  17.688  0.00  0.00    +0.000 A 
ATOM      3  C   UNL     1       3.965   4.973  16.862  0.00  0.00    +0.000 A 
ATOM      4  C   UNL     1       5.015   4.251  17.431  0.00  0.00    +0.000 A 
ATOM      5  C   UNL     1       5.121   4.114  18.814  0.00  0.00    +0.000 A 
ATOM      6  C   UNL     1       4.214   4.775  19.643  0.00  0.00    +0.000 A 
ENDROOT
BRANCH   1   8
ATOM      7  O   UNL     1       1.545   5.697  20.721  0.00  0.00    +0.000 OA
ATOM      8  C   UNL     1       2.247   6.318  19.931  0.00  0.00    +0.000 C 
ATOM      9  N   UNL     1       2.200   7.676  19.677  0.00  0.00    +0.000 N 
ATOM     10  H   UNL     1       2.685   8.017  18.851  0.00  0.00    +0.000 HD
BRANCH   9  11
ATOM     11  C   UNL     1       1.346   8.619  20.299  0.00  0.00    +0.000 A 
ATOM     12  C   UNL     1       1.129   8.639  21.680  0.00  0.00    +0.000 A 
ATOM     13  C   UNL     1       0.225   9.544  22.238  0.00  0.00    +0.000 A 
ATOM     14 CL   UNL     1      -0.046   9.537  23.937  0.00  0.00    +0.000 Cl
ATOM     15  C   UNL     1      -0.464  10.447  21.432  0.00  0.00    +0.000 A 
ATOM     16  C   UNL     1      -0.225  10.469  20.059  0.00  0.00    +0.000 A 
ATOM     17  C   UNL     1       0.684   9.568  19.497  0.00  0.00    +0.000 A 
ATOM     18 CL   UNL     1       0.947   9.633  17.787  0.00  0.00    +0.000 Cl
ENDBRANCH   9  11
ENDBRANCH   1   8
BRANCH   4  19
ATOM     19  O   UNL     1       5.896   3.631  16.527  0.00  0.00    +0.000 OA
BRANCH  19  20
ATOM     20  C   UNL     1       7.067   4.264  16.103  0.00  0.00    +0.000 C 
ATOM     21  O   UNL     1       7.977   4.650  16.826  0.00  0.00    +0.000 OA
BRANCH  20  22
ATOM     22  C   UNL     1       7.040   4.410  14.666  0.00  0.00    +0.000 A 
ATOM     23  C   UNL     1       6.273   3.773  13.709  0.00  0.00    +0.000 A 
ATOM     24  C   UNL     1       6.665   4.295  12.453  0.00  0.00    +0.000 A 
ATOM     25  C   UNL     1       7.651   5.215  12.715  0.00  0.00    +0.000 A 
ATOM     26  O   UNL     1       7.885   5.296  14.049  0.00  0.00    +0.000 OA
ENDBRANCH  20  22
ENDBRANCH  19  20
ENDBRANCH   4  19
TORSDOF 5
ENDMDL
MODEL 3
REMARK VINA RESULT:      -7.5      3.322      4.497
REMARK  Name = 
REMARK  5 active torsions:
REMARK  status: ('A' for Active; 'I' for Inactive)
REMARK    1  A    between atoms: C_2  and  C_12
REMARK    2  A    between atoms: N_3  and  C_4
REMARK    3  A    between atoms: C_15  and  O_16
REMARK    4  A    between atoms: O_16  and  C_17
REMARK    5  A    between atoms: C_17  and  C_19
REMARK                            x       y       z     vdW  Elec       q    Type
REMARK                         _______ _______ _______ _____ _____    ______ ____
ROOT
ATOM      1  C   UNL     1       3.437   5.687  18.611  0.00  0.00    +0.000 A 
ATOM      2  C   UNL     1       4.270   6.501  17.832  0.00  0.00    +0.000 A 
ATOM      3  C   UNL     1       5.264   5.926  17.043  0.00  0.00    +0.000 A 
ATOM      4  C   UNL     1       5.417   4.538  17.034  0.00  0.00    +0.000 A 
ATOM      5  C   UNL     1       4.544   3.717  17.746  0.00  0.00    +0.000 A 
ATOM      6  C   UNL     1       3.555   4.294  18.544  0.00  0.00    +0.000 A 
ENDROOT
BRANCH   1   8
ATOM      7  O   UNL     1       1.716   5.623  20.183  0.00  0.00    +0.000 OA
ATOM      8  C   UNL     1       2.434   6.337  19.493  0.00  0.00    +0.000 C 
ATOM      9  N   UNL     1       2.363   7.713  19.378  0.00  0.00    +0.000 N 
ATOM     10  H   UNL     1       2.873   8.149  18.614  0.00  0.00    +0.000 HD
BRANCH   9  11
ATOM     11  C   UNL     1       1.461   8.568  20.057  0.00  0.00    +0.000 A 
ATOM     12  C   UNL     1       1.328   8.568  21.448  0.00  0.00    +0.000 A 
ATOM     13  C   UNL     1       0.376   9.380  22.065  0.00  0.00    +0.000 A 
ATOM     14 CL   UNL     1       0.213   9.349  23.778  0.00  0.00    +0.000 Cl
ATOM     15  C   UNL     1      -0.448  10.210  21.308  0.00  0.00    +0.000 A 
ATOM     16  C   UNL     1      -0.297  10.253  19.923  0.00  0.00    +0.000 A 
ATOM     17  C   UNL     1       0.660   9.446  19.301  0.00  0.00    +0.000 A 
ATOM     18 CL   UNL     1       0.809   9.535  17.580  0.00  0.00    +0.000 Cl
ENDBRANCH   9  11
ENDBRANCH   1   8
BRANCH   4  19
ATOM     19  O   UNL     1       6.449   4.040  16.218  0.00  0.00    +0.000 OA
BRANCH  19  20
ATOM     20  C   UNL     1       6.965   4.790  15.159  0.00  0.00    +0.000 C 
ATOM     21  O   UNL     1       7.701   5.764  15.260  0.00  0.00    +0.000 OA
BRANCH  20  22
ATOM     22  C   UNL     1       6.487   4.246  13.909  0.00  0.00    +0.000 A 
ATOM     23  C   UNL     1       5.248   3.744  13.559  0.00  0.00    +0.000 A 
ATOM     24  C   UNL     1       5.336   3.337  12.206  0.00  0.00    +0.000 A 
ATOM     25  C   UNL     1       6.624   3.608  11.810  0.00  0.00    +0.000 A 
ATOM     26  O   UNL     1       7.328   4.160  12.830  0.00  0.00    +0.000 OA
ENDBRANCH  20  22
ENDBRANCH  19  20
ENDBRANCH   4  19
TORSDOF 5
ENDMDL
MODEL 4
REMARK VINA RESULT:      -7.5      2.596      3.489
REMARK  Name = 
REMARK  5 active torsions:
REMARK  status: ('A' for Active; 'I' for Inactive)
REMARK    1  A    between atoms: C_2  and  C_12
REMARK    2  A    between atoms: N_3  and  C_4
REMARK    3  A    between atoms: C_15  and  O_16
REMARK    4  A    between atoms: O_16  and  C_17
REMARK    5  A    between atoms: C_17  and  C_19
REMARK                            x       y       z     vdW  Elec       q    Type
REMARK                         _______ _______ _______ _____ _____    ______ ____
ROOT
ATOM      1  C   UNL     1       2.947   7.505  18.151  0.00  0.00    +0.000 A 
ATOM      2  C   UNL     1       2.774   6.331  18.897  0.00  0.00    +0.000 A 
ATOM      3  C   UNL     1       3.644   5.257  18.714  0.00  0.00    +0.000 A 
ATOM      4  C   UNL     1       4.684   5.365  17.790  0.00  0.00    +0.000 A 
ATOM      5  C   UNL     1       4.909   6.555  17.100  0.00  0.00    +0.000 A 
ATOM      6  C   UNL     1       4.032   7.627  17.275  0.00  0.00    +0.000 A 
ENDROOT
BRANCH   1   8
ATOM      7  O   UNL     1       1.812   9.398  17.399  0.00  0.00    +0.000 OA
ATOM      8  C   UNL     1       1.962   8.603  18.320  0.00  0.00    +0.000 C 
ATOM      9  N   UNL     1       1.359   8.658  19.563  0.00  0.00    +0.000 N 
ATOM     10  H   UNL     1       1.736   8.063  20.296  0.00  0.00    +0.000 HD
BRANCH   9  11
ATOM     11  C   UNL     1       0.432   9.633  20.006  0.00  0.00    +0.000 A 
ATOM     12  C   UNL     1      -0.469  10.259  19.140  0.00  0.00    +0.000 A 
ATOM     13  C   UNL     1      -1.317  11.263  19.611  0.00  0.00    +0.000 A 
ATOM     14 CL   UNL     1      -2.403  12.038  18.526  0.00  0.00    +0.000 Cl
ATOM     15  C   UNL     1      -1.287  11.648  20.950  0.00  0.00    +0.000 A 
ATOM     16  C   UNL     1      -0.424  11.001  21.834  0.00  0.00    +0.000 A 
ATOM     17  C   UNL     1       0.422   9.992  21.368  0.00  0.00    +0.000 A 
ATOM     18 CL   UNL     1       1.475   9.219  22.503  0.00  0.00    +0.000 Cl
ENDBRANCH   9  11
ENDBRANCH   1   8
BRANCH   4  19
ATOM     19  O   UNL     1       5.510   4.234  17.661  0.00  0.00    +0.000 OA
BRANCH  19  20
ATOM     20  C   UNL     1       6.819   4.339  17.184  0.00  0.00    +0.000 C 
ATOM     21  O   UNL     1       7.832   4.391  17.871  0.00  0.00    +0.000 OA
BRANCH  20  22
ATOM     22  C   UNL     1       6.800   4.392  15.740  0.00  0.00    +0.000 A 
ATOM     23  C   UNL     1       6.027   3.707  14.822  0.00  0.00    +0.000 A 
ATOM     24  C   UNL     1       6.434   4.140  13.537  0.00  0.00    +0.000 A 
ATOM     25  C   UNL     1       7.434   5.058  13.744  0.00  0.00    +0.000 A 
ATOM     26  O   UNL     1       7.664   5.221  15.071  0.00  0.00    +0.000 OA
ENDBRANCH  20  22
ENDBRANCH  19  20
ENDBRANCH   4  19
TORSDOF 5
ENDMDL
MODEL 5
REMARK VINA RESULT:      -7.5      1.135      1.811
REMARK  Name = 
REMARK  5 active torsions:
REMARK  status: ('A' for Active; 'I' for Inactive)
REMARK    1  A    between atoms: C_2  and  C_12
REMARK    2  A    between atoms: N_3  and  C_4
REMARK    3  A    between atoms: C_15  and  O_16
REMARK    4  A    between atoms: O_16  and  C_17
REMARK    5  A    between atoms: C_17  and  C_19
REMARK                            x       y       z     vdW  Elec       q    Type
REMARK                         _______ _______ _______ _____ _____    ______ ____
ROOT
ATOM      1  C   UNL     1       1.823   7.710  19.793  0.00  0.00    +0.000 A 
ATOM      2  C   UNL     1       2.432   7.604  18.534  0.00  0.00    +0.000 A 
ATOM      3  C   UNL     1       3.020   6.402  18.145  0.00  0.00    +0.000 A 
ATOM      4  C   UNL     1       2.991   5.310  19.014  0.00  0.00    +0.000 A 
ATOM      5  C   UNL     1       2.322   5.384  20.234  0.00  0.00    +0.000 A 
ATOM      6  C   UNL     1       1.742   6.591  20.629  0.00  0.00    +0.000 A 
ENDROOT
BRANCH   1   8
ATOM      7  O   UNL     1       1.182   9.272  21.400  0.00  0.00    +0.000 OA
ATOM      8  C   UNL     1       1.268   9.024  20.203  0.00  0.00    +0.000 C 
ATOM      9  N   UNL     1       0.821   9.819  19.162  0.00  0.00    +0.000 N 
ATOM     10  H   UNL     1       0.763   9.396  18.240  0.00  0.00    +0.000 HD
BRANCH   9  11
ATOM     11  C   UNL     1       0.200  11.086  19.279  0.00  0.00    +0.000 A 
ATOM     12  C   UNL     1      -1.074  11.250  19.828  0.00  0.00    +0.000 A 
ATOM     13  C   UNL     1      -1.671  12.512  19.857  0.00  0.00    +0.000 A 
ATOM     14 CL   UNL     1      -3.250  12.690  20.518  0.00  0.00    +0.000 Cl
ATOM     15  C   UNL     1      -1.005  13.625  19.352  0.00  0.00    +0.000 A 
ATOM     16  C   UNL     1       0.285  13.484  18.840  0.00  0.00    +0.000 A 
ATOM     17  C   UNL     1       0.889  12.224  18.815  0.00  0.00    +0.000 A 
ATOM     18 CL   UNL     1       2.490  12.099  18.170  0.00  0.00    +0.000 Cl
ENDBRANCH   9  11
ENDBRANCH   1   8
BRANCH   4  19
ATOM     19  O   UNL     1       3.614   4.139  18.549  0.00  0.00    +0.000 OA
BRANCH  19  20
ATOM     20  C   UNL     1       4.779   3.648  19.145  0.00  0.00    +0.000 C 
ATOM     21  O   UNL     1       4.855   2.660  19.865  0.00  0.00    +0.000 OA
BRANCH  20  22
ATOM     22  C   UNL     1       5.893   4.497  18.791  0.00  0.00    +0.000 A 
ATOM     23  C   UNL     1       6.424   4.821  17.557  0.00  0.00    +0.000 A 
ATOM     24  C   UNL     1       7.519   5.686  17.794  0.00  0.00    +0.000 A 
ATOM     25  C   UNL     1       7.596   5.836  19.158  0.00  0.00    +0.000 A 
ATOM     26  O   UNL     1       6.618   5.125  19.771  0.00  0.00    +0.000 OA
ENDBRANCH  20  22
ENDBRANCH  19  20
ENDBRANCH   4  19
TORSDOF 5
ENDMDL
MODEL 6
REMARK VINA RESULT:      -7.5      2.163      3.081
REMARK  Name = 
REMARK  5 active torsions:
REMARK  status: ('A' for Active; 'I' for Inactive)
REMARK    1  A    between atoms: C_2  and  C_12
REMARK    2  A    between atoms: N_3  and  C_4
REMARK    3  A    between atoms: C_15  and  O_16
REMARK    4  A    between atoms: O_16  and  C_17
REMARK    5  A    between atoms: C_17  and  C_19
REMARK                            x       y       z     vdW  Elec       q    Type
REMARK                         _______ _______ _______ _____ _____    ______ ____
ROOT
ATOM      1  C   UNL     1       2.617   7.927  18.225  0.00  0.00    +0.000 A 
ATOM      2  C   UNL     1       3.599   7.736  17.242  0.00  0.00    +0.000 A 
ATOM      3  C   UNL     1       4.452   6.637  17.317  0.00  0.00    +0.000 A 
ATOM      4  C   UNL     1       4.317   5.732  18.371  0.00  0.00    +0.000 A 
ATOM      5  C   UNL     1       3.296   5.873  19.308  0.00  0.00    +0.000 A 
ATOM      6  C   UNL     1       2.447   6.979  19.240  0.00  0.00    +0.000 A 
ENDROOT
BRANCH   1   8
ATOM      7  O   UNL     1       2.219  10.133  17.583  0.00  0.00    +0.000 OA
ATOM      8  C   UNL     1       1.771   9.145  18.154  0.00  0.00    +0.000 C 
ATOM      9  N   UNL     1       0.566   9.057  18.826  0.00  0.00    +0.000 N 
ATOM     10  H   UNL     1       0.421   8.252  19.430  0.00  0.00    +0.000 HD
BRANCH   9  11
ATOM     11  C   UNL     1      -0.397  10.086  18.964  0.00  0.00    +0.000 A 
ATOM     12  C   UNL     1      -1.455  10.250  18.066  0.00  0.00    +0.000 A 
ATOM     13  C   UNL     1      -2.339  11.322  18.206  0.00  0.00    +0.000 A 
ATOM     14 CL   UNL     1      -3.622  11.519  17.077  0.00  0.00    +0.000 Cl
ATOM     15  C   UNL     1      -2.187  12.236  19.246  0.00  0.00    +0.000 A 
ATOM     16  C   UNL     1      -1.162  12.060  20.175  0.00  0.00    +0.000 A 
ATOM     17  C   UNL     1      -0.280  10.985  20.042  0.00  0.00    +0.000 A 
ATOM     18 CL   UNL     1       0.976  10.809  21.220  0.00  0.00    +0.000 Cl
ENDBRANCH   9  11
ENDBRANCH   1   8
BRANCH   4  19
ATOM     19  O   UNL     1       5.223   4.656  18.376  0.00  0.00    +0.000 OA
BRANCH  19  20
ATOM     20  C   UNL     1       6.529   4.803  17.902  0.00  0.00    +0.000 C 
ATOM     21  O   UNL     1       7.514   5.069  18.579  0.00  0.00    +0.000 OA
BRANCH  20  22
ATOM     22  C   UNL     1       6.544   4.604  16.471  0.00  0.00    +0.000 A 
ATOM     23  C   UNL     1       5.878   3.686  15.680  0.00  0.00    +0.000 A 
ATOM     24  C   UNL     1       6.268   3.935  14.343  0.00  0.00    +0.000 A 
ATOM     25  C   UNL     1       7.153   4.984  14.394  0.00  0.00    +0.000 A 
ATOM     26  O   UNL     1       7.326   5.399  15.674  0.00  0.00    +0.000 OA
ENDBRANCH  20  22
ENDBRANCH  19  20
ENDBRANCH   4  19
TORSDOF 5
ENDMDL
MODEL 7
REMARK VINA RESULT:      -7.5      2.164      2.726
REMARK  Name = 
REMARK  5 active torsions:
REMARK  status: ('A' for Active; 'I' for Inactive)
REMARK    1  A    between atoms: C_2  and  C_12
REMARK    2  A    between atoms: N_3  and  C_4
REMARK    3  A    between atoms: C_15  and  O_16
REMARK    4  A    between atoms: O_16  and  C_17
REMARK    5  A    between atoms: C_17  and  C_19
REMARK                            x       y       z     vdW  Elec       q    Type
REMARK                         _______ _______ _______ _____ _____    ______ ____
ROOT
ATOM      1  C   UNL     1       2.441   8.219  18.511  0.00  0.00    +0.000 A 
ATOM      2  C   UNL     1       2.267   7.216  19.476  0.00  0.00    +0.000 A 
ATOM      3  C   UNL     1       2.978   6.022  19.374  0.00  0.00    +0.000 A 
ATOM      4  C   UNL     1       3.864   5.839  18.311  0.00  0.00    +0.000 A 
ATOM      5  C   UNL     1       4.099   6.859  17.391  0.00  0.00    +0.000 A 
ATOM      6  C   UNL     1       3.380   8.051  17.487  0.00  0.00    +0.000 A 
ENDROOT
BRANCH   1   8
ATOM      7  O   UNL     1       1.950  10.429  17.955  0.00  0.00    +0.000 OA
ATOM      8  C   UNL     1       1.616   9.449  18.612  0.00  0.00    +0.000 C 
ATOM      9  N   UNL     1       0.577   9.381  19.522  0.00  0.00    +0.000 N 
ATOM     10  H   UNL     1       0.550   8.579  20.146  0.00  0.00    +0.000 HD
BRANCH   9  11
ATOM     11  C   UNL     1      -0.321  10.425  19.853  0.00  0.00    +0.000 A 
ATOM     12  C   UNL     1      -0.244  11.128  21.058  0.00  0.00    +0.000 A 
ATOM     13  C   UNL     1      -1.194  12.102  21.368  0.00  0.00    +0.000 A 
ATOM     14 CL   UNL     1      -1.095  12.941  22.866  0.00  0.00    +0.000 Cl
ATOM     15  C   UNL     1      -2.225  12.397  20.478  0.00  0.00    +0.000 A 
ATOM     16  C   UNL     1      -2.289  11.734  19.253  0.00  0.00    +0.000 A 
ATOM     17  C   UNL     1      -1.336  10.763  18.937  0.00  0.00    +0.000 A 
ATOM     18 CL   UNL     1      -1.457   9.968  17.404  0.00  0.00    +0.000 Cl
ENDBRANCH   9  11
ENDBRANCH   1   8
BRANCH   4  19
ATOM     19  O   UNL     1       4.535   4.603  18.277  0.00  0.00    +0.000 OA
BRANCH  19  20
ATOM     20  C   UNL     1       5.911   4.529  18.047  0.00  0.00    +0.000 C 
ATOM     21  O   UNL     1       6.784   4.545  18.906  0.00  0.00    +0.000 OA
BRANCH  20  22
ATOM     22  C   UNL     1       6.156   4.442  16.626  0.00  0.00    +0.000 A 
ATOM     23  C   UNL     1       5.458   3.788  15.628  0.00  0.00    +0.000 A 
ATOM     24  C   UNL     1       6.148   4.029  14.417  0.00  0.00    +0.000 A 
ATOM     25  C   UNL     1       7.229   4.811  14.744  0.00  0.00    +0.000 A 
ATOM     26  O   UNL     1       7.244   5.069  16.076  0.00  0.00    +0.000 OA
ENDBRANCH  20  22
ENDBRANCH  19  20
ENDBRANCH   4  19
TORSDOF 5
ENDMDL
MODEL 8
REMARK VINA RESULT:      -7.5      3.460      8.316
REMARK  Name = 
REMARK  5 active torsions:
REMARK  status: ('A' for Active; 'I' for Inactive)
REMARK    1  A    between atoms: C_2  and  C_12
REMARK    2  A    between atoms: N_3  and  C_4
REMARK    3  A    between atoms: C_15  and  O_16
REMARK    4  A    between atoms: O_16  and  C_17
REMARK    5  A    between atoms: C_17  and  C_19
REMARK                            x       y       z     vdW  Elec       q    Type
REMARK                         _______ _______ _______ _____ _____    ______ ____
ROOT
ATOM      1  C   UNL     1       2.422   7.529  18.592  0.00  0.00    +0.000 A 
ATOM      2  C   UNL     1       2.087   8.600  17.750  0.00  0.00    +0.000 A 
ATOM      3  C   UNL     1       1.302   9.645  18.234  0.00  0.00    +0.000 A 
ATOM      4  C   UNL     1       0.861   9.617  19.558  0.00  0.00    +0.000 A 
ATOM      5  C   UNL     1       1.253   8.596  20.422  0.00  0.00    +0.000 A 
ATOM      6  C   UNL     1       2.030   7.543  19.935  0.00  0.00    +0.000 A 
ENDROOT
BRANCH   1   8
ATOM      7  O   UNL     1       2.836   5.256  18.277  0.00  0.00    +0.000 OA
ATOM      8  C   UNL     1       3.200   6.399  18.024  0.00  0.00    +0.000 C 
ATOM      9  N   UNL     1       4.330   6.768  17.317  0.00  0.00    +0.000 N 
ATOM     10  H   UNL     1       4.621   7.740  17.368  0.00  0.00    +0.000 HD
BRANCH   9  11
ATOM     11  C   UNL     1       5.273   5.893  16.724  0.00  0.00    +0.000 A 
ATOM     12  C   UNL     1       5.200   5.506  15.384  0.00  0.00    +0.000 A 
ATOM     13  C   UNL     1       6.115   4.587  14.865  0.00  0.00    +0.000 A 
ATOM     14 CL   UNL     1       5.994   4.106  13.218  0.00  0.00    +0.000 Cl
ATOM     15  C   UNL     1       7.118   4.052  15.669  0.00  0.00    +0.000 A 
ATOM     16  C   UNL     1       7.230   4.463  16.997  0.00  0.00    +0.000 A 
ATOM     17  C   UNL     1       6.321   5.386  17.519  0.00  0.00    +0.000 A 
ATOM     18 CL   UNL     1       6.500   5.865  19.172  0.00  0.00    +0.000 Cl
ENDBRANCH   9  11
ENDBRANCH   1   8
BRANCH   4  19
ATOM     19  O   UNL     1       0.067  10.705  19.964  0.00  0.00    +0.000 OA
BRANCH  19  20
ATOM     20  C   UNL     1       0.466  11.548  21.004  0.00  0.00    +0.000 C 
ATOM     21  O   UNL     1       0.142  11.440  22.180  0.00  0.00    +0.000 OA
BRANCH  20  22
ATOM     22  C   UNL     1       1.319  12.589  20.477  0.00  0.00    +0.000 A 
ATOM     23  C   UNL     1       1.271  13.274  19.278  0.00  0.00    +0.000 A 
ATOM     24  C   UNL     1       2.359  14.180  19.278  0.00  0.00    +0.000 A 
ATOM     25  C   UNL     1       3.010  13.992  20.473  0.00  0.00    +0.000 A 
ATOM     26  O   UNL     1       2.390  13.034  21.208  0.00  0.00    +0.000 OA
ENDBRANCH  20  22
ENDBRANCH  19  20
ENDBRANCH   4  19
TORSDOF 5
ENDMDL
MODEL 9
REMARK VINA RESULT:      -7.5      1.612      1.940
REMARK  Name = 
REMARK  5 active torsions:
REMARK  status: ('A' for Active; 'I' for Inactive)
REMARK    1  A    between atoms: C_2  and  C_12
REMARK    2  A    between atoms: N_3  and  C_4
REMARK    3  A    between atoms: C_15  and  O_16
REMARK    4  A    between atoms: O_16  and  C_17
REMARK    5  A    between atoms: C_17  and  C_19
REMARK                            x       y       z     vdW  Elec       q    Type
REMARK                         _______ _______ _______ _____ _____    ______ ____
ROOT
ATOM      1  C   UNL     1       2.020   7.437  19.724  0.00  0.00    +0.000 A 
ATOM      2  C   UNL     1       2.650   7.539  18.476  0.00  0.00    +0.000 A 
ATOM      3  C   UNL     1       3.416   6.479  17.995  0.00  0.00    +0.000 A 
ATOM      4  C   UNL     1       3.543   5.320  18.763  0.00  0.00    +0.000 A 
ATOM      5  C   UNL     1       2.858   5.181  19.969  0.00  0.00    +0.000 A 
ATOM      6  C   UNL     1       2.100   6.247  20.455  0.00  0.00    +0.000 A 
ENDROOT
BRANCH   1   8
ATOM      7  O   UNL     1       0.774   8.544  21.356  0.00  0.00    +0.000 OA
ATOM      8  C   UNL     1       1.269   8.612  20.236  0.00  0.00    +0.000 C 
ATOM      9  N   UNL     1       1.138   9.656  19.339  0.00  0.00    +0.000 N 
ATOM     10  H   UNL     1       1.418   9.488  18.377  0.00  0.00    +0.000 HD
BRANCH   9  11
ATOM     11  C   UNL     1       0.426  10.862  19.551  0.00  0.00    +0.000 A 
ATOM     12  C   UNL     1       0.837  11.824  20.477  0.00  0.00    +0.000 A 
ATOM     13  C   UNL     1       0.064  12.965  20.698  0.00  0.00    +0.000 A 
ATOM     14 CL   UNL     1       0.575  14.127  21.859  0.00  0.00    +0.000 Cl
ATOM     15  C   UNL     1      -1.120  13.168  19.993  0.00  0.00    +0.000 A 
ATOM     16  C   UNL     1      -1.520  12.238  19.035  0.00  0.00    +0.000 A 
ATOM     17  C   UNL     1      -0.746  11.097  18.806  0.00  0.00    +0.000 A 
ATOM     18 CL   UNL     1      -1.283   9.972  17.606  0.00  0.00    +0.000 Cl
ENDBRANCH   9  11
ENDBRANCH   1   8
BRANCH   4  19
ATOM     19  O   UNL     1       4.340   4.302  18.210  0.00  0.00    +0.000 OA
BRANCH  19  20
ATOM     20  C   UNL     1       5.716   4.470  18.032  0.00  0.00    +0.000 C 
ATOM     21  O   UNL     1       6.546   4.588  18.925  0.00  0.00    +0.000 OA
BRANCH  20  22
ATOM     22  C   UNL     1       6.017   4.498  16.619  0.00  0.00    +0.000 A 
ATOM     23  C   UNL     1       5.245   4.154  15.526  0.00  0.00    +0.000 A 
ATOM     24  C   UNL     1       6.043   4.367  14.376  0.00  0.00    +0.000 A 
ATOM     25  C   UNL     1       7.256   4.822  14.834  0.00  0.00    +0.000 A 
ATOM     26  O   UNL     1       7.252   4.907  16.188  0.00  0.00    +0.000 OA
ENDBRANCH  20  22
ENDBRANCH  19  20
ENDBRANCH   4  19
TORSDOF 5
ENDMDL
