MODEL 1
REMARK VINA RESULT:      -7.8      0.000      0.000
REMARK  Name = 
REMARK  8 active torsions:
REMARK  status: ('A' for Active; 'I' for Inactive)
REMARK    1  A    between atoms: C_1  and  C_2
REMARK    2  A    between atoms: C_2  and  C_3
REMARK    3  A    between atoms: C_3  and  C_4
REMARK    4  A    between atoms: C_4  and  C_5
REMARK    5  A    between atoms: C_5  and  N_6
REMARK    6  A    between atoms: N_8  and  C_9
REMARK    7  A    between atoms: C_9  and  C_11
REMARK    8  A    between atoms: C_15  and  C_16
REMARK                            x       y       z     vdW  Elec       q    Type
REMARK                         _______ _______ _______ _____ _____    ______ ____
ROOT
ATOM      1  N   UNL     1       3.228   5.315  18.065  0.00  0.00    +0.000 N 
ATOM      2  C   UNL     1       4.487   4.867  17.657  0.00  0.00    +0.000 A 
ATOM      3  N   UNL     1       5.184   5.407  16.708  0.00  0.00    +0.000 NA
ATOM      4  S   UNL     1       5.005   3.479  18.657  0.00  0.00    +0.000 S 
ATOM      5  C   UNL     1       3.497   3.533  19.577  0.00  0.00    +0.000 A 
ATOM      6  C   UNL     1       3.143   2.675  20.610  0.00  0.00    +0.000 A 
ATOM      7  C   UNL     1       1.921   2.876  21.242  0.00  0.00    +0.000 A 
ATOM      8  C   UNL     1       1.086   3.922  20.831  0.00  0.00    +0.000 A 
ATOM      9  C   UNL     1       1.458   4.775  19.777  0.00  0.00    +0.000 A 
ATOM     10  C   UNL     1       2.676   4.585  19.134  0.00  0.00    +0.000 A 
ENDROOT
BRANCH   3  11
ATOM     11  C   UNL     1       6.376   4.870  16.292  0.00  0.00    +0.000 C 
ATOM     12  O   UNL     1       7.248   4.401  17.015  0.00  0.00    +0.000 OA
BRANCH  11  13
ATOM     13  C   UNL     1       6.539   4.737  14.811  0.00  0.00    +0.000 A 
ATOM     14  C   UNL     1       7.685   5.262  14.198  0.00  0.00    +0.000 A 
ATOM     15  C   UNL     1       7.888   5.103  12.827  0.00  0.00    +0.000 A 
ATOM     16  C   UNL     1       6.944   4.424  12.055  0.00  0.00    +0.000 A 
ATOM     17  C   UNL     1       5.783   3.903  12.647  0.00  0.00    +0.000 A 
ATOM     18  C   UNL     1       5.590   4.063  14.031  0.00  0.00    +0.000 A 
BRANCH  17  19
ATOM     19  C   UNL     1       4.745   3.174  11.831  0.00  0.00    +0.000 C 
ATOM     20  F   UNL     1       5.142   1.939  11.419  0.00  0.00    +0.000 F 
ATOM     21  F   UNL     1       3.583   2.985  12.516  0.00  0.00    +0.000 F 
ATOM     22  F   UNL     1       4.405   3.854  10.701  0.00  0.00    +0.000 F 
ENDBRANCH  17  19
ENDBRANCH  11  13
ENDBRANCH   3  11
BRANCH   1  23
ATOM     23  C   UNL     1       2.578   6.494  17.494  0.00  0.00    +0.000 C 
BRANCH  23  24
ATOM     24  C   UNL     1       3.011   7.784  18.202  0.00  0.00    +0.000 C 
BRANCH  24  25
ATOM     25  C   UNL     1       2.211   8.999  17.721  0.00  0.00    +0.000 C 
BRANCH  25  27
ATOM     26  C   UNL     1      -0.134   9.866  18.114  0.00  0.00    +0.000 C 
ATOM     27  C   UNL     1       1.168   9.420  18.760  0.00  0.00    +0.000 C 
ENDBRANCH  25  27
ENDBRANCH  24  25
ENDBRANCH  23  24
ENDBRANCH   1  23
TORSDOF 7
ENDMDL
MODEL 2
REMARK VINA RESULT:      -7.6      0.667      1.073
REMARK  Name = 
REMARK  8 active torsions:
REMARK  status: ('A' for Active; 'I' for Inactive)
REMARK    1  A    between atoms: C_1  and  C_2
REMARK    2  A    between atoms: C_2  and  C_3
REMARK    3  A    between atoms: C_3  and  C_4
REMARK    4  A    between atoms: C_4  and  C_5
REMARK    5  A    between atoms: C_5  and  N_6
REMARK    6  A    between atoms: N_8  and  C_9
REMARK    7  A    between atoms: C_9  and  C_11
REMARK    8  A    between atoms: C_15  and  C_16
REMARK                            x       y       z     vdW  Elec       q    Type
REMARK                         _______ _______ _______ _____ _____    ______ ____
ROOT
ATOM      1  N   UNL     1       3.962   6.004  18.010  0.00  0.00    +0.000 N 
ATOM      2  C   UNL     1       5.065   5.301  17.517  0.00  0.00    +0.000 A 
ATOM      3  N   UNL     1       5.902   5.769  16.645  0.00  0.00    +0.000 NA
ATOM      4  S   UNL     1       5.174   3.695  18.293  0.00  0.00    +0.000 S 
ATOM      5  C   UNL     1       3.715   4.013  19.239  0.00  0.00    +0.000 A 
ATOM      6  C   UNL     1       3.124   3.139  20.141  0.00  0.00    +0.000 A 
ATOM      7  C   UNL     1       1.986   3.563  20.818  0.00  0.00    +0.000 A 
ATOM      8  C   UNL     1       1.469   4.842  20.581  0.00  0.00    +0.000 A 
ATOM      9  C   UNL     1       2.076   5.710  19.656  0.00  0.00    +0.000 A 
ATOM     10  C   UNL     1       3.214   5.299  18.970  0.00  0.00    +0.000 A 
ENDROOT
BRANCH   3  11
ATOM     11  C   UNL     1       6.916   5.001  16.132  0.00  0.00    +0.000 C 
ATOM     12  O   UNL     1       7.731   4.355  16.782  0.00  0.00    +0.000 OA
BRANCH  11  13
ATOM     13  C   UNL     1       6.920   4.850  14.644  0.00  0.00    +0.000 A 
ATOM     14  C   UNL     1       7.969   5.409  13.902  0.00  0.00    +0.000 A 
ATOM     15  C   UNL     1       8.025   5.236  12.519  0.00  0.00    +0.000 A 
ATOM     16  C   UNL     1       7.030   4.508  11.865  0.00  0.00    +0.000 A 
ATOM     17  C   UNL     1       5.963   3.952  12.587  0.00  0.00    +0.000 A 
ATOM     18  C   UNL     1       5.918   4.127  13.982  0.00  0.00    +0.000 A 
BRANCH  17  19
ATOM     19  C   UNL     1       4.872   3.170  11.901  0.00  0.00    +0.000 C 
ATOM     20  F   UNL     1       4.412   3.757  10.762  0.00  0.00    +0.000 F 
ATOM     21  F   UNL     1       5.274   1.920  11.541  0.00  0.00    +0.000 F 
ATOM     22  F   UNL     1       3.782   2.996  12.698  0.00  0.00    +0.000 F 
ENDBRANCH  17  19
ENDBRANCH  11  13
ENDBRANCH   3  11
BRANCH   1  23
ATOM     23  C   UNL     1       3.662   7.383  17.630  0.00  0.00    +0.000 C 
BRANCH  23  24
ATOM     24  C   UNL     1       2.237   7.788  18.030  0.00  0.00    +0.000 C 
BRANCH  24  25
ATOM     25  C   UNL     1       1.993   9.289  17.840  0.00  0.00    +0.000 C 
BRANCH  25  27
ATOM     26  C   UNL     1       0.869   9.251  20.106  0.00  0.00    +0.000 C 
ATOM     27  C   UNL     1       0.801   9.764  18.676  0.00  0.00    +0.000 C 
ENDBRANCH  25  27
ENDBRANCH  24  25
ENDBRANCH  23  24
ENDBRANCH   1  23
TORSDOF 7
ENDMDL
MODEL 3
REMARK VINA RESULT:      -7.6      1.251      3.614
REMARK  Name = 
REMARK  8 active torsions:
REMARK  status: ('A' for Active; 'I' for Inactive)
REMARK    1  A    between atoms: C_1  and  C_2
REMARK    2  A    between atoms: C_2  and  C_3
REMARK    3  A    between atoms: C_3  and  C_4
REMARK    4  A    between atoms: C_4  and  C_5
REMARK    5  A    between atoms: C_5  and  N_6
REMARK    6  A    between atoms: N_8  and  C_9
REMARK    7  A    between atoms: C_9  and  C_11
REMARK    8  A    between atoms: C_15  and  C_16
REMARK                            x       y       z     vdW  Elec       q    Type
REMARK                         _______ _______ _______ _____ _____    ______ ____
ROOT
ATOM      1  N   UNL     1       3.766   4.761  17.699  0.00  0.00    +0.000 N 
ATOM      2  C   UNL     1       4.934   4.992  16.967  0.00  0.00    +0.000 A 
ATOM      3  N   UNL     1       5.714   4.059  16.519  0.00  0.00    +0.000 NA
ATOM      4  S   UNL     1       5.168   6.745  16.709  0.00  0.00    +0.000 S 
ATOM      5  C   UNL     1       3.695   7.111  17.616  0.00  0.00    +0.000 A 
ATOM      6  C   UNL     1       3.190   8.380  17.870  0.00  0.00    +0.000 A 
ATOM      7  C   UNL     1       2.002   8.483  18.584  0.00  0.00    +0.000 A 
ATOM      8  C   UNL     1       1.349   7.326  19.025  0.00  0.00    +0.000 A 
ATOM      9  C   UNL     1       1.881   6.051  18.766  0.00  0.00    +0.000 A 
ATOM     10  C   UNL     1       3.069   5.931  18.055  0.00  0.00    +0.000 A 
ENDROOT
BRANCH   3  11
ATOM     11  C   UNL     1       6.894   4.349  15.883  0.00  0.00    +0.000 C 
ATOM     12  O   UNL     1       7.996   4.440  16.413  0.00  0.00    +0.000 OA
BRANCH  11  13
ATOM     13  C   UNL     1       6.820   4.421  14.391  0.00  0.00    +0.000 A 
ATOM     14  C   UNL     1       7.822   5.104  13.688  0.00  0.00    +0.000 A 
ATOM     15  C   UNL     1       7.806   5.140  12.293  0.00  0.00    +0.000 A 
ATOM     16  C   UNL     1       6.786   4.498  11.590  0.00  0.00    +0.000 A 
ATOM     17  C   UNL     1       5.765   3.822  12.275  0.00  0.00    +0.000 A 
ATOM     18  C   UNL     1       5.793   3.786  13.681  0.00  0.00    +0.000 A 
BRANCH  17  19
ATOM     19  C   UNL     1       4.647   3.130  11.536  0.00  0.00    +0.000 C 
ATOM     20  F   UNL     1       3.535   2.926  12.293  0.00  0.00    +0.000 F 
ATOM     21  F   UNL     1       4.233   3.831  10.444  0.00  0.00    +0.000 F 
ATOM     22  F   UNL     1       5.015   1.903  11.073  0.00  0.00    +0.000 F 
ENDBRANCH  17  19
ENDBRANCH  11  13
ENDBRANCH   3  11
BRANCH   1  23
ATOM     23  C   UNL     1       3.260   3.421  17.991  0.00  0.00    +0.000 C 
BRANCH  23  24
ATOM     24  C   UNL     1       4.097   2.718  19.067  0.00  0.00    +0.000 C 
BRANCH  24  25
ATOM     25  C   UNL     1       3.444   2.806  20.451  0.00  0.00    +0.000 C 
BRANCH  25  27
ATOM     26  C   UNL     1       1.237   2.787  21.688  0.00  0.00    +0.000 C 
ATOM     27  C   UNL     1       1.948   2.495  20.375  0.00  0.00    +0.000 C 
ENDBRANCH  25  27
ENDBRANCH  24  25
ENDBRANCH  23  24
ENDBRANCH   1  23
TORSDOF 7
ENDMDL
MODEL 4
REMARK VINA RESULT:      -7.5      5.900      9.633
REMARK  Name = 
REMARK  8 active torsions:
REMARK  status: ('A' for Active; 'I' for Inactive)
REMARK    1  A    between atoms: C_1  and  C_2
REMARK    2  A    between atoms: C_2  and  C_3
REMARK    3  A    between atoms: C_3  and  C_4
REMARK    4  A    between atoms: C_4  and  C_5
REMARK    5  A    between atoms: C_5  and  N_6
REMARK    6  A    between atoms: N_8  and  C_9
REMARK    7  A    between atoms: C_9  and  C_11
REMARK    8  A    between atoms: C_15  and  C_16
REMARK                            x       y       z     vdW  Elec       q    Type
REMARK                         _______ _______ _______ _____ _____    ______ ____
ROOT
ATOM      1  N   UNL     1       2.844   5.958  19.518  0.00  0.00    +0.000 N 
ATOM      2  C   UNL     1       2.383   7.262  19.318  0.00  0.00    +0.000 A 
ATOM      3  N   UNL     1       1.589   7.890  20.127  0.00  0.00    +0.000 NA
ATOM      4  S   UNL     1       3.077   7.942  17.818  0.00  0.00    +0.000 S 
ATOM      5  C   UNL     1       3.949   6.437  17.497  0.00  0.00    +0.000 A 
ATOM      6  C   UNL     1       4.765   6.188  16.402  0.00  0.00    +0.000 A 
ATOM      7  C   UNL     1       5.393   4.951  16.319  0.00  0.00    +0.000 A 
ATOM      8  C   UNL     1       5.194   3.997  17.325  0.00  0.00    +0.000 A 
ATOM      9  C   UNL     1       4.356   4.265  18.421  0.00  0.00    +0.000 A 
ATOM     10  C   UNL     1       3.718   5.497  18.517  0.00  0.00    +0.000 A 
ENDROOT
BRANCH   3  11
ATOM     11  C   UNL     1       1.099   9.138  19.834  0.00  0.00    +0.000 C 
ATOM     12  O   UNL     1       1.121   9.682  18.736  0.00  0.00    +0.000 OA
BRANCH  11  13
ATOM     13  C   UNL     1       0.358   9.815  20.944  0.00  0.00    +0.000 A 
ATOM     14  C   UNL     1      -0.065   9.059  22.045  0.00  0.00    +0.000 A 
ATOM     15  C   UNL     1      -0.709   9.675  23.118  0.00  0.00    +0.000 A 
ATOM     16  C   UNL     1      -0.942  11.051  23.097  0.00  0.00    +0.000 A 
ATOM     17  C   UNL     1      -0.540  11.823  21.997  0.00  0.00    +0.000 A 
ATOM     18  C   UNL     1       0.114  11.194  20.922  0.00  0.00    +0.000 A 
BRANCH  17  19
ATOM     19  C   UNL     1      -0.790  13.309  21.946  0.00  0.00    +0.000 C 
ATOM     20  F   UNL     1      -1.148  13.762  20.714  0.00  0.00    +0.000 F 
ATOM     21  F   UNL     1      -1.785  13.699  22.791  0.00  0.00    +0.000 F 
ATOM     22  F   UNL     1       0.307  14.031  22.306  0.00  0.00    +0.000 F 
ENDBRANCH  17  19
ENDBRANCH  11  13
ENDBRANCH   3  11
BRANCH   1  23
ATOM     23  C   UNL     1       2.521   5.173  20.708  0.00  0.00    +0.000 C 
BRANCH  23  24
ATOM     24  C   UNL     1       1.190   4.426  20.555  0.00  0.00    +0.000 C 
BRANCH  24  25
ATOM     25  C   UNL     1       1.311   2.950  20.951  0.00  0.00    +0.000 C 
BRANCH  25  27
ATOM     26  C   UNL     1       1.067   2.615  18.456  0.00  0.00    +0.000 C 
ATOM     27  C   UNL     1       1.677   2.084  19.743  0.00  0.00    +0.000 C 
ENDBRANCH  25  27
ENDBRANCH  24  25
ENDBRANCH  23  24
ENDBRANCH   1  23
TORSDOF 7
ENDMDL
MODEL 5
REMARK VINA RESULT:      -7.5      5.241      7.114
REMARK  Name = 
REMARK  8 active torsions:
REMARK  status: ('A' for Active; 'I' for Inactive)
REMARK    1  A    between atoms: C_1  and  C_2
REMARK    2  A    between atoms: C_2  and  C_3
REMARK    3  A    between atoms: C_3  and  C_4
REMARK    4  A    between atoms: C_4  and  C_5
REMARK    5  A    between atoms: C_5  and  N_6
REMARK    6  A    between atoms: N_8  and  C_9
REMARK    7  A    between atoms: C_9  and  C_11
REMARK    8  A    between atoms: C_15  and  C_16
REMARK                            x       y       z     vdW  Elec       q    Type
REMARK                         _______ _______ _______ _____ _____    ______ ____
ROOT
ATOM      1  N   UNL     1       0.570   9.561  19.259  0.00  0.00    +0.000 N 
ATOM      2  C   UNL     1       1.521   8.537  19.292  0.00  0.00    +0.000 A 
ATOM      3  N   UNL     1       2.108   8.050  18.244  0.00  0.00    +0.000 NA
ATOM      4  S   UNL     1       1.834   8.035  20.978  0.00  0.00    +0.000 S 
ATOM      5  C   UNL     1       0.656   9.205  21.583  0.00  0.00    +0.000 A 
ATOM      6  C   UNL     1       0.316   9.403  22.915  0.00  0.00    +0.000 A 
ATOM      7  C   UNL     1      -0.620  10.386  23.215  0.00  0.00    +0.000 A 
ATOM      8  C   UNL     1      -1.191  11.144  22.187  0.00  0.00    +0.000 A 
ATOM      9  C   UNL     1      -0.841  10.922  20.843  0.00  0.00    +0.000 A 
ATOM     10  C   UNL     1       0.092   9.941  20.526  0.00  0.00    +0.000 A 
ENDROOT
BRANCH   3  11
ATOM     11  C   UNL     1       2.969   6.985  18.328  0.00  0.00    +0.000 C 
ATOM     12  O   UNL     1       4.193   7.041  18.288  0.00  0.00    +0.000 OA
BRANCH  11  13
ATOM     13  C   UNL     1       2.332   5.665  18.630  0.00  0.00    +0.000 A 
ATOM     14  C   UNL     1       1.604   5.011  17.628  0.00  0.00    +0.000 A 
ATOM     15  C   UNL     1       1.046   3.755  17.866  0.00  0.00    +0.000 A 
ATOM     16  C   UNL     1       1.206   3.145  19.111  0.00  0.00    +0.000 A 
ATOM     17  C   UNL     1       1.918   3.789  20.133  0.00  0.00    +0.000 A 
ATOM     18  C   UNL     1       2.481   5.053  19.882  0.00  0.00    +0.000 A 
BRANCH  17  19
ATOM     19  C   UNL     1       2.094   3.154  21.489  0.00  0.00    +0.000 C 
ATOM     20  F   UNL     1       2.409   4.041  22.472  0.00  0.00    +0.000 F 
ATOM     21  F   UNL     1       0.972   2.510  21.913  0.00  0.00    +0.000 F 
ATOM     22  F   UNL     1       3.085   2.220  21.498  0.00  0.00    +0.000 F 
ENDBRANCH  17  19
ENDBRANCH  11  13
ENDBRANCH   3  11
BRANCH   1  23
ATOM     23  C   UNL     1       0.172  10.240  18.028  0.00  0.00    +0.000 C 
BRANCH  23  24
ATOM     24  C   UNL     1      -1.102   9.634  17.426  0.00  0.00    +0.000 C 
BRANCH  24  25
ATOM     25  C   UNL     1      -2.351  10.445  17.789  0.00  0.00    +0.000 C 
BRANCH  25  27
ATOM     26  C   UNL     1      -2.792   9.856  15.368  0.00  0.00    +0.000 C 
ATOM     27  C   UNL     1      -3.383  10.402  16.659  0.00  0.00    +0.000 C 
ENDBRANCH  25  27
ENDBRANCH  24  25
ENDBRANCH  23  24
ENDBRANCH   1  23
TORSDOF 7
ENDMDL
MODEL 6
REMARK VINA RESULT:      -7.5      4.029      7.505
REMARK  Name = 
REMARK  8 active torsions:
REMARK  status: ('A' for Active; 'I' for Inactive)
REMARK    1  A    between atoms: C_1  and  C_2
REMARK    2  A    between atoms: C_2  and  C_3
REMARK    3  A    between atoms: C_3  and  C_4
REMARK    4  A    between atoms: C_4  and  C_5
REMARK    5  A    between atoms: C_5  and  N_6
REMARK    6  A    between atoms: N_8  and  C_9
REMARK    7  A    between atoms: C_9  and  C_11
REMARK    8  A    between atoms: C_15  and  C_16
REMARK                            x       y       z     vdW  Elec       q    Type
REMARK                         _______ _______ _______ _____ _____    ______ ____
ROOT
ATOM      1  N   UNL     1       6.744   4.814  17.275  0.00  0.00    +0.000 N 
ATOM      2  C   UNL     1       5.746   4.068  17.908  0.00  0.00    +0.000 A 
ATOM      3  N   UNL     1       5.556   4.039  19.189  0.00  0.00    +0.000 NA
ATOM      4  S   UNL     1       4.755   3.204  16.697  0.00  0.00    +0.000 S 
ATOM      5  C   UNL     1       5.734   3.857  15.378  0.00  0.00    +0.000 A 
ATOM      6  C   UNL     1       5.556   3.595  14.026  0.00  0.00    +0.000 A 
ATOM      7  C   UNL     1       6.408   4.214  13.119  0.00  0.00    +0.000 A 
ATOM      8  C   UNL     1       7.411   5.075  13.578  0.00  0.00    +0.000 A 
ATOM      9  C   UNL     1       7.582   5.321  14.952  0.00  0.00    +0.000 A 
ATOM     10  C   UNL     1       6.739   4.708  15.872  0.00  0.00    +0.000 A 
ENDROOT
BRANCH   3  11
ATOM     11  C   UNL     1       4.616   3.219  19.761  0.00  0.00    +0.000 C 
ATOM     12  O   UNL     1       4.818   2.103  20.225  0.00  0.00    +0.000 OA
BRANCH  11  13
ATOM     13  C   UNL     1       3.260   3.824  19.942  0.00  0.00    +0.000 A 
ATOM     14  C   UNL     1       2.140   2.985  20.017  0.00  0.00    +0.000 A 
ATOM     15  C   UNL     1       0.871   3.519  20.240  0.00  0.00    +0.000 A 
ATOM     16  C   UNL     1       0.709   4.898  20.384  0.00  0.00    +0.000 A 
ATOM     17  C   UNL     1       1.815   5.757  20.297  0.00  0.00    +0.000 A 
ATOM     18  C   UNL     1       3.091   5.209  20.077  0.00  0.00    +0.000 A 
BRANCH  17  19
ATOM     19  C   UNL     1       1.662   7.251  20.439  0.00  0.00    +0.000 C 
ATOM     20  F   UNL     1       0.436   7.635  20.887  0.00  0.00    +0.000 F 
ATOM     21  F   UNL     1       2.563   7.786  21.309  0.00  0.00    +0.000 F 
ATOM     22  F   UNL     1       1.851   7.904  19.259  0.00  0.00    +0.000 F 
ENDBRANCH  17  19
ENDBRANCH  11  13
ENDBRANCH   3  11
BRANCH   1  23
ATOM     23  C   UNL     1       7.657   5.698  17.997  0.00  0.00    +0.000 C 
BRANCH  23  24
ATOM     24  C   UNL     1       7.403   7.174  17.668  0.00  0.00    +0.000 C 
BRANCH  24  25
ATOM     25  C   UNL     1       8.326   8.107  18.460  0.00  0.00    +0.000 C 
BRANCH  25  27
ATOM     26  C   UNL     1       9.200  10.472  18.663  0.00  0.00    +0.000 C 
ATOM     27  C   UNL     1       8.248   9.541  17.930  0.00  0.00    +0.000 C 
ENDBRANCH  25  27
ENDBRANCH  24  25
ENDBRANCH  23  24
ENDBRANCH   1  23
TORSDOF 7
ENDMDL
MODEL 7
REMARK VINA RESULT:      -7.5      4.306      7.878
REMARK  Name = 
REMARK  8 active torsions:
REMARK  status: ('A' for Active; 'I' for Inactive)
REMARK    1  A    between atoms: C_1  and  C_2
REMARK    2  A    between atoms: C_2  and  C_3
REMARK    3  A    between atoms: C_3  and  C_4
REMARK    4  A    between atoms: C_4  and  C_5
REMARK    5  A    between atoms: C_5  and  N_6
REMARK    6  A    between atoms: N_8  and  C_9
REMARK    7  A    between atoms: C_9  and  C_11
REMARK    8  A    between atoms: C_15  and  C_16
REMARK                            x       y       z     vdW  Elec       q    Type
REMARK                         _______ _______ _______ _____ _____    ______ ____
ROOT
ATOM      1  N   UNL     1       3.025   5.905  18.483  0.00  0.00    +0.000 N 
ATOM      2  C   UNL     1       2.264   6.576  19.444  0.00  0.00    +0.000 A 
ATOM      3  N   UNL     1       2.219   7.864  19.575  0.00  0.00    +0.000 NA
ATOM      4  S   UNL     1       1.338   5.406  20.429  0.00  0.00    +0.000 S 
ATOM      5  C   UNL     1       2.026   4.049  19.528  0.00  0.00    +0.000 A 
ATOM      6  C   UNL     1       1.760   2.705  19.753  0.00  0.00    +0.000 A 
ATOM      7  C   UNL     1       2.375   1.767  18.932  0.00  0.00    +0.000 A 
ATOM      8  C   UNL     1       3.234   2.190  17.910  0.00  0.00    +0.000 A 
ATOM      9  C   UNL     1       3.498   3.555  17.704  0.00  0.00    +0.000 A 
ATOM     10  C   UNL     1       2.892   4.505  18.518  0.00  0.00    +0.000 A 
ENDROOT
BRANCH   3  11
ATOM     11  C   UNL     1       1.522   8.463  20.593  0.00  0.00    +0.000 C 
ATOM     12  O   UNL     1       1.650   8.230  21.790  0.00  0.00    +0.000 OA
BRANCH  11  13
ATOM     13  C   UNL     1       0.629   9.592  20.185  0.00  0.00    +0.000 A 
ATOM     14  C   UNL     1       0.723  10.817  20.859  0.00  0.00    +0.000 A 
ATOM     15  C   UNL     1      -0.059  11.902  20.463  0.00  0.00    +0.000 A 
ATOM     16  C   UNL     1      -0.946  11.770  19.393  0.00  0.00    +0.000 A 
ATOM     17  C   UNL     1      -1.066  10.548  18.715  0.00  0.00    +0.000 A 
ATOM     18  C   UNL     1      -0.270   9.461  19.118  0.00  0.00    +0.000 A 
BRANCH  17  19
ATOM     19  C   UNL     1      -2.025  10.379  17.563  0.00  0.00    +0.000 C 
ATOM     20  F   UNL     1      -2.257  11.528  16.872  0.00  0.00    +0.000 F 
ATOM     21  F   UNL     1      -1.584   9.474  16.647  0.00  0.00    +0.000 F 
ATOM     22  F   UNL     1      -3.246   9.934  17.969  0.00  0.00    +0.000 F 
ENDBRANCH  17  19
ENDBRANCH  11  13
ENDBRANCH   3  11
BRANCH   1  23
ATOM     23  C   UNL     1       3.820   6.598  17.471  0.00  0.00    +0.000 C 
BRANCH  23  24
ATOM     24  C   UNL     1       5.313   6.605  17.823  0.00  0.00    +0.000 C 
BRANCH  24  25
ATOM     25  C   UNL     1       6.169   6.000  16.704  0.00  0.00    +0.000 C 
BRANCH  25  27
ATOM     26  C   UNL     1       5.797   4.554  14.662  0.00  0.00    +0.000 C 
ATOM     27  C   UNL     1       5.343   5.782  15.434  0.00  0.00    +0.000 C 
ENDBRANCH  25  27
ENDBRANCH  24  25
ENDBRANCH  23  24
ENDBRANCH   1  23
TORSDOF 7
ENDMDL
MODEL 8
REMARK VINA RESULT:      -7.5      4.720      8.122
REMARK  Name = 
REMARK  8 active torsions:
REMARK  status: ('A' for Active; 'I' for Inactive)
REMARK    1  A    between atoms: C_1  and  C_2
REMARK    2  A    between atoms: C_2  and  C_3
REMARK    3  A    between atoms: C_3  and  C_4
REMARK    4  A    between atoms: C_4  and  C_5
REMARK    5  A    between atoms: C_5  and  N_6
REMARK    6  A    between atoms: N_8  and  C_9
REMARK    7  A    between atoms: C_9  and  C_11
REMARK    8  A    between atoms: C_15  and  C_16
REMARK                            x       y       z     vdW  Elec       q    Type
REMARK                         _______ _______ _______ _____ _____    ______ ____
ROOT
ATOM      1  N   UNL     1      -1.058  11.505  19.750  0.00  0.00    +0.000 N 
ATOM      2  C   UNL     1      -0.294  10.613  18.992  0.00  0.00    +0.000 A 
ATOM      3  N   UNL     1       0.940  10.308  19.244  0.00  0.00    +0.000 NA
ATOM      4  S   UNL     1      -1.274   9.931  17.662  0.00  0.00    +0.000 S 
ATOM      5  C   UNL     1      -2.676  10.888  18.158  0.00  0.00    +0.000 A 
ATOM      6  C   UNL     1      -3.917  10.896  17.534  0.00  0.00    +0.000 A 
ATOM      7  C   UNL     1      -4.917  11.697  18.073  0.00  0.00    +0.000 A 
ATOM      8  C   UNL     1      -4.659  12.464  19.214  0.00  0.00    +0.000 A 
ATOM      9  C   UNL     1      -3.393  12.450  19.826  0.00  0.00    +0.000 A 
ATOM     10  C   UNL     1      -2.381  11.656  19.298  0.00  0.00    +0.000 A 
ENDROOT
BRANCH   3  11
ATOM     11  C   UNL     1       1.667   9.493  18.413  0.00  0.00    +0.000 C 
ATOM     12  O   UNL     1       2.188   9.823  17.354  0.00  0.00    +0.000 OA
BRANCH  11  13
ATOM     13  C   UNL     1       1.944   8.121  18.940  0.00  0.00    +0.000 A 
ATOM     14  C   UNL     1       1.619   7.819  20.269  0.00  0.00    +0.000 A 
ATOM     15  C   UNL     1       1.816   6.532  20.769  0.00  0.00    +0.000 A 
ATOM     16  C   UNL     1       2.346   5.536  19.946  0.00  0.00    +0.000 A 
ATOM     17  C   UNL     1       2.692   5.822  18.617  0.00  0.00    +0.000 A 
ATOM     18  C   UNL     1       2.485   7.121  18.120  0.00  0.00    +0.000 A 
BRANCH  17  19
ATOM     19  C   UNL     1       3.276   4.765  17.713  0.00  0.00    +0.000 C 
ATOM     20  F   UNL     1       4.080   5.266  16.735  0.00  0.00    +0.000 F 
ATOM     21  F   UNL     1       4.032   3.859  18.391  0.00  0.00    +0.000 F 
ATOM     22  F   UNL     1       2.314   4.044  17.073  0.00  0.00    +0.000 F 
ENDBRANCH  17  19
ENDBRANCH  11  13
ENDBRANCH   3  11
BRANCH   1  23
ATOM     23  C   UNL     1      -0.556  12.155  20.959  0.00  0.00    +0.000 C 
BRANCH  23  24
ATOM     24  C   UNL     1      -0.650  11.235  22.183  0.00  0.00    +0.000 C 
BRANCH  24  25
ATOM     25  C   UNL     1      -1.822  11.612  23.096  0.00  0.00    +0.000 C 
BRANCH  25  27
ATOM     26  C   UNL     1      -3.268  13.545  23.854  0.00  0.00    +0.000 C 
ATOM     27  C   UNL     1      -1.937  13.131  23.246  0.00  0.00    +0.000 C 
ENDBRANCH  25  27
ENDBRANCH  24  25
ENDBRANCH  23  24
ENDBRANCH   1  23
TORSDOF 7
ENDMDL
MODEL 9
REMARK VINA RESULT:      -7.4      3.701      7.284
REMARK  Name = 
REMARK  8 active torsions:
REMARK  status: ('A' for Active; 'I' for Inactive)
REMARK    1  A    between atoms: C_1  and  C_2
REMARK    2  A    between atoms: C_2  and  C_3
REMARK    3  A    between atoms: C_3  and  C_4
REMARK    4  A    between atoms: C_4  and  C_5
REMARK    5  A    between atoms: C_5  and  N_6
REMARK    6  A    between atoms: N_8  and  C_9
REMARK    7  A    between atoms: C_9  and  C_11
REMARK    8  A    between atoms: C_15  and  C_16
REMARK                            x       y       z     vdW  Elec       q    Type
REMARK                         _______ _______ _______ _____ _____    ______ ____
ROOT
ATOM      1  N   UNL     1       6.928   5.217  16.285  0.00  0.00    +0.000 N 
ATOM      2  C   UNL     1       5.931   4.648  17.082  0.00  0.00    +0.000 A 
ATOM      3  N   UNL     1       5.806   4.852  18.356  0.00  0.00    +0.000 NA
ATOM      4  S   UNL     1       4.841   3.641  16.086  0.00  0.00    +0.000 S 
ATOM      5  C   UNL     1       5.779   4.001  14.632  0.00  0.00    +0.000 A 
ATOM      6  C   UNL     1       5.520   3.518  13.356  0.00  0.00    +0.000 A 
ATOM      7  C   UNL     1       6.351   3.923  12.318  0.00  0.00    +0.000 A 
ATOM      8  C   UNL     1       7.414   4.797  12.575  0.00  0.00    +0.000 A 
ATOM      9  C   UNL     1       7.667   5.268  13.875  0.00  0.00    +0.000 A 
ATOM     10  C   UNL     1       6.846   4.870  14.925  0.00  0.00    +0.000 A 
ENDROOT
BRANCH   3  11
ATOM     11  C   UNL     1       4.861   4.196  19.103  0.00  0.00    +0.000 C 
ATOM     12  O   UNL     1       4.967   3.068  19.572  0.00  0.00    +0.000 OA
BRANCH  11  13
ATOM     13  C   UNL     1       3.659   5.005  19.474  0.00  0.00    +0.000 A 
ATOM     14  C   UNL     1       2.797   4.533  20.473  0.00  0.00    +0.000 A 
ATOM     15  C   UNL     1       1.700   5.294  20.876  0.00  0.00    +0.000 A 
ATOM     16  C   UNL     1       1.451   6.531  20.280  0.00  0.00    +0.000 A 
ATOM     17  C   UNL     1       2.292   7.015  19.267  0.00  0.00    +0.000 A 
ATOM     18  C   UNL     1       3.400   6.243  18.871  0.00  0.00    +0.000 A 
BRANCH  17  19
ATOM     19  C   UNL     1       2.037   8.344  18.602  0.00  0.00    +0.000 C 
ATOM     20  F   UNL     1       3.157   8.923  18.088  0.00  0.00    +0.000 F 
ATOM     21  F   UNL     1       1.158   8.247  17.566  0.00  0.00    +0.000 F 
ATOM     22  F   UNL     1       1.503   9.257  19.459  0.00  0.00    +0.000 F 
ENDBRANCH  17  19
ENDBRANCH  11  13
ENDBRANCH   3  11
BRANCH   1  23
ATOM     23  C   UNL     1       7.917   6.163  16.800  0.00  0.00    +0.000 C 
BRANCH  23  24
ATOM     24  C   UNL     1       7.270   7.485  17.235  0.00  0.00    +0.000 C 
BRANCH  24  25
ATOM     25  C   UNL     1       8.154   8.260  18.218  0.00  0.00    +0.000 C 
BRANCH  25  27
ATOM     26  C   UNL     1       9.322  10.483  18.526  0.00  0.00    +0.000 C 
ATOM     27  C   UNL     1       8.133   9.760  17.914  0.00  0.00    +0.000 C 
ENDBRANCH  25  27
ENDBRANCH  24  25
ENDBRANCH  23  24
ENDBRANCH   1  23
TORSDOF 7
ENDMDL
