MODEL 1
REMARK VINA RESULT:      -7.4      0.000      0.000
REMARK  Name = 
REMARK  3 active torsions:
REMARK  status: ('A' for Active; 'I' for Inactive)
REMARK    1  A    between atoms: C_2  and  C_26
REMARK    2  A    between atoms: N_3  and  C_4
REMARK    3  A    between atoms: C_15  and  C_16
REMARK                            x       y       z     vdW  Elec       q    Type
REMARK                         _______ _______ _______ _____ _____    ______ ____
ROOT
ATOM      1  C   UNL     1      -2.191  15.510  21.541  0.00  0.00    +0.000 A 
ATOM      2  C   UNL     1      -1.523  16.743  21.392  0.00  0.00    +0.000 A 
ATOM      3  N   UNL     1      -0.577  16.714  20.451  0.00  0.00    +0.000 NA
ATOM      4  N   UNL     1      -0.625  15.446  19.978  0.00  0.00    +0.000 N 
ATOM      5  C   UNL     1       0.230  14.864  19.062  0.00  0.00    +0.000 A 
ATOM      6  C   UNL     1       0.038  13.602  18.666  0.00  0.00    +0.000 A 
ATOM      7  C   UNL     1      -1.203  12.914  19.172  0.00  0.00    +0.000 A 
ATOM      8  N   UNL     1      -1.580  11.700  18.630  0.00  0.00    +0.000 N 
ATOM      9  C   UNL     1      -2.857  11.587  17.932  0.00  0.00    +0.000 C 
ATOM     10  C   UNL     1      -2.973  10.099  17.656  0.00  0.00    +0.000 C 
ATOM     11  C   UNL     1      -1.541   9.707  17.319  0.00  0.00    +0.000 C 
ATOM     12  C   UNL     1      -0.661  10.649  18.170  0.00  0.00    +0.000 C 
ATOM     13  N   UNL     1      -1.989  13.453  20.090  0.00  0.00    +0.000 NA
ATOM     14  C   UNL     1      -1.664  14.706  20.544  0.00  0.00    +0.000 A 
ENDROOT
BRANCH  12  15
ATOM     15  C   UNL     1      -0.013   9.912  19.329  0.00  0.00    +0.000 A 
ATOM     16  C   UNL     1      -0.631   9.892  20.595  0.00  0.00    +0.000 A 
ATOM     17  C   UNL     1      -0.088   9.152  21.641  0.00  0.00    +0.000 A 
ATOM     18  F   UNL     1      -0.692   9.162  22.837  0.00  0.00    +0.000 F 
ATOM     19  C   UNL     1       1.059   8.397  21.460  0.00  0.00    +0.000 A 
ATOM     20  C   UNL     1       1.698   8.412  20.221  0.00  0.00    +0.000 A 
ATOM     21  C   UNL     1       1.174   9.173  19.167  0.00  0.00    +0.000 A 
ATOM     22 CL   UNL     1       2.054   9.165  17.679  0.00  0.00    +0.000 Cl
ENDBRANCH  12  15
BRANCH   1  25
ATOM     23  O   UNL     1      -1.793  13.788  23.761  0.00  0.00    +0.000 OA
ATOM     24  C   UNL     1      -2.914  14.225  23.488  0.00  0.00    +0.000 C 
ATOM     25  N   UNL     1      -3.157  15.114  22.451  0.00  0.00    +0.000 N 
ATOM     26  H   UNL     1      -4.083  15.504  22.307  0.00  0.00    +0.000 HD
BRANCH  24  27
ATOM     27  C   UNL     1      -4.175  13.831  24.289  0.00  0.00    +0.000 C 
ATOM     28  C   UNL     1      -5.448  13.461  23.486  0.00  0.00    +0.000 C 
ATOM     29  N   UNL     1      -5.724  12.423  24.508  0.00  0.00    +0.000 NA
ATOM     30  C   UNL     1      -4.270  12.371  24.784  0.00  0.00    +0.000 C 
ATOM     31  H   UNL     1      -6.119  11.560  24.137  0.00  0.00    +0.000 HD
ENDBRANCH  24  27
ENDBRANCH   1  25
TORSDOF 3
ENDMDL
MODEL 2
REMARK VINA RESULT:      -7.0      1.156      1.235
REMARK  Name = 
REMARK  3 active torsions:
REMARK  status: ('A' for Active; 'I' for Inactive)
REMARK    1  A    between atoms: C_2  and  C_26
REMARK    2  A    between atoms: N_3  and  C_4
REMARK    3  A    between atoms: C_15  and  C_16
REMARK                            x       y       z     vdW  Elec       q    Type
REMARK                         _______ _______ _______ _____ _____    ______ ____
ROOT
ATOM      1  C   UNL     1      -2.513  15.425  21.786  0.00  0.00    +0.000 A 
ATOM      2  C   UNL     1      -1.903  16.691  21.669  0.00  0.00    +0.000 A 
ATOM      3  N   UNL     1      -0.960  16.731  20.727  0.00  0.00    +0.000 NA
ATOM      4  N   UNL     1      -0.951  15.476  20.219  0.00  0.00    +0.000 N 
ATOM      5  C   UNL     1      -0.073  14.958  19.286  0.00  0.00    +0.000 A 
ATOM      6  C   UNL     1      -0.208  13.700  18.856  0.00  0.00    +0.000 A 
ATOM      7  C   UNL     1      -1.415  12.942  19.345  0.00  0.00    +0.000 A 
ATOM      8  N   UNL     1      -1.737  11.727  18.770  0.00  0.00    +0.000 N 
ATOM      9  C   UNL     1      -3.010  11.575  18.072  0.00  0.00    +0.000 C 
ATOM     10  C   UNL     1      -3.059  10.092  17.756  0.00  0.00    +0.000 C 
ATOM     11  C   UNL     1      -1.612   9.775  17.406  0.00  0.00    +0.000 C 
ATOM     12  C   UNL     1      -0.773  10.733  18.281  0.00  0.00    +0.000 C 
ATOM     13  N   UNL     1      -2.222  13.420  20.279  0.00  0.00    +0.000 NA
ATOM     14  C   UNL     1      -1.953  14.674  20.767  0.00  0.00    +0.000 A 
ENDROOT
BRANCH  12  15
ATOM     15  C   UNL     1      -0.089   9.995  19.418  0.00  0.00    +0.000 A 
ATOM     16  C   UNL     1      -0.673   9.962  20.699  0.00  0.00    +0.000 A 
ATOM     17  C   UNL     1      -0.097   9.221  21.726  0.00  0.00    +0.000 A 
ATOM     18  F   UNL     1      -0.669   9.218  22.937  0.00  0.00    +0.000 F 
ATOM     19  C   UNL     1       1.052   8.477  21.511  0.00  0.00    +0.000 A 
ATOM     20  C   UNL     1       1.658   8.506  20.256  0.00  0.00    +0.000 A 
ATOM     21  C   UNL     1       1.100   9.268  19.221  0.00  0.00    +0.000 A 
ATOM     22 CL   UNL     1       1.942   9.276  17.710  0.00  0.00    +0.000 Cl
ENDBRANCH  12  15
BRANCH   1  25
ATOM     23  O   UNL     1      -5.298  15.960  21.711  0.00  0.00    +0.000 OA
ATOM     24  C   UNL     1      -4.802  15.301  22.628  0.00  0.00    +0.000 C 
ATOM     25  N   UNL     1      -3.458  14.961  22.686  0.00  0.00    +0.000 N 
ATOM     26  H   UNL     1      -3.107  14.357  23.422  0.00  0.00    +0.000 HD
BRANCH  24  27
ATOM     27  C   UNL     1      -5.638  14.773  23.815  0.00  0.00    +0.000 C 
ATOM     28  C   UNL     1      -7.182  14.825  23.684  0.00  0.00    +0.000 C 
ATOM     29  N   UNL     1      -7.231  13.527  24.399  0.00  0.00    +0.000 NA
ATOM     30  C   UNL     1      -5.868  13.247  23.893  0.00  0.00    +0.000 C 
ATOM     31  H   UNL     1      -7.950  12.888  24.063  0.00  0.00    +0.000 HD
ENDBRANCH  24  27
ENDBRANCH   1  25
TORSDOF 3
ENDMDL
MODEL 3
REMARK VINA RESULT:      -6.9      1.388      1.660
REMARK  Name = 
REMARK  3 active torsions:
REMARK  status: ('A' for Active; 'I' for Inactive)
REMARK    1  A    between atoms: C_2  and  C_26
REMARK    2  A    between atoms: N_3  and  C_4
REMARK    3  A    between atoms: C_15  and  C_16
REMARK                            x       y       z     vdW  Elec       q    Type
REMARK                         _______ _______ _______ _____ _____    ______ ____
ROOT
ATOM      1  C   UNL     1      -0.319  16.030  20.901  0.00  0.00    +0.000 A 
ATOM      2  C   UNL     1       0.635  17.017  20.578  0.00  0.00    +0.000 A 
ATOM      3  N   UNL     1       1.505  16.618  19.648  0.00  0.00    +0.000 NA
ATOM      4  N   UNL     1       1.117  15.354  19.358  0.00  0.00    +0.000 N 
ATOM      5  C   UNL     1       1.758  14.453  18.530  0.00  0.00    +0.000 A 
ATOM      6  C   UNL     1       1.235  13.241  18.316  0.00  0.00    +0.000 A 
ATOM      7  C   UNL     1      -0.119  12.972  18.917  0.00  0.00    +0.000 A 
ATOM      8  N   UNL     1      -0.814  11.834  18.551  0.00  0.00    +0.000 N 
ATOM      9  C   UNL     1      -2.104  11.962  17.880  0.00  0.00    +0.000 C 
ATOM     10  C   UNL     1      -2.606  10.531  17.816  0.00  0.00    +0.000 C 
ATOM     11  C   UNL     1      -1.336   9.741  17.533  0.00  0.00    +0.000 C 
ATOM     12  C   UNL     1      -0.213  10.530  18.241  0.00  0.00    +0.000 C 
ATOM     13  N   UNL     1      -0.706  13.814  19.752  0.00  0.00    +0.000 NA
ATOM     14  C   UNL     1      -0.054  14.990  20.025  0.00  0.00    +0.000 A 
ENDROOT
BRANCH  12  15
ATOM     15  C   UNL     1       0.271   9.814  19.490  0.00  0.00    +0.000 A 
ATOM     16  C   UNL     1      -0.372  10.026  20.726  0.00  0.00    +0.000 A 
ATOM     17  C   UNL     1       0.010   9.314  21.858  0.00  0.00    +0.000 A 
ATOM     18  F   UNL     1      -0.611   9.546  23.023  0.00  0.00    +0.000 F 
ATOM     19  C   UNL     1       1.014   8.361  21.798  0.00  0.00    +0.000 A 
ATOM     20  C   UNL     1       1.675   8.143  20.590  0.00  0.00    +0.000 A 
ATOM     21  C   UNL     1       1.316   8.872  19.448  0.00  0.00    +0.000 A 
ATOM     22 CL   UNL     1       2.217   8.565  18.004  0.00  0.00    +0.000 Cl
ENDBRANCH  12  15
BRANCH   1  25
ATOM     23  O   UNL     1      -0.130  14.922  23.506  0.00  0.00    +0.000 OA
ATOM     24  C   UNL     1      -1.185  15.417  23.101  0.00  0.00    +0.000 C 
ATOM     25  N   UNL     1      -1.318  16.023  21.860  0.00  0.00    +0.000 N 
ATOM     26  H   UNL     1      -2.184  16.481  21.596  0.00  0.00    +0.000 HD
BRANCH  24  27
ATOM     27  C   UNL     1      -2.477  15.423  23.948  0.00  0.00    +0.000 C 
ATOM     28  C   UNL     1      -3.217  14.074  24.136  0.00  0.00    +0.000 C 
ATOM     29  N   UNL     1      -3.526  14.500  25.521  0.00  0.00    +0.000 NA
ATOM     30  C   UNL     1      -2.316  15.353  25.482  0.00  0.00    +0.000 C 
ATOM     31  H   UNL     1      -3.497  13.749  26.210  0.00  0.00    +0.000 HD
ENDBRANCH  24  27
ENDBRANCH   1  25
TORSDOF 3
ENDMDL
MODEL 4
REMARK VINA RESULT:      -6.6      4.022      6.923
REMARK  Name = 
REMARK  3 active torsions:
REMARK  status: ('A' for Active; 'I' for Inactive)
REMARK    1  A    between atoms: C_2  and  C_26
REMARK    2  A    between atoms: N_3  and  C_4
REMARK    3  A    between atoms: C_15  and  C_16
REMARK                            x       y       z     vdW  Elec       q    Type
REMARK                         _______ _______ _______ _____ _____    ______ ____
ROOT
ATOM      1  C   UNL     1      -2.357  11.218  18.487  0.00  0.00    +0.000 A 
ATOM      2  C   UNL     1      -1.715  10.030  18.082  0.00  0.00    +0.000 A 
ATOM      3  N   UNL     1      -0.385  10.103  18.156  0.00  0.00    +0.000 NA
ATOM      4  N   UNL     1      -0.153  11.356  18.615  0.00  0.00    +0.000 N 
ATOM      5  C   UNL     1       1.073  11.976  18.765  0.00  0.00    +0.000 A 
ATOM      6  C   UNL     1       1.147  13.215  19.262  0.00  0.00    +0.000 A 
ATOM      7  C   UNL     1      -0.140  13.828  19.750  0.00  0.00    +0.000 A 
ATOM      8  N   UNL     1      -0.103  15.003  20.476  0.00  0.00    +0.000 N 
ATOM      9  C   UNL     1      -0.594  15.016  21.851  0.00  0.00    +0.000 C 
ATOM     10  C   UNL     1      -0.551  16.487  22.221  0.00  0.00    +0.000 C 
ATOM     11  C   UNL     1       0.725  16.968  21.545  0.00  0.00    +0.000 C 
ATOM     12  C   UNL     1       0.848  16.104  20.271  0.00  0.00    +0.000 C 
ATOM     13  N   UNL     1      -1.317  13.255  19.556  0.00  0.00    +0.000 NA
ATOM     14  C   UNL     1      -1.331  12.036  18.927  0.00  0.00    +0.000 A 
ENDROOT
BRANCH  12  15
ATOM     15  C   UNL     1       0.531  16.905  19.020  0.00  0.00    +0.000 A 
ATOM     16  C   UNL     1      -0.776  17.380  18.791  0.00  0.00    +0.000 A 
ATOM     17  C   UNL     1      -1.059  18.184  17.692  0.00  0.00    +0.000 A 
ATOM     18  F   UNL     1      -2.313  18.611  17.493  0.00  0.00    +0.000 F 
ATOM     19  C   UNL     1      -0.061  18.558  16.806  0.00  0.00    +0.000 A 
ATOM     20  C   UNL     1       1.237  18.089  17.002  0.00  0.00    +0.000 A 
ATOM     21  C   UNL     1       1.529  17.259  18.093  0.00  0.00    +0.000 A 
ATOM     22 CL   UNL     1       3.156  16.691  18.235  0.00  0.00    +0.000 Cl
ENDBRANCH  12  15
BRANCH   1  25
ATOM     23  O   UNL     1      -4.029  11.352  16.198  0.00  0.00    +0.000 OA
ATOM     24  C   UNL     1      -4.452  11.665  17.314  0.00  0.00    +0.000 C 
ATOM     25  N   UNL     1      -3.698  11.565  18.474  0.00  0.00    +0.000 N 
ATOM     26  H   UNL     1      -4.110  11.766  19.380  0.00  0.00    +0.000 HD
BRANCH  24  27
ATOM     27  C   UNL     1      -5.885  12.198  17.537  0.00  0.00    +0.000 C 
ATOM     28  C   UNL     1      -6.884  11.277  18.284  0.00  0.00    +0.000 C 
ATOM     29  N   UNL     1      -7.431  12.491  18.934  0.00  0.00    +0.000 NA
ATOM     30  C   UNL     1      -6.111  13.135  18.743  0.00  0.00    +0.000 C 
ATOM     31  H   UNL     1      -7.705  12.361  19.908  0.00  0.00    +0.000 HD
ENDBRANCH  24  27
ENDBRANCH   1  25
TORSDOF 3
ENDMDL
MODEL 5
REMARK VINA RESULT:      -6.6      1.369      1.483
REMARK  Name = 
REMARK  3 active torsions:
REMARK  status: ('A' for Active; 'I' for Inactive)
REMARK    1  A    between atoms: C_2  and  C_26
REMARK    2  A    between atoms: N_3  and  C_4
REMARK    3  A    between atoms: C_15  and  C_16
REMARK                            x       y       z     vdW  Elec       q    Type
REMARK                         _______ _______ _______ _____ _____    ______ ____
ROOT
ATOM      1  C   UNL     1      -1.585  16.020  21.113  0.00  0.00    +0.000 A 
ATOM      2  C   UNL     1      -0.777  17.153  20.889  0.00  0.00    +0.000 A 
ATOM      3  N   UNL     1       0.218  16.924  20.029  0.00  0.00    +0.000 NA
ATOM      4  N   UNL     1       0.059  15.623  19.686  0.00  0.00    +0.000 N 
ATOM      5  C   UNL     1       0.900  14.859  18.900  0.00  0.00    +0.000 A 
ATOM      6  C   UNL     1       0.595  13.588  18.622  0.00  0.00    +0.000 A 
ATOM      7  C   UNL     1      -0.745  13.092  19.101  0.00  0.00    +0.000 A 
ATOM      8  N   UNL     1      -1.219  11.871  18.659  0.00  0.00    +0.000 N 
ATOM      9  C   UNL     1      -2.454  11.816  17.883  0.00  0.00    +0.000 C 
ATOM     10  C   UNL     1      -2.717  10.327  17.753  0.00  0.00    +0.000 C 
ATOM     11  C   UNL     1      -1.319   9.754  17.565  0.00  0.00    +0.000 C 
ATOM     12  C   UNL     1      -0.395  10.687  18.379  0.00  0.00    +0.000 C 
ATOM     13  N   UNL     1      -1.523  13.807  19.898  0.00  0.00    +0.000 NA
ATOM     14  C   UNL     1      -1.089  15.062  20.246  0.00  0.00    +0.000 A 
ENDROOT
BRANCH  12  15
ATOM     15  C   UNL     1       0.092  10.018  19.652  0.00  0.00    +0.000 A 
ATOM     16  C   UNL     1      -0.566  10.251  20.876  0.00  0.00    +0.000 A 
ATOM     17  C   UNL     1      -0.179   9.580  22.031  0.00  0.00    +0.000 A 
ATOM     18  F   UNL     1      -0.815   9.832  23.183  0.00  0.00    +0.000 F 
ATOM     19  C   UNL     1       0.846   8.649  22.007  0.00  0.00    +0.000 A 
ATOM     20  C   UNL     1       1.523   8.411  20.811  0.00  0.00    +0.000 A 
ATOM     21  C   UNL     1       1.158   9.098  19.645  0.00  0.00    +0.000 A 
ATOM     22 CL   UNL     1       2.078   8.770  18.219  0.00  0.00    +0.000 Cl
ENDBRANCH  12  15
BRANCH   1  25
ATOM     23  O   UNL     1      -4.337  16.307  20.484  0.00  0.00    +0.000 OA
ATOM     24  C   UNL     1      -3.972  16.037  21.631  0.00  0.00    +0.000 C 
ATOM     25  N   UNL     1      -2.646  15.829  21.983  0.00  0.00    +0.000 N 
ATOM     26  H   UNL     1      -2.398  15.538  22.923  0.00  0.00    +0.000 HD
BRANCH  24  27
ATOM     27  C   UNL     1      -4.966  15.890  22.804  0.00  0.00    +0.000 C 
ATOM     28  C   UNL     1      -5.918  14.666  22.789  0.00  0.00    +0.000 C 
ATOM     29  N   UNL     1      -5.754  14.592  24.261  0.00  0.00    +0.000 NA
ATOM     30  C   UNL     1      -4.436  15.246  24.104  0.00  0.00    +0.000 C 
ATOM     31  H   UNL     1      -5.719  13.644  24.634  0.00  0.00    +0.000 HD
ENDBRANCH  24  27
ENDBRANCH   1  25
TORSDOF 3
ENDMDL
MODEL 6
REMARK VINA RESULT:      -6.5      2.296      3.034
REMARK  Name = 
REMARK  3 active torsions:
REMARK  status: ('A' for Active; 'I' for Inactive)
REMARK    1  A    between atoms: C_2  and  C_26
REMARK    2  A    between atoms: N_3  and  C_4
REMARK    3  A    between atoms: C_15  and  C_16
REMARK                            x       y       z     vdW  Elec       q    Type
REMARK                         _______ _______ _______ _____ _____    ______ ____
ROOT
ATOM      1  C   UNL     1       1.358  16.453  20.091  0.00  0.00    +0.000 A 
ATOM      2  C   UNL     1       2.561  17.044  19.653  0.00  0.00    +0.000 A 
ATOM      3  N   UNL     1       3.307  16.223  18.912  0.00  0.00    +0.000 NA
ATOM      4  N   UNL     1       2.584  15.079  18.864  0.00  0.00    +0.000 N 
ATOM      5  C   UNL     1       2.967  13.872  18.308  0.00  0.00    +0.000 A 
ATOM      6  C   UNL     1       2.128  12.832  18.310  0.00  0.00    +0.000 A 
ATOM      7  C   UNL     1       0.736  13.084  18.829  0.00  0.00    +0.000 A 
ATOM      8  N   UNL     1      -0.242  12.123  18.652  0.00  0.00    +0.000 N 
ATOM      9  C   UNL     1      -1.424  12.437  17.855  0.00  0.00    +0.000 C 
ATOM     10  C   UNL     1      -2.309  11.220  18.052  0.00  0.00    +0.000 C 
ATOM     11  C   UNL     1      -1.308  10.073  18.060  0.00  0.00    +0.000 C 
ATOM     12  C   UNL     1      -0.027  10.671  18.683  0.00  0.00    +0.000 C 
ATOM     13  N   UNL     1       0.390  14.221  19.409  0.00  0.00    +0.000 NA
ATOM     14  C   UNL     1       1.341  15.208  19.484  0.00  0.00    +0.000 A 
ENDROOT
BRANCH  12  15
ATOM     15  C   UNL     1       0.199  10.158  20.094  0.00  0.00    +0.000 A 
ATOM     16  C   UNL     1      -0.487  10.736  21.180  0.00  0.00    +0.000 A 
ATOM     17  C   UNL     1      -0.350  10.220  22.465  0.00  0.00    +0.000 A 
ATOM     18  F   UNL     1      -1.006  10.799  23.480  0.00  0.00    +0.000 F 
ATOM     19  C   UNL     1       0.444   9.111  22.708  0.00  0.00    +0.000 A 
ATOM     20  C   UNL     1       1.145   8.530  21.653  0.00  0.00    +0.000 A 
ATOM     21  C   UNL     1       1.033   9.055  20.358  0.00  0.00    +0.000 A 
ATOM     22 CL   UNL     1       1.970   8.296  19.119  0.00  0.00    +0.000 Cl
ENDBRANCH  12  15
BRANCH   1  25
ATOM     23  O   UNL     1       1.063  15.838  22.845  0.00  0.00    +0.000 OA
ATOM     24  C   UNL     1       0.247  16.557  22.263  0.00  0.00    +0.000 C 
ATOM     25  N   UNL     1       0.371  16.937  20.934  0.00  0.00    +0.000 N 
ATOM     26  H   UNL     1      -0.285  17.588  20.516  0.00  0.00    +0.000 HD
BRANCH  24  27
ATOM     27  C   UNL     1      -1.007  17.124  22.965  0.00  0.00    +0.000 C 
ATOM     28  C   UNL     1      -2.379  16.896  22.279  0.00  0.00    +0.000 C 
ATOM     29  N   UNL     1      -2.961  16.713  23.630  0.00  0.00    +0.000 NA
ATOM     30  C   UNL     1      -1.626  16.278  24.099  0.00  0.00    +0.000 C 
ATOM     31  H   UNL     1      -3.686  15.999  23.683  0.00  0.00    +0.000 HD
ENDBRANCH  24  27
ENDBRANCH   1  25
TORSDOF 3
ENDMDL
MODEL 7
REMARK VINA RESULT:      -6.4      5.170      9.147
REMARK  Name = 
REMARK  3 active torsions:
REMARK  status: ('A' for Active; 'I' for Inactive)
REMARK    1  A    between atoms: C_2  and  C_26
REMARK    2  A    between atoms: N_3  and  C_4
REMARK    3  A    between atoms: C_15  and  C_16
REMARK                            x       y       z     vdW  Elec       q    Type
REMARK                         _______ _______ _______ _____ _____    ______ ____
ROOT
ATOM      1  C   UNL     1       2.967   6.613  19.036  0.00  0.00    +0.000 A 
ATOM      2  C   UNL     1       2.970   5.613  20.030  0.00  0.00    +0.000 A 
ATOM      3  N   UNL     1       2.161   5.891  21.053  0.00  0.00    +0.000 NA
ATOM      4  N   UNL     1       1.621   7.089  20.726  0.00  0.00    +0.000 N 
ATOM      5  C   UNL     1       0.794   7.874  21.508  0.00  0.00    +0.000 A 
ATOM      6  C   UNL     1       0.311   9.027  21.034  0.00  0.00    +0.000 A 
ATOM      7  C   UNL     1       0.615   9.349  19.594  0.00  0.00    +0.000 A 
ATOM      8  N   UNL     1      -0.034  10.402  18.978  0.00  0.00    +0.000 N 
ATOM      9  C   UNL     1      -0.898  10.145  17.829  0.00  0.00    +0.000 C 
ATOM     10  C   UNL     1      -1.263  11.537  17.350  0.00  0.00    +0.000 C 
ATOM     11  C   UNL     1      -1.431  12.308  18.652  0.00  0.00    +0.000 C 
ATOM     12  C   UNL     1      -0.425  11.660  19.628  0.00  0.00    +0.000 C 
ATOM     13  N   UNL     1       1.449   8.624  18.865  0.00  0.00    +0.000 NA
ATOM     14  C   UNL     1       2.007   7.518  19.456  0.00  0.00    +0.000 A 
ENDROOT
BRANCH  12  15
ATOM     15  C   UNL     1       0.769  12.565  19.881  0.00  0.00    +0.000 A 
ATOM     16  C   UNL     1       1.790  12.683  18.917  0.00  0.00    +0.000 A 
ATOM     17  C   UNL     1       2.845  13.570  19.102  0.00  0.00    +0.000 A 
ATOM     18  F   UNL     1       3.808  13.652  18.174  0.00  0.00    +0.000 F 
ATOM     19  C   UNL     1       2.910  14.378  20.226  0.00  0.00    +0.000 A 
ATOM     20  C   UNL     1       1.919  14.270  21.201  0.00  0.00    +0.000 A 
ATOM     21  C   UNL     1       0.864  13.362  21.037  0.00  0.00    +0.000 A 
ATOM     22 CL   UNL     1      -0.295  13.266  22.316  0.00  0.00    +0.000 Cl
ENDBRANCH  12  15
BRANCH   1  25
ATOM     23  O   UNL     1       3.897   4.481  17.411  0.00  0.00    +0.000 OA
ATOM     24  C   UNL     1       4.193   5.650  17.155  0.00  0.00    +0.000 C 
ATOM     25  N   UNL     1       3.721   6.736  17.880  0.00  0.00    +0.000 N 
ATOM     26  H   UNL     1       3.933   7.685  17.591  0.00  0.00    +0.000 HD
BRANCH  24  27
ATOM     27  C   UNL     1       5.122   6.032  15.982  0.00  0.00    +0.000 C 
ATOM     28  C   UNL     1       6.651   5.993  16.235  0.00  0.00    +0.000 C 
ATOM     29  N   UNL     1       6.811   5.481  14.853  0.00  0.00    +0.000 NA
ATOM     30  C   UNL     1       5.439   4.933  14.944  0.00  0.00    +0.000 C 
ATOM     31  H   UNL     1       7.544   4.781  14.744  0.00  0.00    +0.000 HD
ENDBRANCH  24  27
ENDBRANCH   1  25
TORSDOF 3
ENDMDL
MODEL 8
REMARK VINA RESULT:      -6.3      3.199      5.238
REMARK  Name = 
REMARK  3 active torsions:
REMARK  status: ('A' for Active; 'I' for Inactive)
REMARK    1  A    between atoms: C_2  and  C_26
REMARK    2  A    between atoms: N_3  and  C_4
REMARK    3  A    between atoms: C_15  and  C_16
REMARK                            x       y       z     vdW  Elec       q    Type
REMARK                         _______ _______ _______ _____ _____    ______ ____
ROOT
ATOM      1  C   UNL     1      -5.907  12.345  19.327  0.00  0.00    +0.000 A 
ATOM      2  C   UNL     1      -6.601  11.844  18.207  0.00  0.00    +0.000 A 
ATOM      3  N   UNL     1      -5.789  11.405  17.243  0.00  0.00    +0.000 NA
ATOM      4  N   UNL     1      -4.547  11.622  17.738  0.00  0.00    +0.000 N 
ATOM      5  C   UNL     1      -3.344  11.441  17.083  0.00  0.00    +0.000 A 
ATOM      6  C   UNL     1      -2.189  11.670  17.716  0.00  0.00    +0.000 A 
ATOM      7  C   UNL     1      -2.275  12.009  19.182  0.00  0.00    +0.000 A 
ATOM      8  N   UNL     1      -1.123  12.036  19.945  0.00  0.00    +0.000 N 
ATOM      9  C   UNL     1      -0.976  11.107  21.062  0.00  0.00    +0.000 C 
ATOM     10  C   UNL     1       0.305  11.568  21.731  0.00  0.00    +0.000 C 
ATOM     11  C   UNL     1       1.184  11.954  20.549  0.00  0.00    +0.000 C 
ATOM     12  C   UNL     1       0.199  12.474  19.478  0.00  0.00    +0.000 C 
ATOM     13  N   UNL     1      -3.427  12.234  19.792  0.00  0.00    +0.000 NA
ATOM     14  C   UNL     1      -4.573  12.100  19.049  0.00  0.00    +0.000 A 
ENDROOT
BRANCH  12  15
ATOM     15  C   UNL     1       0.281  13.983  19.331  0.00  0.00    +0.000 A 
ATOM     16  C   UNL     1      -0.731  14.806  19.865  0.00  0.00    +0.000 A 
ATOM     17  C   UNL     1      -0.626  16.192  19.808  0.00  0.00    +0.000 A 
ATOM     18  F   UNL     1      -1.610  16.948  20.313  0.00  0.00    +0.000 F 
ATOM     19  C   UNL     1       0.486  16.801  19.249  0.00  0.00    +0.000 A 
ATOM     20  C   UNL     1       1.494  16.009  18.701  0.00  0.00    +0.000 A 
ATOM     21  C   UNL     1       1.387  14.612  18.730  0.00  0.00    +0.000 A 
ATOM     22 CL   UNL     1       2.665  13.711  17.991  0.00  0.00    +0.000 Cl
ENDBRANCH  12  15
BRANCH   1  25
ATOM     23  O   UNL     1      -7.102  11.044  21.547  0.00  0.00    +0.000 OA
ATOM     24  C   UNL     1      -7.003  12.273  21.508  0.00  0.00    +0.000 C 
ATOM     25  N   UNL     1      -6.378  12.959  20.476  0.00  0.00    +0.000 N 
ATOM     26  H   UNL     1      -6.256  13.965  20.521  0.00  0.00    +0.000 HD
BRANCH  24  27
ATOM     27  C   UNL     1      -7.562  13.185  22.623  0.00  0.00    +0.000 C 
ATOM     28  C   UNL     1      -7.180  12.844  24.087  0.00  0.00    +0.000 C 
ATOM     29  N   UNL     1      -7.102  14.302  24.346  0.00  0.00    +0.000 NA
ATOM     30  C   UNL     1      -6.801  14.498  22.910  0.00  0.00    +0.000 C 
ATOM     31  H   UNL     1      -6.354  14.578  24.981  0.00  0.00    +0.000 HD
ENDBRANCH  24  27
ENDBRANCH   1  25
TORSDOF 3
ENDMDL
MODEL 9
REMARK VINA RESULT:      -6.3      2.313      3.085
REMARK  Name = 
REMARK  3 active torsions:
REMARK  status: ('A' for Active; 'I' for Inactive)
REMARK    1  A    between atoms: C_2  and  C_26
REMARK    2  A    between atoms: N_3  and  C_4
REMARK    3  A    between atoms: C_15  and  C_16
REMARK                            x       y       z     vdW  Elec       q    Type
REMARK                         _______ _______ _______ _____ _____    ______ ____
ROOT
ATOM      1  C   UNL     1       0.316  16.693  19.269  0.00  0.00    +0.000 A 
ATOM      2  C   UNL     1       1.514  17.333  18.890  0.00  0.00    +0.000 A 
ATOM      3  N   UNL     1       2.445  16.483  18.453  0.00  0.00    +0.000 NA
ATOM      4  N   UNL     1       1.850  15.270  18.548  0.00  0.00    +0.000 N 
ATOM      5  C   UNL     1       2.428  14.036  18.321  0.00  0.00    +0.000 A 
ATOM      6  C   UNL     1       1.701  12.919  18.425  0.00  0.00    +0.000 A 
ATOM      7  C   UNL     1       0.226  13.092  18.678  0.00  0.00    +0.000 A 
ATOM      8  N   UNL     1      -0.617  12.001  18.574  0.00  0.00    +0.000 N 
ATOM      9  C   UNL     1      -1.676  12.003  17.570  0.00  0.00    +0.000 C 
ATOM     10  C   UNL     1      -2.464  10.747  17.894  0.00  0.00    +0.000 C 
ATOM     11  C   UNL     1      -1.376   9.758  18.287  0.00  0.00    +0.000 C 
ATOM     12  C   UNL     1      -0.275  10.621  18.942  0.00  0.00    +0.000 C 
ATOM     13  N   UNL     1      -0.315  14.269  18.949  0.00  0.00    +0.000 NA
ATOM     14  C   UNL     1       0.515  15.362  18.945  0.00  0.00    +0.000 A 
ENDROOT
BRANCH  12  15
ATOM     15  C   UNL     1      -0.236  10.426  20.448  0.00  0.00    +0.000 A 
ATOM     16  C   UNL     1      -1.017  11.240  21.292  0.00  0.00    +0.000 A 
ATOM     17  C   UNL     1      -1.052  11.017  22.664  0.00  0.00    +0.000 A 
ATOM     18  F   UNL     1      -1.795  11.815  23.443  0.00  0.00    +0.000 F 
ATOM     19  C   UNL     1      -0.340   9.975  23.236  0.00  0.00    +0.000 A 
ATOM     20  C   UNL     1       0.453   9.165  22.425  0.00  0.00    +0.000 A 
ATOM     21  C   UNL     1       0.514   9.395  21.044  0.00  0.00    +0.000 A 
ATOM     22 CL   UNL     1       1.555   8.366  20.121  0.00  0.00    +0.000 Cl
ENDBRANCH  12  15
BRANCH   1  25
ATOM     23  O   UNL     1      -0.353  16.625  22.025  0.00  0.00    +0.000 OA
ATOM     24  C   UNL     1      -1.133  17.095  21.194  0.00  0.00    +0.000 C 
ATOM     25  N   UNL     1      -0.835  17.206  19.843  0.00  0.00    +0.000 N 
ATOM     26  H   UNL     1      -1.478  17.665  19.206  0.00  0.00    +0.000 HD
BRANCH  24  27
ATOM     27  C   UNL     1      -2.532  17.624  21.577  0.00  0.00    +0.000 C 
ATOM     28  C   UNL     1      -3.706  17.310  20.613  0.00  0.00    +0.000 C 
ATOM     29  N   UNL     1      -4.568  17.142  21.808  0.00  0.00    +0.000 NA
ATOM     30  C   UNL     1      -3.356  16.785  22.579  0.00  0.00    +0.000 C 
ATOM     31  H   UNL     1      -5.258  16.397  21.728  0.00  0.00    +0.000 HD
ENDBRANCH  24  27
ENDBRANCH   1  25
TORSDOF 3
ENDMDL
