MODEL 1
REMARK VINA RESULT:      -8.7      0.000      0.000
REMARK  Name = 
REMARK  5 active torsions:
REMARK  status: ('A' for Active; 'I' for Inactive)
REMARK    1  A    between atoms: C_2  and  C_4
REMARK    2  A    between atoms: C_7  and  C_8
REMARK    3  A    between atoms: C_8  and  N_9
REMARK    4  A    between atoms: N_12  and  C_13
REMARK    5  A    between atoms: C_13  and  C_14
REMARK                            x       y       z     vdW  Elec       q    Type
REMARK                         _______ _______ _______ _____ _____    ______ ____
ROOT
ATOM      1  N   UNL     1       4.370   5.965  18.144  0.00  0.00    +0.000 N 
ATOM      2  C   UNL     1       5.174   6.521  17.062  0.00  0.00    +0.000 C 
ATOM      3  C   UNL     1       6.581   6.924  17.513  0.00  0.00    +0.000 C 
ATOM      4  N   UNL     1       7.282   5.876  18.278  0.00  0.00    +0.000 NA
ATOM      5  C   UNL     1       6.450   5.533  19.464  0.00  0.00    +0.000 C 
ATOM      6  C   UNL     1       4.958   5.263  19.187  0.00  0.00    +0.000 C 
ATOM      7  O   UNL     1       4.310   4.546  19.950  0.00  0.00    +0.000 OA
ENDROOT
BRANCH   1   8
ATOM      8  C   UNL     1       2.921   5.968  17.993  0.00  0.00    +0.000 C 
BRANCH   8  12
ATOM      9  C   UNL     1       1.184   9.529  19.742  0.00  0.00    +0.000 A 
ATOM     10  C   UNL     1       1.491   9.492  18.380  0.00  0.00    +0.000 A 
ATOM     11  C   UNL     1       2.056   8.350  17.813  0.00  0.00    +0.000 A 
ATOM     12  C   UNL     1       2.311   7.214  18.599  0.00  0.00    +0.000 A 
ATOM     13  C   UNL     1       2.019   7.263  19.969  0.00  0.00    +0.000 A 
ATOM     14  C   UNL     1       1.453   8.410  20.541  0.00  0.00    +0.000 A 
BRANCH   9  16
ATOM     15  N   UNL     1       0.997  11.199  21.461  0.00  0.00    +0.000 NA
ATOM     16  C   UNL     1       0.559  10.745  20.331  0.00  0.00    +0.000 C 
ATOM     17  N   UNL     1      -0.473  11.373  19.693  0.00  0.00    +0.000 N 
ATOM     18  H   UNL     1       0.503  12.059  21.701  0.00  0.00    +0.000 HD
ATOM     19  H   UNL     1      -1.054  11.961  20.279  0.00  0.00    +0.000 HD
ATOM     20  H   UNL     1      -1.035  10.780  19.090  0.00  0.00    +0.000 HD
ENDBRANCH   9  16
ENDBRANCH   8  12
ENDBRANCH   1   8
BRANCH   4  21
ATOM     21  C   UNL     1       7.549   4.653  17.505  0.00  0.00    +0.000 C 
BRANCH  21  22
ATOM     22  C   UNL     1       7.024   4.657  16.103  0.00  0.00    +0.000 A 
ATOM     23  N   UNL     1       5.918   4.069  15.694  0.00  0.00    +0.000 NA
ATOM     24  C   UNL     1       5.994   4.046  14.327  0.00  0.00    +0.000 A 
ATOM     25  C   UNL     1       5.142   3.426  13.405  0.00  0.00    +0.000 A 
ATOM     26  C   UNL     1       5.489   3.469  12.053  0.00  0.00    +0.000 A 
ATOM     27 CL   UNL     1       4.494   2.657  10.905  0.00  0.00    +0.000 Cl
ATOM     28  C   UNL     1       6.637   4.136  11.619  0.00  0.00    +0.000 A 
ATOM     29  C   UNL     1       7.482   4.794  12.528  0.00  0.00    +0.000 A 
ATOM     30  C   UNL     1       7.129   4.713  13.879  0.00  0.00    +0.000 A 
ATOM     31  N   UNL     1       7.724   5.173  15.031  0.00  0.00    +0.000 N 
ATOM     32  H   UNL     1       8.586   5.698  15.094  0.00  0.00    +0.000 HD
ENDBRANCH  21  22
ENDBRANCH   4  21
TORSDOF 5
ENDMDL
MODEL 2
REMARK VINA RESULT:      -8.6      3.950      9.621
REMARK  Name = 
REMARK  5 active torsions:
REMARK  status: ('A' for Active; 'I' for Inactive)
REMARK    1  A    between atoms: C_2  and  C_4
REMARK    2  A    between atoms: C_7  and  C_8
REMARK    3  A    between atoms: C_8  and  N_9
REMARK    4  A    between atoms: N_12  and  C_13
REMARK    5  A    between atoms: C_13  and  C_14
REMARK                            x       y       z     vdW  Elec       q    Type
REMARK                         _______ _______ _______ _____ _____    ______ ____
ROOT
ATOM      1  N   UNL     1       3.607   5.055  19.696  0.00  0.00    +0.000 N 
ATOM      2  C   UNL     1       3.664   6.391  19.116  0.00  0.00    +0.000 C 
ATOM      3  C   UNL     1       2.277   7.001  18.893  0.00  0.00    +0.000 C 
ATOM      4  N   UNL     1       1.395   6.918  20.072  0.00  0.00    +0.000 NA
ATOM      5  C   UNL     1       1.262   5.484  20.450  0.00  0.00    +0.000 C 
ATOM      6  C   UNL     1       2.576   4.685  20.549  0.00  0.00    +0.000 C 
ATOM      7  O   UNL     1       2.641   3.691  21.272  0.00  0.00    +0.000 OA
ENDROOT
BRANCH   1   8
ATOM      8  C   UNL     1       4.770   4.190  19.541  0.00  0.00    +0.000 C 
BRANCH   8  12
ATOM      9  C   UNL     1       6.347   4.377  15.512  0.00  0.00    +0.000 A 
ATOM     10  C   UNL     1       5.029   3.972  15.733  0.00  0.00    +0.000 A 
ATOM     11  C   UNL     1       4.518   3.904  17.029  0.00  0.00    +0.000 A 
ATOM     12  C   UNL     1       5.316   4.256  18.130  0.00  0.00    +0.000 A 
ATOM     13  C   UNL     1       6.644   4.644  17.904  0.00  0.00    +0.000 A 
ATOM     14  C   UNL     1       7.159   4.710  16.603  0.00  0.00    +0.000 A 
BRANCH   9  16
ATOM     15  N   UNL     1       6.465   3.622  13.233  0.00  0.00    +0.000 NA
ATOM     16  C   UNL     1       6.874   4.468  14.122  0.00  0.00    +0.000 C 
ATOM     17  N   UNL     1       7.786   5.427  13.788  0.00  0.00    +0.000 N 
ATOM     18  H   UNL     1       6.877   3.849  12.327  0.00  0.00    +0.000 HD
ATOM     19  H   UNL     1       8.337   5.235  12.960  0.00  0.00    +0.000 HD
ATOM     20  H   UNL     1       8.368   5.757  14.552  0.00  0.00    +0.000 HD
ENDBRANCH   9  16
ENDBRANCH   8  12
ENDBRANCH   1   8
BRANCH   4  21
ATOM     21  C   UNL     1       1.880   7.679  21.234  0.00  0.00    +0.000 C 
BRANCH  21  22
ATOM     22  C   UNL     1       1.119   8.933  21.537  0.00  0.00    +0.000 A 
ATOM     23  N   UNL     1       0.506   9.205  22.671  0.00  0.00    +0.000 NA
ATOM     24  C   UNL     1      -0.311  10.271  22.403  0.00  0.00    +0.000 A 
ATOM     25  C   UNL     1      -1.270  10.876  23.224  0.00  0.00    +0.000 A 
ATOM     26  C   UNL     1      -2.049  11.902  22.683  0.00  0.00    +0.000 A 
ATOM     27 CL   UNL     1      -3.282  12.619  23.649  0.00  0.00    +0.000 Cl
ATOM     28  C   UNL     1      -1.861  12.340  21.369  0.00  0.00    +0.000 A 
ATOM     29  C   UNL     1      -0.878  11.768  20.546  0.00  0.00    +0.000 A 
ATOM     30  C   UNL     1      -0.131  10.724  21.100  0.00  0.00    +0.000 A 
ATOM     31  N   UNL     1       0.855   9.907  20.596  0.00  0.00    +0.000 N 
ATOM     32  H   UNL     1       1.240   9.938  19.661  0.00  0.00    +0.000 HD
ENDBRANCH  21  22
ENDBRANCH   4  21
TORSDOF 5
ENDMDL
MODEL 3
REMARK VINA RESULT:      -8.5      3.767      9.392
REMARK  Name = 
REMARK  5 active torsions:
REMARK  status: ('A' for Active; 'I' for Inactive)
REMARK    1  A    between atoms: C_2  and  C_4
REMARK    2  A    between atoms: C_7  and  C_8
REMARK    3  A    between atoms: C_8  and  N_9
REMARK    4  A    between atoms: N_12  and  C_13
REMARK    5  A    between atoms: C_13  and  C_14
REMARK                            x       y       z     vdW  Elec       q    Type
REMARK                         _______ _______ _______ _____ _____    ______ ____
ROOT
ATOM      1  N   UNL     1       4.108   4.950  19.035  0.00  0.00    +0.000 N 
ATOM      2  C   UNL     1       4.024   6.348  18.631  0.00  0.00    +0.000 C 
ATOM      3  C   UNL     1       2.583   6.817  18.413  0.00  0.00    +0.000 C 
ATOM      4  N   UNL     1       1.673   6.479  19.523  0.00  0.00    +0.000 NA
ATOM      5  C   UNL     1       1.701   5.002  19.711  0.00  0.00    +0.000 C 
ATOM      6  C   UNL     1       3.098   4.355  19.779  0.00  0.00    +0.000 C 
ATOM      7  O   UNL     1       3.256   3.289  20.374  0.00  0.00    +0.000 OA
ENDROOT
BRANCH   1   8
ATOM      8  C   UNL     1       5.373   4.253  18.835  0.00  0.00    +0.000 C 
BRANCH   8  12
ATOM      9  C   UNL     1       6.709   4.561  14.727  0.00  0.00    +0.000 A 
ATOM     10  C   UNL     1       5.429   4.085  15.016  0.00  0.00    +0.000 A 
ATOM     11  C   UNL     1       4.996   3.978  16.337  0.00  0.00    +0.000 A 
ATOM     12  C   UNL     1       5.834   4.362  17.397  0.00  0.00    +0.000 A 
ATOM     13  C   UNL     1       7.126   4.822  17.102  0.00  0.00    +0.000 A 
ATOM     14  C   UNL     1       7.563   4.927  15.776  0.00  0.00    +0.000 A 
BRANCH   9  16
ATOM     15  N   UNL     1       8.001   5.617  12.996  0.00  0.00    +0.000 NA
ATOM     16  C   UNL     1       7.152   4.693  13.311  0.00  0.00    +0.000 C 
ATOM     17  N   UNL     1       6.661   3.856  12.351  0.00  0.00    +0.000 N 
ATOM     18  H   UNL     1       8.240   5.542  12.007  0.00  0.00    +0.000 HD
ATOM     19  H   UNL     1       6.732   4.195  11.399  0.00  0.00    +0.000 HD
ATOM     20  H   UNL     1       5.740   3.471  12.539  0.00  0.00    +0.000 HD
ENDBRANCH   9  16
ENDBRANCH   8  12
ENDBRANCH   1   8
BRANCH   4  21
ATOM     21  C   UNL     1       2.018   7.133  20.796  0.00  0.00    +0.000 C 
BRANCH  21  22
ATOM     22  C   UNL     1       1.337   8.443  21.045  0.00  0.00    +0.000 A 
ATOM     23  N   UNL     1       0.951   8.899  22.219  0.00  0.00    +0.000 NA
ATOM     24  C   UNL     1       0.106   9.943  21.951  0.00  0.00    +0.000 A 
ATOM     25  C   UNL     1      -0.677  10.694  22.836  0.00  0.00    +0.000 A 
ATOM     26  C   UNL     1      -1.537  11.656  22.302  0.00  0.00    +0.000 A 
ATOM     27 CL   UNL     1      -2.560  12.549  23.363  0.00  0.00    +0.000 Cl
ATOM     28  C   UNL     1      -1.599  11.892  20.926  0.00  0.00    +0.000 A 
ATOM     29  C   UNL     1      -0.793  11.171  20.029  0.00  0.00    +0.000 A 
ATOM     30  C   UNL     1       0.038  10.194  20.585  0.00  0.00    +0.000 A 
ATOM     31  N   UNL     1       0.906   9.278  20.034  0.00  0.00    +0.000 N 
ATOM     32  H   UNL     1       1.107   9.159  19.050  0.00  0.00    +0.000 HD
ENDBRANCH  21  22
ENDBRANCH   4  21
TORSDOF 5
ENDMDL
MODEL 4
REMARK VINA RESULT:      -8.5      3.796      9.437
REMARK  Name = 
REMARK  5 active torsions:
REMARK  status: ('A' for Active; 'I' for Inactive)
REMARK    1  A    between atoms: C_2  and  C_4
REMARK    2  A    between atoms: C_7  and  C_8
REMARK    3  A    between atoms: C_8  and  N_9
REMARK    4  A    between atoms: N_12  and  C_13
REMARK    5  A    between atoms: C_13  and  C_14
REMARK                            x       y       z     vdW  Elec       q    Type
REMARK                         _______ _______ _______ _____ _____    ______ ____
ROOT
ATOM      1  N   UNL     1       3.977   4.898  19.166  0.00  0.00    +0.000 N 
ATOM      2  C   UNL     1       3.944   6.281  18.705  0.00  0.00    +0.000 C 
ATOM      3  C   UNL     1       2.520   6.807  18.506  0.00  0.00    +0.000 C 
ATOM      4  N   UNL     1       1.628   6.557  19.653  0.00  0.00    +0.000 NA
ATOM      5  C   UNL     1       1.594   5.089  19.902  0.00  0.00    +0.000 C 
ATOM      6  C   UNL     1       2.962   4.382  19.961  0.00  0.00    +0.000 C 
ATOM      7  O   UNL     1       3.088   3.336  20.597  0.00  0.00    +0.000 OA
ENDROOT
BRANCH   1   8
ATOM      8  C   UNL     1       5.202   4.137  18.963  0.00  0.00    +0.000 C 
BRANCH   8  12
ATOM      9  C   UNL     1       6.662   4.606  14.913  0.00  0.00    +0.000 A 
ATOM     10  C   UNL     1       7.465   4.971  15.996  0.00  0.00    +0.000 A 
ATOM     11  C   UNL     1       6.997   4.827  17.302  0.00  0.00    +0.000 A 
ATOM     12  C   UNL     1       5.719   4.301  17.549  0.00  0.00    +0.000 A 
ATOM     13  C   UNL     1       4.910   3.954  16.457  0.00  0.00    +0.000 A 
ATOM     14  C   UNL     1       5.377   4.099  15.145  0.00  0.00    +0.000 A 
BRANCH   9  16
ATOM     15  N   UNL     1       6.703   3.984  12.591  0.00  0.00    +0.000 NA
ATOM     16  C   UNL     1       7.182   4.742  13.523  0.00  0.00    +0.000 C 
ATOM     17  N   UNL     1       8.161   5.649  13.235  0.00  0.00    +0.000 N 
ATOM     18  H   UNL     1       7.122   4.234  11.695  0.00  0.00    +0.000 HD
ATOM     19  H   UNL     1       8.688   5.467  12.389  0.00  0.00    +0.000 HD
ATOM     20  H   UNL     1       8.773   5.888  14.009  0.00  0.00    +0.000 HD
ENDBRANCH   9  16
ENDBRANCH   8  12
ENDBRANCH   1   8
BRANCH   4  21
ATOM     21  C   UNL     1       2.037   7.246  20.887  0.00  0.00    +0.000 C 
BRANCH  21  22
ATOM     22  C   UNL     1       1.325   8.535  21.164  0.00  0.00    +0.000 A 
ATOM     23  N   UNL     1       0.857   8.919  22.334  0.00  0.00    +0.000 NA
ATOM     24  C   UNL     1       0.019   9.970  22.071  0.00  0.00    +0.000 A 
ATOM     25  C   UNL     1      -0.829  10.663  22.943  0.00  0.00    +0.000 A 
ATOM     26  C   UNL     1      -1.664  11.647  22.408  0.00  0.00    +0.000 A 
ATOM     27 CL   UNL     1      -2.765  12.469  23.448  0.00  0.00    +0.000 Cl
ATOM     28  C   UNL     1      -1.638  11.960  21.047  0.00  0.00    +0.000 A 
ATOM     29  C   UNL     1      -0.767  11.298  20.166  0.00  0.00    +0.000 A 
ATOM     30  C   UNL     1       0.038  10.298  20.719  0.00  0.00    +0.000 A 
ATOM     31  N   UNL     1       0.951   9.423  20.176  0.00  0.00    +0.000 N 
ATOM     32  H   UNL     1       1.218   9.361  19.202  0.00  0.00    +0.000 HD
ENDBRANCH  21  22
ENDBRANCH   4  21
TORSDOF 5
ENDMDL
MODEL 5
REMARK VINA RESULT:      -8.5      4.674      7.796
REMARK  Name = 
REMARK  5 active torsions:
REMARK  status: ('A' for Active; 'I' for Inactive)
REMARK    1  A    between atoms: C_2  and  C_4
REMARK    2  A    between atoms: C_7  and  C_8
REMARK    3  A    between atoms: C_8  and  N_9
REMARK    4  A    between atoms: N_12  and  C_13
REMARK    5  A    between atoms: C_13  and  C_14
REMARK                            x       y       z     vdW  Elec       q    Type
REMARK                         _______ _______ _______ _____ _____    ______ ____
ROOT
ATOM      1  N   UNL     1      -0.395  12.423  19.553  0.00  0.00    +0.000 N 
ATOM      2  C   UNL     1      -1.230  11.233  19.435  0.00  0.00    +0.000 C 
ATOM      3  C   UNL     1      -0.649  10.194  18.472  0.00  0.00    +0.000 C 
ATOM      4  N   UNL     1       0.771   9.884  18.717  0.00  0.00    +0.000 NA
ATOM      5  C   UNL     1       1.545  11.152  18.619  0.00  0.00    +0.000 C 
ATOM      6  C   UNL     1       0.983  12.351  19.408  0.00  0.00    +0.000 C 
ATOM      7  O   UNL     1       1.735  13.253  19.777  0.00  0.00    +0.000 OA
ENDROOT
BRANCH   1   8
ATOM      8  C   UNL     1      -1.013  13.647  20.046  0.00  0.00    +0.000 C 
BRANCH   8  12
ATOM      9  C   UNL     1      -3.866  12.797  23.191  0.00  0.00    +0.000 A 
ATOM     10  C   UNL     1      -2.499  12.624  23.417  0.00  0.00    +0.000 A 
ATOM     11  C   UNL     1      -1.577  12.891  22.405  0.00  0.00    +0.000 A 
ATOM     12  C   UNL     1      -2.006  13.351  21.150  0.00  0.00    +0.000 A 
ATOM     13  C   UNL     1      -3.381  13.505  20.923  0.00  0.00    +0.000 A 
ATOM     14  C   UNL     1      -4.309  13.236  21.937  0.00  0.00    +0.000 A 
BRANCH   9  16
ATOM     15  N   UNL     1      -4.434  12.557  25.515  0.00  0.00    +0.000 NA
ATOM     16  C   UNL     1      -4.840  12.532  24.287  0.00  0.00    +0.000 C 
ATOM     17  N   UNL     1      -6.146  12.255  24.001  0.00  0.00    +0.000 N 
ATOM     18  H   UNL     1      -5.226  12.409  26.142  0.00  0.00    +0.000 HD
ATOM     19  H   UNL     1      -6.658  11.771  24.729  0.00  0.00    +0.000 HD
ATOM     20  H   UNL     1      -6.312  11.838  23.090  0.00  0.00    +0.000 HD
ENDBRANCH   9  16
ENDBRANCH   8  12
ENDBRANCH   1   8
BRANCH   4  21
ATOM     21  C   UNL     1       1.028   9.263  20.027  0.00  0.00    +0.000 C 
BRANCH  21  22
ATOM     22  C   UNL     1       1.714   7.932  19.978  0.00  0.00    +0.000 A 
ATOM     23  N   UNL     1       2.378   7.447  18.949  0.00  0.00    +0.000 NA
ATOM     24  C   UNL     1       2.548   6.114  19.213  0.00  0.00    +0.000 A 
ATOM     25  C   UNL     1       3.078   5.111  18.393  0.00  0.00    +0.000 A 
ATOM     26  C   UNL     1       3.059   3.796  18.862  0.00  0.00    +0.000 A 
ATOM     27 CL   UNL     1       3.644   2.534  17.845  0.00  0.00    +0.000 Cl
ATOM     28  C   UNL     1       2.556   3.484  20.127  0.00  0.00    +0.000 A 
ATOM     29  C   UNL     1       2.054   4.484  20.976  0.00  0.00    +0.000 A 
ATOM     30  C   UNL     1       2.057   5.788  20.473  0.00  0.00    +0.000 A 
ATOM     31  N   UNL     1       1.610   6.988  20.978  0.00  0.00    +0.000 N 
ATOM     32  H   UNL     1       1.176   7.135  21.879  0.00  0.00    +0.000 HD
ENDBRANCH  21  22
ENDBRANCH   4  21
TORSDOF 5
ENDMDL
MODEL 6
REMARK VINA RESULT:      -8.4      3.725      9.502
REMARK  Name = 
REMARK  5 active torsions:
REMARK  status: ('A' for Active; 'I' for Inactive)
REMARK    1  A    between atoms: C_2  and  C_4
REMARK    2  A    between atoms: C_7  and  C_8
REMARK    3  A    between atoms: C_8  and  N_9
REMARK    4  A    between atoms: N_12  and  C_13
REMARK    5  A    between atoms: C_13  and  C_14
REMARK                            x       y       z     vdW  Elec       q    Type
REMARK                         _______ _______ _______ _____ _____    ______ ____
ROOT
ATOM      1  N   UNL     1       3.723   4.807  19.482  0.00  0.00    +0.000 N 
ATOM      2  C   UNL     1       3.590   6.147  18.922  0.00  0.00    +0.000 C 
ATOM      3  C   UNL     1       2.132   6.551  18.690  0.00  0.00    +0.000 C 
ATOM      4  N   UNL     1       1.258   6.320  19.855  0.00  0.00    +0.000 NA
ATOM      5  C   UNL     1       1.332   4.876  20.210  0.00  0.00    +0.000 C 
ATOM      6  C   UNL     1       2.748   4.277  20.315  0.00  0.00    +0.000 C 
ATOM      7  O   UNL     1       2.949   3.291  21.025  0.00  0.00    +0.000 OA
ENDROOT
BRANCH   1   8
ATOM      8  C   UNL     1       5.002   4.125  19.331  0.00  0.00    +0.000 C 
BRANCH   8  12
ATOM      9  C   UNL     1       6.508   4.477  15.286  0.00  0.00    +0.000 A 
ATOM     10  C   UNL     1       5.204   4.033  15.514  0.00  0.00    +0.000 A 
ATOM     11  C   UNL     1       4.717   3.913  16.815  0.00  0.00    +0.000 A 
ATOM     12  C   UNL     1       5.523   4.249  17.914  0.00  0.00    +0.000 A 
ATOM     13  C   UNL     1       6.838   4.677  17.680  0.00  0.00    +0.000 A 
ATOM     14  C   UNL     1       7.330   4.797  16.375  0.00  0.00    +0.000 A 
BRANCH   9  16
ATOM     15  N   UNL     1       7.924   5.505  13.637  0.00  0.00    +0.000 NA
ATOM     16  C   UNL     1       7.010   4.625  13.891  0.00  0.00    +0.000 C 
ATOM     17  N   UNL     1       6.506   3.849  12.887  0.00  0.00    +0.000 N 
ATOM     18  H   UNL     1       8.194   5.446  12.654  0.00  0.00    +0.000 HD
ATOM     19  H   UNL     1       6.633   4.212  11.950  0.00  0.00    +0.000 HD
ATOM     20  H   UNL     1       5.558   3.515  13.031  0.00  0.00    +0.000 HD
ENDBRANCH   9  16
ENDBRANCH   8  12
ENDBRANCH   1   8
BRANCH   4  21
ATOM     21  C   UNL     1       1.613   7.125  21.035  0.00  0.00    +0.000 C 
BRANCH  21  22
ATOM     22  C   UNL     1       0.851   8.406  21.185  0.00  0.00    +0.000 A 
ATOM     23  N   UNL     1       1.099   9.528  20.541  0.00  0.00    +0.000 NA
ATOM     24  C   UNL     1       0.398  10.499  21.205  0.00  0.00    +0.000 A 
ATOM     25  C   UNL     1       0.411  11.886  21.012  0.00  0.00    +0.000 A 
ATOM     26  C   UNL     1      -0.330  12.681  21.890  0.00  0.00    +0.000 A 
ATOM     27 CL   UNL     1      -0.279  14.395  21.715  0.00  0.00    +0.000 Cl
ATOM     28  C   UNL     1      -1.089  12.115  22.917  0.00  0.00    +0.000 A 
ATOM     29  C   UNL     1      -1.140  10.724  23.101  0.00  0.00    +0.000 A 
ATOM     30  C   UNL     1      -0.368   9.951  22.228  0.00  0.00    +0.000 A 
ATOM     31  N   UNL     1      -0.130   8.598  22.136  0.00  0.00    +0.000 N 
ATOM     32  H   UNL     1      -0.515   7.879  22.733  0.00  0.00    +0.000 HD
ENDBRANCH  21  22
ENDBRANCH   4  21
TORSDOF 5
ENDMDL
MODEL 7
REMARK VINA RESULT:      -8.4      3.680      9.597
REMARK  Name = 
REMARK  5 active torsions:
REMARK  status: ('A' for Active; 'I' for Inactive)
REMARK    1  A    between atoms: C_2  and  C_4
REMARK    2  A    between atoms: C_7  and  C_8
REMARK    3  A    between atoms: C_8  and  N_9
REMARK    4  A    between atoms: N_12  and  C_13
REMARK    5  A    between atoms: C_13  and  C_14
REMARK                            x       y       z     vdW  Elec       q    Type
REMARK                         _______ _______ _______ _____ _____    ______ ____
ROOT
ATOM      1  N   UNL     1       4.510   5.696  18.384  0.00  0.00    +0.000 N 
ATOM      2  C   UNL     1       4.173   7.036  17.916  0.00  0.00    +0.000 C 
ATOM      3  C   UNL     1       2.665   7.250  17.765  0.00  0.00    +0.000 C 
ATOM      4  N   UNL     1       1.884   6.834  18.945  0.00  0.00    +0.000 NA
ATOM      5  C   UNL     1       2.167   5.395  19.204  0.00  0.00    +0.000 C 
ATOM      6  C   UNL     1       3.654   4.990  19.218  0.00  0.00    +0.000 C 
ATOM      7  O   UNL     1       4.018   4.002  19.854  0.00  0.00    +0.000 OA
ENDROOT
BRANCH   1   8
ATOM      8  C   UNL     1       5.861   5.205  18.142  0.00  0.00    +0.000 C 
BRANCH   8  12
ATOM      9  C   UNL     1       6.379   4.093  13.988  0.00  0.00    +0.000 A 
ATOM     10  C   UNL     1       7.331   4.891  14.626  0.00  0.00    +0.000 A 
ATOM     11  C   UNL     1       7.165   5.257  15.961  0.00  0.00    +0.000 A 
ATOM     12  C   UNL     1       6.048   4.817  16.689  0.00  0.00    +0.000 A 
ATOM     13  C   UNL     1       5.086   4.031  16.039  0.00  0.00    +0.000 A 
ATOM     14  C   UNL     1       5.249   3.665  14.697  0.00  0.00    +0.000 A 
BRANCH   9  16
ATOM     15  N   UNL     1       6.081   2.569  12.153  0.00  0.00    +0.000 NA
ATOM     16  C   UNL     1       6.578   3.689  12.568  0.00  0.00    +0.000 C 
ATOM     17  N   UNL     1       7.285   4.485  11.714  0.00  0.00    +0.000 N 
ATOM     18  H   UNL     1       6.259   2.464  11.153  0.00  0.00    +0.000 HD
ATOM     19  H   UNL     1       7.661   4.021  10.895  0.00  0.00    +0.000 HD
ATOM     20  H   UNL     1       7.979   5.084  12.152  0.00  0.00    +0.000 HD
ENDBRANCH   9  16
ENDBRANCH   8  12
ENDBRANCH   1   8
BRANCH   4  21
ATOM     21  C   UNL     1       2.182   7.610  20.159  0.00  0.00    +0.000 C 
BRANCH  21  22
ATOM     22  C   UNL     1       1.096   8.542  20.603  0.00  0.00    +0.000 A 
ATOM     23  N   UNL     1       0.639   9.570  19.919  0.00  0.00    +0.000 NA
ATOM     24  C   UNL     1      -0.089  10.314  20.809  0.00  0.00    +0.000 A 
ATOM     25  C   UNL     1      -0.684  11.568  20.634  0.00  0.00    +0.000 A 
ATOM     26  C   UNL     1      -1.300  12.167  21.736  0.00  0.00    +0.000 A 
ATOM     27 CL   UNL     1      -1.983  13.740  21.564  0.00  0.00    +0.000 Cl
ATOM     28  C   UNL     1      -1.352  11.525  22.976  0.00  0.00    +0.000 A 
ATOM     29  C   UNL     1      -0.791  10.250  23.158  0.00  0.00    +0.000 A 
ATOM     30  C   UNL     1      -0.155   9.684  22.048  0.00  0.00    +0.000 A 
ATOM     31  N   UNL     1       0.535   8.508  21.863  0.00  0.00    +0.000 N 
ATOM     32  H   UNL     1       0.703   7.795  22.560  0.00  0.00    +0.000 HD
ENDBRANCH  21  22
ENDBRANCH   4  21
TORSDOF 5
ENDMDL
MODEL 8
REMARK VINA RESULT:      -8.3      3.637      9.493
REMARK  Name = 
REMARK  5 active torsions:
REMARK  status: ('A' for Active; 'I' for Inactive)
REMARK    1  A    between atoms: C_2  and  C_4
REMARK    2  A    between atoms: C_7  and  C_8
REMARK    3  A    between atoms: C_8  and  N_9
REMARK    4  A    between atoms: N_12  and  C_13
REMARK    5  A    between atoms: C_13  and  C_14
REMARK                            x       y       z     vdW  Elec       q    Type
REMARK                         _______ _______ _______ _____ _____    ______ ____
ROOT
ATOM      1  N   UNL     1       4.842   5.953  18.042  0.00  0.00    +0.000 N 
ATOM      2  C   UNL     1       3.952   7.022  17.606  0.00  0.00    +0.000 C 
ATOM      3  C   UNL     1       2.480   6.729  17.907  0.00  0.00    +0.000 C 
ATOM      4  N   UNL     1       2.231   6.297  19.295  0.00  0.00    +0.000 NA
ATOM      5  C   UNL     1       3.052   5.083  19.556  0.00  0.00    +0.000 C 
ATOM      6  C   UNL     1       4.535   5.168  19.145  0.00  0.00    +0.000 C 
ATOM      7  O   UNL     1       5.372   4.463  19.709  0.00  0.00    +0.000 OA
ENDROOT
BRANCH   1   8
ATOM      8  C   UNL     1       6.164   5.872  17.436  0.00  0.00    +0.000 C 
BRANCH   8  12
ATOM      9  C   UNL     1       6.019   3.865  13.600  0.00  0.00    +0.000 A 
ATOM     10  C   UNL     1       5.051   3.597  14.570  0.00  0.00    +0.000 A 
ATOM     11  C   UNL     1       5.097   4.236  15.809  0.00  0.00    +0.000 A 
ATOM     12  C   UNL     1       6.108   5.169  16.095  0.00  0.00    +0.000 A 
ATOM     13  C   UNL     1       7.088   5.420  15.124  0.00  0.00    +0.000 A 
ATOM     14  C   UNL     1       7.044   4.778  13.880  0.00  0.00    +0.000 A 
BRANCH   9  16
ATOM     15  N   UNL     1       4.838   3.227  11.606  0.00  0.00    +0.000 NA
ATOM     16  C   UNL     1       5.946   3.194  12.272  0.00  0.00    +0.000 C 
ATOM     17  N   UNL     1       7.033   2.542  11.765  0.00  0.00    +0.000 N 
ATOM     18  H   UNL     1       4.967   2.771  10.702  0.00  0.00    +0.000 HD
ATOM     19  H   UNL     1       6.833   1.849  11.053  0.00  0.00    +0.000 HD
ATOM     20  H   UNL     1       7.687   2.186  12.455  0.00  0.00    +0.000 HD
ENDBRANCH   9  16
ENDBRANCH   8  12
ENDBRANCH   1   8
BRANCH   4  21
ATOM     21  C   UNL     1       2.550   7.321  20.303  0.00  0.00    +0.000 C 
BRANCH  21  22
ATOM     22  C   UNL     1       1.415   8.226  20.674  0.00  0.00    +0.000 A 
ATOM     23  N   UNL     1       0.937   9.203  19.932  0.00  0.00    +0.000 NA
ATOM     24  C   UNL     1       0.154   9.954  20.768  0.00  0.00    +0.000 A 
ATOM     25  C   UNL     1      -0.486  11.175  20.519  0.00  0.00    +0.000 A 
ATOM     26  C   UNL     1      -1.156  11.795  21.576  0.00  0.00    +0.000 A 
ATOM     27 CL   UNL     1      -1.896  13.329  21.314  0.00  0.00    +0.000 Cl
ATOM     28  C   UNL     1      -1.218  11.207  22.841  0.00  0.00    +0.000 A 
ATOM     29  C   UNL     1      -0.612   9.966  23.096  0.00  0.00    +0.000 A 
ATOM     30  C   UNL     1       0.077   9.378  22.031  0.00  0.00    +0.000 A 
ATOM     31  N   UNL     1       0.819   8.225  21.919  0.00  0.00    +0.000 N 
ATOM     32  H   UNL     1       0.996   7.550  22.651  0.00  0.00    +0.000 HD
ENDBRANCH  21  22
ENDBRANCH   4  21
TORSDOF 5
ENDMDL
MODEL 9
REMARK VINA RESULT:      -8.3      3.670      9.560
REMARK  Name = 
REMARK  5 active torsions:
REMARK  status: ('A' for Active; 'I' for Inactive)
REMARK    1  A    between atoms: C_2  and  C_4
REMARK    2  A    between atoms: C_7  and  C_8
REMARK    3  A    between atoms: C_8  and  N_9
REMARK    4  A    between atoms: N_12  and  C_13
REMARK    5  A    between atoms: C_13  and  C_14
REMARK                            x       y       z     vdW  Elec       q    Type
REMARK                         _______ _______ _______ _____ _____    ______ ____
ROOT
ATOM      1  N   UNL     1       4.309   5.320  18.775  0.00  0.00    +0.000 N 
ATOM      2  C   UNL     1       4.055   6.676  18.302  0.00  0.00    +0.000 C 
ATOM      3  C   UNL     1       2.564   6.969  18.113  0.00  0.00    +0.000 C 
ATOM      4  N   UNL     1       1.734   6.594  19.272  0.00  0.00    +0.000 NA
ATOM      5  C   UNL     1       1.934   5.142  19.535  0.00  0.00    +0.000 C 
ATOM      6  C   UNL     1       3.397   4.660  19.585  0.00  0.00    +0.000 C 
ATOM      7  O   UNL     1       3.691   3.653  20.229  0.00  0.00    +0.000 OA
ENDROOT
BRANCH   1   8
ATOM      8  C   UNL     1       5.638   4.759  18.566  0.00  0.00    +0.000 C 
BRANCH   8  12
ATOM      9  C   UNL     1       6.432   4.116  14.357  0.00  0.00    +0.000 A 
ATOM     10  C   UNL     1       5.246   3.649  14.928  0.00  0.00    +0.000 A 
ATOM     11  C   UNL     1       4.989   3.849  16.284  0.00  0.00    +0.000 A 
ATOM     12  C   UNL     1       5.910   4.534  17.093  0.00  0.00    +0.000 A 
ATOM     13  C   UNL     1       7.107   4.984  16.519  0.00  0.00    +0.000 A 
ATOM     14  C   UNL     1       7.369   4.783  15.158  0.00  0.00    +0.000 A 
BRANCH   9  16
ATOM     15  N   UNL     1       6.176   2.891  12.305  0.00  0.00    +0.000 NA
ATOM     16  C   UNL     1       6.686   3.918  12.903  0.00  0.00    +0.000 C 
ATOM     17  N   UNL     1       7.455   4.805  12.206  0.00  0.00    +0.000 N 
ATOM     18  H   UNL     1       6.397   2.927  11.309  0.00  0.00    +0.000 HD
ATOM     19  H   UNL     1       7.855   4.453  11.345  0.00  0.00    +0.000 HD
ATOM     20  H   UNL     1       8.146   5.307  12.758  0.00  0.00    +0.000 HD
ENDBRANCH   9  16
ENDBRANCH   8  12
ENDBRANCH   1   8
BRANCH   4  21
ATOM     21  C   UNL     1       2.041   7.352  20.495  0.00  0.00    +0.000 C 
BRANCH  21  22
ATOM     22  C   UNL     1       1.104   8.481  20.799  0.00  0.00    +0.000 A 
ATOM     23  N   UNL     1       1.034   9.621  20.142  0.00  0.00    +0.000 NA
ATOM     24  C   UNL     1       0.300  10.461  20.935  0.00  0.00    +0.000 A 
ATOM     25  C   UNL     1       0.034  11.826  20.768  0.00  0.00    +0.000 A 
ATOM     26  C   UNL     1      -0.671  12.489  21.775  0.00  0.00    +0.000 A 
ATOM     27 CL   UNL     1      -0.954  14.182  21.626  0.00  0.00    +0.000 Cl
ATOM     28  C   UNL     1      -1.129  11.811  22.908  0.00  0.00    +0.000 A 
ATOM     29  C   UNL     1      -0.902  10.435  23.072  0.00  0.00    +0.000 A 
ATOM     30  C   UNL     1      -0.169   9.799  22.065  0.00  0.00    +0.000 A 
ATOM     31  N   UNL     1       0.283   8.509  21.908  0.00  0.00    +0.000 N 
ATOM     32  H   UNL     1       0.140   7.740  22.549  0.00  0.00    +0.000 HD
ENDBRANCH  21  22
ENDBRANCH   4  21
TORSDOF 5
ENDMDL
