MODEL 1
REMARK VINA RESULT:      -8.4      0.000      0.000
REMARK  Name = 
REMARK  2 active torsions:
REMARK  status: ('A' for Active; 'I' for Inactive)
REMARK    1  A    between atoms: C_1  and  O_2
REMARK    2  A    between atoms: O_2  and  C_3
REMARK                            x       y       z     vdW  Elec       q    Type
REMARK                         _______ _______ _______ _____ _____    ______ ____
ROOT
ATOM      1  C   UNL     1       5.495   4.983  16.029  0.00  0.00    +0.000 A 
ATOM      2  C   UNL     1       5.017   6.256  16.389  0.00  0.00    +0.000 A 
ATOM      3  C   UNL     1       3.950   6.406  17.304  0.00  0.00    +0.000 A 
ATOM      4  C   UNL     1       3.348   5.270  17.824  0.00  0.00    +0.000 A 
ATOM      5  C   UNL     1       3.819   4.032  17.417  0.00  0.00    +0.000 A 
ATOM      6  C   UNL     1       4.880   3.851  16.553  0.00  0.00    +0.000 A 
ATOM      7  C   UNL     1       2.914   3.007  17.904  0.00  0.00    +0.000 C 
ATOM      8  O   UNL     1       3.094   1.815  17.740  0.00  0.00    +0.000 OA
ATOM      9  C   UNL     1       1.694   3.676  18.495  0.00  0.00    +0.000 C 
ATOM     10  C   UNL     1       1.121   2.881  19.643  0.00  0.00    +0.000 C 
ATOM     11  C   UNL     1       1.566   3.269  21.018  0.00  0.00    +0.000 C 
ATOM     12  O   UNL     1       1.334   2.513  21.971  0.00  0.00    +0.000 OA
ATOM     13  C   UNL     1       2.266   4.575  21.266  0.00  0.00    +0.000 C 
ATOM     14  C   UNL     1       2.263   5.613  20.152  0.00  0.00    +0.000 C 
ATOM     15  C   UNL     1       2.106   5.146  18.698  0.00  0.00    +0.000 C 
ENDROOT
BRANCH   1  17
ATOM     16  C   UNL     1       6.159   3.983  13.972  0.00  0.00    +0.000 C 
ATOM     17  O   UNL     1       6.497   4.708  15.143  0.00  0.00    +0.000 OA
ENDBRANCH   1  17
TORSDOF 1
ENDMDL
MODEL 2
REMARK VINA RESULT:      -7.4      1.877      2.206
REMARK  Name = 
REMARK  2 active torsions:
REMARK  status: ('A' for Active; 'I' for Inactive)
REMARK    1  A    between atoms: C_1  and  O_2
REMARK    2  A    between atoms: O_2  and  C_3
REMARK                            x       y       z     vdW  Elec       q    Type
REMARK                         _______ _______ _______ _____ _____    ______ ____
ROOT
ATOM      1  C   UNL     1       6.268   6.212  17.698  0.00  0.00    +0.000 A 
ATOM      2  C   UNL     1       5.140   6.777  17.076  0.00  0.00    +0.000 A 
ATOM      3  C   UNL     1       3.846   6.252  17.292  0.00  0.00    +0.000 A 
ATOM      4  C   UNL     1       3.701   5.139  18.107  0.00  0.00    +0.000 A 
ATOM      5  C   UNL     1       4.838   4.585  18.671  0.00  0.00    +0.000 A 
ATOM      6  C   UNL     1       6.111   5.093  18.509  0.00  0.00    +0.000 A 
ATOM      7  C   UNL     1       4.483   3.322  19.291  0.00  0.00    +0.000 C 
ATOM      8  O   UNL     1       5.269   2.627  19.906  0.00  0.00    +0.000 OA
ATOM      9  C   UNL     1       3.057   2.981  18.917  0.00  0.00    +0.000 C 
ATOM     10  C   UNL     1       2.358   2.219  20.016  0.00  0.00    +0.000 C 
ATOM     11  C   UNL     1       1.542   3.024  20.980  0.00  0.00    +0.000 C 
ATOM     12  O   UNL     1       1.152   2.503  22.033  0.00  0.00    +0.000 OA
ATOM     13  C   UNL     1       1.166   4.446  20.675  0.00  0.00    +0.000 C 
ATOM     14  C   UNL     1       1.386   4.959  19.258  0.00  0.00    +0.000 C 
ATOM     15  C   UNL     1       2.461   4.297  18.385  0.00  0.00    +0.000 C 
ENDROOT
BRANCH   1  17
ATOM     16  C   UNL     1       7.845   7.998  17.665  0.00  0.00    +0.000 C 
ATOM     17  O   UNL     1       7.567   6.611  17.552  0.00  0.00    +0.000 OA
ENDBRANCH   1  17
TORSDOF 1
ENDMDL
MODEL 3
REMARK VINA RESULT:      -7.3      1.939      5.765
REMARK  Name = 
REMARK  2 active torsions:
REMARK  status: ('A' for Active; 'I' for Inactive)
REMARK    1  A    between atoms: C_1  and  O_2
REMARK    2  A    between atoms: O_2  and  C_3
REMARK                            x       y       z     vdW  Elec       q    Type
REMARK                         _______ _______ _______ _____ _____    ______ ____
ROOT
ATOM      1  C   UNL     1       2.030   2.946  19.403  0.00  0.00    +0.000 A 
ATOM      2  C   UNL     1       2.678   1.994  18.596  0.00  0.00    +0.000 A 
ATOM      3  C   UNL     1       3.696   2.372  17.691  0.00  0.00    +0.000 A 
ATOM      4  C   UNL     1       4.029   3.714  17.579  0.00  0.00    +0.000 A 
ATOM      5  C   UNL     1       3.343   4.629  18.361  0.00  0.00    +0.000 A 
ATOM      6  C   UNL     1       2.370   4.290  19.279  0.00  0.00    +0.000 A 
ATOM      7  C   UNL     1       3.694   5.968  17.926  0.00  0.00    +0.000 C 
ATOM      8  O   UNL     1       3.279   6.981  18.458  0.00  0.00    +0.000 OA
ATOM      9  C   UNL     1       4.512   5.869  16.658  0.00  0.00    +0.000 C 
ATOM     10  C   UNL     1       5.524   6.984  16.557  0.00  0.00    +0.000 C 
ATOM     11  C   UNL     1       6.904   6.687  17.055  0.00  0.00    +0.000 C 
ATOM     12  O   UNL     1       7.703   7.617  17.230  0.00  0.00    +0.000 OA
ATOM     13  C   UNL     1       7.345   5.276  17.319  0.00  0.00    +0.000 C 
ATOM     14  C   UNL     1       6.466   4.142  16.807  0.00  0.00    +0.000 C 
ATOM     15  C   UNL     1       4.967   4.400  16.593  0.00  0.00    +0.000 C 
ENDROOT
BRANCH   1  17
ATOM     16  C   UNL     1       1.355   2.686  21.673  0.00  0.00    +0.000 C 
ATOM     17  O   UNL     1       1.021   2.711  20.294  0.00  0.00    +0.000 OA
ENDBRANCH   1  17
TORSDOF 1
ENDMDL
MODEL 4
REMARK VINA RESULT:      -7.3      2.405      3.272
REMARK  Name = 
REMARK  2 active torsions:
REMARK  status: ('A' for Active; 'I' for Inactive)
REMARK    1  A    between atoms: C_1  and  O_2
REMARK    2  A    between atoms: O_2  and  C_3
REMARK                            x       y       z     vdW  Elec       q    Type
REMARK                         _______ _______ _______ _____ _____    ______ ____
ROOT
ATOM      1  C   UNL     1       6.498   6.596  17.518  0.00  0.00    +0.000 A 
ATOM      2  C   UNL     1       7.155   5.560  18.207  0.00  0.00    +0.000 A 
ATOM      3  C   UNL     1       6.428   4.555  18.884  0.00  0.00    +0.000 A 
ATOM      4  C   UNL     1       5.042   4.619  18.892  0.00  0.00    +0.000 A 
ATOM      5  C   UNL     1       4.430   5.675  18.236  0.00  0.00    +0.000 A 
ATOM      6  C   UNL     1       5.108   6.652  17.537  0.00  0.00    +0.000 A 
ATOM      7  C   UNL     1       3.014   5.664  18.558  0.00  0.00    +0.000 C 
ATOM      8  O   UNL     1       2.211   6.448  18.091  0.00  0.00    +0.000 OA
ATOM      9  C   UNL     1       2.770   4.638  19.642  0.00  0.00    +0.000 C 
ATOM     10  C   UNL     1       1.408   4.001  19.513  0.00  0.00    +0.000 C 
ATOM     11  C   UNL     1       1.339   2.708  18.761  0.00  0.00    +0.000 C 
ATOM     12  O   UNL     1       0.238   2.266  18.408  0.00  0.00    +0.000 OA
ATOM     13  C   UNL     1       2.583   1.925  18.454  0.00  0.00    +0.000 C 
ATOM     14  C   UNL     1       3.874   2.321  19.158  0.00  0.00    +0.000 C 
ATOM     15  C   UNL     1       4.038   3.764  19.655  0.00  0.00    +0.000 C 
ENDROOT
BRANCH   1  17
ATOM     16  C   UNL     1       7.868   8.542  17.604  0.00  0.00    +0.000 C 
ATOM     17  O   UNL     1       7.085   7.632  16.849  0.00  0.00    +0.000 OA
ENDBRANCH   1  17
TORSDOF 1
ENDMDL
MODEL 5
REMARK VINA RESULT:      -7.2      1.958      2.755
REMARK  Name = 
REMARK  2 active torsions:
REMARK  status: ('A' for Active; 'I' for Inactive)
REMARK    1  A    between atoms: C_1  and  O_2
REMARK    2  A    between atoms: O_2  and  C_3
REMARK                            x       y       z     vdW  Elec       q    Type
REMARK                         _______ _______ _______ _____ _____    ______ ____
ROOT
ATOM      1  C   UNL     1       6.638   6.050  16.616  0.00  0.00    +0.000 A 
ATOM      2  C   UNL     1       5.862   5.610  15.528  0.00  0.00    +0.000 A 
ATOM      3  C   UNL     1       4.787   4.711  15.712  0.00  0.00    +0.000 A 
ATOM      4  C   UNL     1       4.523   4.233  16.988  0.00  0.00    +0.000 A 
ATOM      5  C   UNL     1       5.332   4.658  18.029  0.00  0.00    +0.000 A 
ATOM      6  C   UNL     1       6.366   5.561  17.889  0.00  0.00    +0.000 A 
ATOM      7  C   UNL     1       5.020   3.874  19.210  0.00  0.00    +0.000 C 
ATOM      8  O   UNL     1       5.541   4.052  20.294  0.00  0.00    +0.000 OA
ATOM      9  C   UNL     1       4.080   2.756  18.817  0.00  0.00    +0.000 C 
ATOM     10  C   UNL     1       3.130   2.405  19.936  0.00  0.00    +0.000 C 
ATOM     11  C   UNL     1       1.788   3.069  19.911  0.00  0.00    +0.000 C 
ATOM     12  O   UNL     1       1.065   3.020  20.915  0.00  0.00    +0.000 OA
ATOM     13  C   UNL     1       1.294   3.769  18.678  0.00  0.00    +0.000 C 
ATOM     14  C   UNL     1       2.053   3.551  17.376  0.00  0.00    +0.000 C 
ATOM     15  C   UNL     1       3.537   3.161  17.435  0.00  0.00    +0.000 C 
ENDROOT
BRANCH   1  17
ATOM     16  C   UNL     1       7.767   7.945  17.516  0.00  0.00    +0.000 C 
ATOM     17  O   UNL     1       7.711   6.894  16.565  0.00  0.00    +0.000 OA
ENDBRANCH   1  17
TORSDOF 1
ENDMDL
MODEL 6
REMARK VINA RESULT:      -7.1      2.144      2.766
REMARK  Name = 
REMARK  2 active torsions:
REMARK  status: ('A' for Active; 'I' for Inactive)
REMARK    1  A    between atoms: C_1  and  O_2
REMARK    2  A    between atoms: O_2  and  C_3
REMARK                            x       y       z     vdW  Elec       q    Type
REMARK                         _______ _______ _______ _____ _____    ______ ____
ROOT
ATOM      1  C   UNL     1       6.726   6.411  17.961  0.00  0.00    +0.000 A 
ATOM      2  C   UNL     1       5.901   6.723  16.864  0.00  0.00    +0.000 A 
ATOM      3  C   UNL     1       4.704   6.012  16.623  0.00  0.00    +0.000 A 
ATOM      4  C   UNL     1       4.362   4.968  17.470  0.00  0.00    +0.000 A 
ATOM      5  C   UNL     1       5.217   4.663  18.516  0.00  0.00    +0.000 A 
ATOM      6  C   UNL     1       6.374   5.359  18.800  0.00  0.00    +0.000 A 
ATOM      7  C   UNL     1       4.782   3.419  19.125  0.00  0.00    +0.000 C 
ATOM      8  O   UNL     1       5.316   2.923  20.099  0.00  0.00    +0.000 OA
ATOM      9  C   UNL     1       3.691   2.815  18.271  0.00  0.00    +0.000 C 
ATOM     10  C   UNL     1       2.690   2.049  19.101  0.00  0.00    +0.000 C 
ATOM     11  C   UNL     1       1.462   2.791  19.527  0.00  0.00    +0.000 C 
ATOM     12  O   UNL     1       0.731   2.310  20.404  0.00  0.00    +0.000 OA
ATOM     13  C   UNL     1       1.086   4.098  18.889  0.00  0.00    +0.000 C 
ATOM     14  C   UNL     1       1.815   4.511  17.617  0.00  0.00    +0.000 C 
ATOM     15  C   UNL     1       3.224   3.961  17.354  0.00  0.00    +0.000 C 
ENDROOT
BRANCH   1  17
ATOM     16  C   UNL     1       8.072   8.376  17.959  0.00  0.00    +0.000 C 
ATOM     17  O   UNL     1       7.913   7.005  18.285  0.00  0.00    +0.000 OA
ENDBRANCH   1  17
TORSDOF 1
ENDMDL
MODEL 7
REMARK VINA RESULT:      -7.0      1.956      2.883
REMARK  Name = 
REMARK  2 active torsions:
REMARK  status: ('A' for Active; 'I' for Inactive)
REMARK    1  A    between atoms: C_1  and  O_2
REMARK    2  A    between atoms: O_2  and  C_3
REMARK                            x       y       z     vdW  Elec       q    Type
REMARK                         _______ _______ _______ _____ _____    ______ ____
ROOT
ATOM      1  C   UNL     1       6.932   4.999  14.941  0.00  0.00    +0.000 A 
ATOM      2  C   UNL     1       5.900   4.295  14.295  0.00  0.00    +0.000 A 
ATOM      3  C   UNL     1       4.807   3.768  15.020  0.00  0.00    +0.000 A 
ATOM      4  C   UNL     1       4.778   3.925  16.398  0.00  0.00    +0.000 A 
ATOM      5  C   UNL     1       5.831   4.589  17.005  0.00  0.00    +0.000 A 
ATOM      6  C   UNL     1       6.894   5.146  16.324  0.00  0.00    +0.000 A 
ATOM      7  C   UNL     1       5.705   4.443  18.444  0.00  0.00    +0.000 C 
ATOM      8  O   UNL     1       6.462   4.959  19.243  0.00  0.00    +0.000 OA
ATOM      9  C   UNL     1       4.597   3.455  18.737  0.00  0.00    +0.000 C 
ATOM     10  C   UNL     1       3.881   3.784  20.023  0.00  0.00    +0.000 C 
ATOM     11  C   UNL     1       2.637   4.610  19.908  0.00  0.00    +0.000 C 
ATOM     12  O   UNL     1       2.146   5.118  20.925  0.00  0.00    +0.000 OA
ATOM     13  C   UNL     1       1.959   4.808  18.583  0.00  0.00    +0.000 C 
ATOM     14  C   UNL     1       2.395   3.931  17.416  0.00  0.00    +0.000 C 
ATOM     15  C   UNL     1       3.811   3.338  17.418  0.00  0.00    +0.000 C 
ENDROOT
BRANCH   1  17
ATOM     16  C   UNL     1       8.127   5.501  12.943  0.00  0.00    +0.000 C 
ATOM     17  O   UNL     1       8.046   5.533  14.359  0.00  0.00    +0.000 OA
ENDBRANCH   1  17
TORSDOF 1
ENDMDL
MODEL 8
REMARK VINA RESULT:      -7.0      2.287      5.691
REMARK  Name = 
REMARK  2 active torsions:
REMARK  status: ('A' for Active; 'I' for Inactive)
REMARK    1  A    between atoms: C_1  and  O_2
REMARK    2  A    between atoms: O_2  and  C_3
REMARK                            x       y       z     vdW  Elec       q    Type
REMARK                         _______ _______ _______ _____ _____    ______ ____
ROOT
ATOM      1  C   UNL     1       2.072   3.399  18.284  0.00  0.00    +0.000 A 
ATOM      2  C   UNL     1       2.972   2.418  17.828  0.00  0.00    +0.000 A 
ATOM      3  C   UNL     1       4.265   2.765  17.376  0.00  0.00    +0.000 A 
ATOM      4  C   UNL     1       4.632   4.102  17.353  0.00  0.00    +0.000 A 
ATOM      5  C   UNL     1       3.707   5.044  17.772  0.00  0.00    +0.000 A 
ATOM      6  C   UNL     1       2.450   4.738  18.251  0.00  0.00    +0.000 A 
ATOM      7  C   UNL     1       4.216   6.367  17.458  0.00  0.00    +0.000 C 
ATOM      8  O   UNL     1       3.639   7.398  17.749  0.00  0.00    +0.000 OA
ATOM      9  C   UNL     1       5.461   6.221  16.613  0.00  0.00    +0.000 C 
ATOM     10  C   UNL     1       6.446   7.335  16.872  0.00  0.00    +0.000 C 
ATOM     11  C   UNL     1       7.521   7.062  17.878  0.00  0.00    +0.000 C 
ATOM     12  O   UNL     1       8.200   8.001  18.315  0.00  0.00    +0.000 OA
ATOM     13  C   UNL     1       7.807   5.664  18.345  0.00  0.00    +0.000 C 
ATOM     14  C   UNL     1       7.183   4.508  17.575  0.00  0.00    +0.000 C 
ATOM     15  C   UNL     1       5.888   4.752  16.785  0.00  0.00    +0.000 C 
ENDROOT
BRANCH   1  17
ATOM     16  C   UNL     1       0.571   3.191  20.121  0.00  0.00    +0.000 C 
ATOM     17  O   UNL     1       0.794   3.195  18.720  0.00  0.00    +0.000 OA
ENDBRANCH   1  17
TORSDOF 1
ENDMDL
MODEL 9
REMARK VINA RESULT:      -6.9      1.299      1.508
REMARK  Name = 
REMARK  2 active torsions:
REMARK  status: ('A' for Active; 'I' for Inactive)
REMARK    1  A    between atoms: C_1  and  O_2
REMARK    2  A    between atoms: O_2  and  C_3
REMARK                            x       y       z     vdW  Elec       q    Type
REMARK                         _______ _______ _______ _____ _____    ______ ____
ROOT
ATOM      1  C   UNL     1       5.185   6.368  16.870  0.00  0.00    +0.000 A 
ATOM      2  C   UNL     1       4.211   7.310  17.251  0.00  0.00    +0.000 A 
ATOM      3  C   UNL     1       3.087   6.931  18.020  0.00  0.00    +0.000 A 
ATOM      4  C   UNL     1       2.933   5.598  18.370  0.00  0.00    +0.000 A 
ATOM      5  C   UNL     1       3.890   4.692  17.945  0.00  0.00    +0.000 A 
ATOM      6  C   UNL     1       5.016   5.033  17.224  0.00  0.00    +0.000 A 
ATOM      7  C   UNL     1       3.418   3.349  18.230  0.00  0.00    +0.000 C 
ATOM      8  O   UNL     1       4.068   2.345  18.008  0.00  0.00    +0.000 OA
ATOM      9  C   UNL     1       1.981   3.427  18.695  0.00  0.00    +0.000 C 
ATOM     10  C   UNL     1       1.657   2.343  19.694  0.00  0.00    +0.000 C 
ATOM     11  C   UNL     1       1.776   2.706  21.141  0.00  0.00    +0.000 C 
ATOM     12  O   UNL     1       1.768   1.811  21.997  0.00  0.00    +0.000 OA
ATOM     13  C   UNL     1       1.878   4.141  21.574  0.00  0.00    +0.000 C 
ATOM     14  C   UNL     1       1.576   5.223  20.547  0.00  0.00    +0.000 C 
ATOM     15  C   UNL     1       1.760   4.907  19.055  0.00  0.00    +0.000 C 
ENDROOT
BRANCH   1  17
ATOM     16  C   UNL     1       7.464   7.054  16.781  0.00  0.00    +0.000 C 
ATOM     17  O   UNL     1       6.296   6.603  16.113  0.00  0.00    +0.000 OA
ENDBRANCH   1  17
TORSDOF 1
ENDMDL
