MODEL 1
REMARK VINA RESULT:      -8.4      0.000      0.000
REMARK  Name = 
REMARK  3 active torsions:
REMARK  status: ('A' for Active; 'I' for Inactive)
REMARK    1  A    between atoms: C_1  and  C_2
REMARK    2  A    between atoms: C_5  and  C_7
REMARK    3  A    between atoms: C_16  and  C_17
REMARK                            x       y       z     vdW  Elec       q    Type
REMARK                         _______ _______ _______ _____ _____    ______ ____
ROOT
ATOM      1  C   UNL     1      -0.301   9.678  22.530  0.00  0.00    +0.000 C 
ATOM      2  C   UNL     1       0.366   9.710  21.202  0.00  0.00    +0.000 A 
ATOM      3  N   UNL     1       0.857   8.578  20.684  0.00  0.00    +0.000 NA
ATOM      4  N   UNL     1       1.470   8.951  19.525  0.00  0.00    +0.000 N 
ATOM      5  C   UNL     1       2.198   8.005  18.773  0.00  0.00    +0.000 C 
ATOM      6  O   UNL     1       2.936   8.421  17.883  0.00  0.00    +0.000 OA
ATOM      7  C   UNL     1       1.313  10.302  19.306  0.00  0.00    +0.000 A 
ATOM      8  C   UNL     1       0.589  10.823  20.351  0.00  0.00    +0.000 A 
ATOM      9  C   UNL     1       0.244  12.263  20.506  0.00  0.00    +0.000 C 
ATOM     10  S   UNL     1       0.777  13.352  19.146  0.00  0.00    +0.000 S 
ATOM     11  C   UNL     1       1.887  12.355  18.234  0.00  0.00    +0.000 C 
ATOM     12  N   UNL     1       2.747  12.976  17.501  0.00  0.00    +0.000 NA
ATOM     13  N   UNL     1       1.840  10.996  18.282  0.00  0.00    +0.000 N 
ATOM     14  H   UNL     1       2.591  13.981  17.651  0.00  0.00    +0.000 HD
ATOM     15  H   UNL     1       2.496  10.545  17.642  0.00  0.00    +0.000 HD
ENDROOT
BRANCH   5  16
ATOM     16  C   UNL     1       2.108   6.545  19.032  0.00  0.00    +0.000 A 
ATOM     17  C   UNL     1       2.023   5.655  17.952  0.00  0.00    +0.000 A 
ATOM     18  C   UNL     1       1.839   4.292  18.182  0.00  0.00    +0.000 A 
ATOM     19  C   UNL     1       1.767   3.820  19.490  0.00  0.00    +0.000 A 
ATOM     20 CL   UNL     1       1.477   2.149  19.769  0.00  0.00    +0.000 Cl
ATOM     21  C   UNL     1       1.912   4.694  20.570  0.00  0.00    +0.000 A 
ATOM     22  C   UNL     1       2.092   6.064  20.342  0.00  0.00    +0.000 A 
ENDBRANCH   5  16
BRANCH   9  23
ATOM     23  C   UNL     1      -1.265  12.328  20.708  0.00  0.00    +0.000 A 
ATOM     24  C   UNL     1      -2.121  12.114  19.611  0.00  0.00    +0.000 A 
ATOM     25  C   UNL     1      -3.509  12.208  19.757  0.00  0.00    +0.000 A 
ATOM     26  C   UNL     1      -4.057  12.508  21.001  0.00  0.00    +0.000 A 
ATOM     27 CL   UNL     1      -5.764  12.642  21.172  0.00  0.00    +0.000 Cl
ATOM     28  C   UNL     1      -3.233  12.703  22.105  0.00  0.00    +0.000 A 
ATOM     29  C   UNL     1      -1.846  12.604  21.962  0.00  0.00    +0.000 A 
ENDBRANCH   9  23
TORSDOF 2
ENDMDL
MODEL 2
REMARK VINA RESULT:      -8.2      0.148      1.324
REMARK  Name = 
REMARK  3 active torsions:
REMARK  status: ('A' for Active; 'I' for Inactive)
REMARK    1  A    between atoms: C_1  and  C_2
REMARK    2  A    between atoms: C_5  and  C_7
REMARK    3  A    between atoms: C_16  and  C_17
REMARK                            x       y       z     vdW  Elec       q    Type
REMARK                         _______ _______ _______ _____ _____    ______ ____
ROOT
ATOM      1  C   UNL     1      -0.416   9.745  22.461  0.00  0.00    +0.000 C 
ATOM      2  C   UNL     1       0.284   9.774  21.150  0.00  0.00    +0.000 A 
ATOM      3  N   UNL     1       0.766   8.636  20.636  0.00  0.00    +0.000 NA
ATOM      4  N   UNL     1       1.415   9.006  19.495  0.00  0.00    +0.000 N 
ATOM      5  C   UNL     1       2.142   8.052  18.754  0.00  0.00    +0.000 C 
ATOM      6  O   UNL     1       2.910   8.460  17.885  0.00  0.00    +0.000 OA
ATOM      7  C   UNL     1       1.289  10.361  19.283  0.00  0.00    +0.000 A 
ATOM      8  C   UNL     1       0.549  10.888  20.314  0.00  0.00    +0.000 A 
ATOM      9  C   UNL     1       0.229  12.334  20.472  0.00  0.00    +0.000 C 
ATOM     10  S   UNL     1       0.817  13.422  19.135  0.00  0.00    +0.000 S 
ATOM     11  C   UNL     1       1.929  12.410  18.242  0.00  0.00    +0.000 C 
ATOM     12  N   UNL     1       2.819  13.021  17.535  0.00  0.00    +0.000 NA
ATOM     13  N   UNL     1       1.855  11.053  18.278  0.00  0.00    +0.000 N 
ATOM     14  H   UNL     1       2.679  14.027  17.689  0.00  0.00    +0.000 HD
ATOM     15  H   UNL     1       2.518  10.593  17.650  0.00  0.00    +0.000 HD
ENDROOT
BRANCH   5  16
ATOM     16  C   UNL     1       2.018   6.592  18.999  0.00  0.00    +0.000 A 
ATOM     17  C   UNL     1       2.082   6.103  20.311  0.00  0.00    +0.000 A 
ATOM     18  C   UNL     1       2.066   4.728  20.547  0.00  0.00    +0.000 A 
ATOM     19  C   UNL     1       1.960   3.849  19.473  0.00  0.00    +0.000 A 
ATOM     20 CL   UNL     1       2.004   2.155  19.762  0.00  0.00    +0.000 Cl
ATOM     21  C   UNL     1       1.835   4.332  18.168  0.00  0.00    +0.000 A 
ATOM     22  C   UNL     1       1.855   5.711  17.928  0.00  0.00    +0.000 A 
ENDBRANCH   5  16
BRANCH   9  23
ATOM     23  C   UNL     1      -1.284  12.427  20.637  0.00  0.00    +0.000 A 
ATOM     24  C   UNL     1      -1.823  12.784  21.887  0.00  0.00    +0.000 A 
ATOM     25  C   UNL     1      -3.207  12.838  22.081  0.00  0.00    +0.000 A 
ATOM     26  C   UNL     1      -4.067  12.543  21.027  0.00  0.00    +0.000 A 
ATOM     27 CL   UNL     1      -5.769  12.591  21.274  0.00  0.00    +0.000 Cl
ATOM     28  C   UNL     1      -3.558  12.207  19.776  0.00  0.00    +0.000 A 
ATOM     29  C   UNL     1      -2.175  12.159  19.579  0.00  0.00    +0.000 A 
ENDBRANCH   9  23
TORSDOF 2
ENDMDL
MODEL 3
REMARK VINA RESULT:      -8.1      0.523      1.087
REMARK  Name = 
REMARK  3 active torsions:
REMARK  status: ('A' for Active; 'I' for Inactive)
REMARK    1  A    between atoms: C_1  and  C_2
REMARK    2  A    between atoms: C_5  and  C_7
REMARK    3  A    between atoms: C_16  and  C_17
REMARK                            x       y       z     vdW  Elec       q    Type
REMARK                         _______ _______ _______ _____ _____    ______ ____
ROOT
ATOM      1  C   UNL     1       0.239   9.601  22.823  0.00  0.00    +0.000 C 
ATOM      2  C   UNL     1       0.713   9.646  21.415  0.00  0.00    +0.000 A 
ATOM      3  N   UNL     1       1.062   8.509  20.802  0.00  0.00    +0.000 NA
ATOM      4  N   UNL     1       1.526   8.891  19.577  0.00  0.00    +0.000 N 
ATOM      5  C   UNL     1       2.087   7.936  18.703  0.00  0.00    +0.000 C 
ATOM      6  O   UNL     1       2.715   8.345  17.729  0.00  0.00    +0.000 OA
ATOM      7  C   UNL     1       1.416  10.255  19.421  0.00  0.00    +0.000 A 
ATOM      8  C   UNL     1       0.876  10.775  20.573  0.00  0.00    +0.000 A 
ATOM      9  C   UNL     1       0.639  12.225  20.815  0.00  0.00    +0.000 C 
ATOM     10  S   UNL     1       1.035  13.333  19.424  0.00  0.00    +0.000 S 
ATOM     11  C   UNL     1       1.948  12.312  18.335  0.00  0.00    +0.000 C 
ATOM     12  N   UNL     1       2.730  12.914  17.505  0.00  0.00    +0.000 NA
ATOM     13  N   UNL     1       1.832  10.957  18.352  0.00  0.00    +0.000 N 
ATOM     14  H   UNL     1       2.654  13.920  17.704  0.00  0.00    +0.000 HD
ATOM     15  H   UNL     1       2.365  10.496  17.612  0.00  0.00    +0.000 HD
ENDROOT
BRANCH   5  16
ATOM     16  C   UNL     1       1.952   6.474  18.931  0.00  0.00    +0.000 A 
ATOM     17  C   UNL     1       1.955   5.976  20.242  0.00  0.00    +0.000 A 
ATOM     18  C   UNL     1       1.930   4.599  20.466  0.00  0.00    +0.000 A 
ATOM     19  C   UNL     1       1.875   3.728  19.382  0.00  0.00    +0.000 A 
ATOM     20 CL   UNL     1       1.907   2.032  19.661  0.00  0.00    +0.000 Cl
ATOM     21  C   UNL     1       1.811   4.221  18.077  0.00  0.00    +0.000 A 
ATOM     22  C   UNL     1       1.841   5.602  17.848  0.00  0.00    +0.000 A 
ENDBRANCH   5  16
BRANCH   9  23
ATOM     23  C   UNL     1      -0.822  12.360  21.232  0.00  0.00    +0.000 A 
ATOM     24  C   UNL     1      -1.832  12.278  20.254  0.00  0.00    +0.000 A 
ATOM     25  C   UNL     1      -3.177  12.439  20.600  0.00  0.00    +0.000 A 
ATOM     26  C   UNL     1      -3.529  12.677  21.926  0.00  0.00    +0.000 A 
ATOM     27 CL   UNL     1      -5.184  12.895  22.344  0.00  0.00    +0.000 Cl
ATOM     28  C   UNL     1      -2.551  12.743  22.913  0.00  0.00    +0.000 A 
ATOM     29  C   UNL     1      -1.206  12.576  22.570  0.00  0.00    +0.000 A 
ENDBRANCH   9  23
TORSDOF 2
ENDMDL
MODEL 4
REMARK VINA RESULT:      -7.2      2.953      4.150
REMARK  Name = 
REMARK  3 active torsions:
REMARK  status: ('A' for Active; 'I' for Inactive)
REMARK    1  A    between atoms: C_1  and  C_2
REMARK    2  A    between atoms: C_5  and  C_7
REMARK    3  A    between atoms: C_16  and  C_17
REMARK                            x       y       z     vdW  Elec       q    Type
REMARK                         _______ _______ _______ _____ _____    ______ ____
ROOT
ATOM      1  C   UNL     1      -0.219  10.571  17.428  0.00  0.00    +0.000 C 
ATOM      2  C   UNL     1       0.354   9.890  18.618  0.00  0.00    +0.000 A 
ATOM      3  N   UNL     1       1.122   8.808  18.450  0.00  0.00    +0.000 NA
ATOM      4  N   UNL     1       1.411   8.375  19.711  0.00  0.00    +0.000 N 
ATOM      5  C   UNL     1       2.123   7.172  19.901  0.00  0.00    +0.000 C 
ATOM      6  O   UNL     1       2.147   6.689  21.030  0.00  0.00    +0.000 OA
ATOM      7  C   UNL     1       0.863   9.220  20.651  0.00  0.00    +0.000 A 
ATOM      8  C   UNL     1       0.193  10.220  19.988  0.00  0.00    +0.000 A 
ATOM      9  C   UNL     1      -0.573  11.309  20.653  0.00  0.00    +0.000 C 
ATOM     10  S   UNL     1      -0.520  11.313  22.474  0.00  0.00    +0.000 S 
ATOM     11  C   UNL     1       0.153   9.746  22.867  0.00  0.00    +0.000 C 
ATOM     12  N   UNL     1      -0.103   9.292  24.046  0.00  0.00    +0.000 NA
ATOM     13  N   UNL     1       0.917   9.049  21.984  0.00  0.00    +0.000 N 
ATOM     14  H   UNL     1      -0.705   9.986  24.506  0.00  0.00    +0.000 HD
ATOM     15  H   UNL     1       1.304   8.188  22.374  0.00  0.00    +0.000 HD
ENDROOT
BRANCH   5  16
ATOM     16  C   UNL     1       2.821   6.478  18.789  0.00  0.00    +0.000 A 
ATOM     17  C   UNL     1       2.494   5.148  18.489  0.00  0.00    +0.000 A 
ATOM     18  C   UNL     1       3.210   4.454  17.514  0.00  0.00    +0.000 A 
ATOM     19  C   UNL     1       4.233   5.099  16.824  0.00  0.00    +0.000 A 
ATOM     20 CL   UNL     1       5.154   4.222  15.668  0.00  0.00    +0.000 Cl
ATOM     21  C   UNL     1       4.523   6.442  17.076  0.00  0.00    +0.000 A 
ATOM     22  C   UNL     1       3.809   7.140  18.057  0.00  0.00    +0.000 A 
ENDBRANCH   5  16
BRANCH   9  23
ATOM     23  C   UNL     1      -0.047  12.621  20.081  0.00  0.00    +0.000 A 
ATOM     24  C   UNL     1       1.317  12.939  20.219  0.00  0.00    +0.000 A 
ATOM     25  C   UNL     1       1.821  14.153  19.741  0.00  0.00    +0.000 A 
ATOM     26  C   UNL     1       0.970  15.058  19.114  0.00  0.00    +0.000 A 
ATOM     27 CL   UNL     1       1.589  16.559  18.544  0.00  0.00    +0.000 Cl
ATOM     28  C   UNL     1      -0.379  14.757  18.947  0.00  0.00    +0.000 A 
ATOM     29  C   UNL     1      -0.883  13.542  19.419  0.00  0.00    +0.000 A 
ENDBRANCH   9  23
TORSDOF 2
ENDMDL
MODEL 5
REMARK VINA RESULT:      -7.0      3.072      7.780
REMARK  Name = 
REMARK  3 active torsions:
REMARK  status: ('A' for Active; 'I' for Inactive)
REMARK    1  A    between atoms: C_1  and  C_2
REMARK    2  A    between atoms: C_5  and  C_7
REMARK    3  A    between atoms: C_16  and  C_17
REMARK                            x       y       z     vdW  Elec       q    Type
REMARK                         _______ _______ _______ _____ _____    ______ ____
ROOT
ATOM      1  C   UNL     1      -2.042  10.023  18.315  0.00  0.00    +0.000 C 
ATOM      2  C   UNL     1      -1.622  11.235  19.065  0.00  0.00    +0.000 A 
ATOM      3  N   UNL     1      -2.500  11.851  19.865  0.00  0.00    +0.000 NA
ATOM      4  N   UNL     1      -1.847  12.955  20.329  0.00  0.00    +0.000 N 
ATOM      5  C   UNL     1      -2.530  13.900  21.123  0.00  0.00    +0.000 C 
ATOM      6  O   UNL     1      -1.995  14.990  21.311  0.00  0.00    +0.000 OA
ATOM      7  C   UNL     1      -0.554  12.990  19.854  0.00  0.00    +0.000 A 
ATOM      8  C   UNL     1      -0.363  11.888  19.055  0.00  0.00    +0.000 A 
ATOM      9  C   UNL     1       0.895  11.587  18.319  0.00  0.00    +0.000 C 
ATOM     10  S   UNL     1       2.269  12.751  18.594  0.00  0.00    +0.000 S 
ATOM     11  C   UNL     1       1.504  14.106  19.393  0.00  0.00    +0.000 C 
ATOM     12  N   UNL     1       2.111  15.240  19.308  0.00  0.00    +0.000 NA
ATOM     13  N   UNL     1       0.337  13.971  20.080  0.00  0.00    +0.000 N 
ATOM     14  H   UNL     1       2.946  15.085  18.730  0.00  0.00    +0.000 HD
ATOM     15  H   UNL     1       0.047  14.826  20.558  0.00  0.00    +0.000 HD
ENDROOT
BRANCH   5  16
ATOM     16  C   UNL     1      -3.864  13.624  21.717  0.00  0.00    +0.000 A 
ATOM     17  C   UNL     1      -5.022  13.948  20.997  0.00  0.00    +0.000 A 
ATOM     18  C   UNL     1      -6.278  13.785  21.582  0.00  0.00    +0.000 A 
ATOM     19  C   UNL     1      -6.372  13.275  22.874  0.00  0.00    +0.000 A 
ATOM     20 CL   UNL     1      -7.917  13.136  23.615  0.00  0.00    +0.000 Cl
ATOM     21  C   UNL     1      -5.224  12.894  23.573  0.00  0.00    +0.000 A 
ATOM     22  C   UNL     1      -3.962  13.060  22.990  0.00  0.00    +0.000 A 
ENDBRANCH   5  16
BRANCH   9  23
ATOM     23  C   UNL     1       1.290  10.164  18.699  0.00  0.00    +0.000 A 
ATOM     24  C   UNL     1       1.102   9.724  20.023  0.00  0.00    +0.000 A 
ATOM     25  C   UNL     1       1.492   8.438  20.412  0.00  0.00    +0.000 A 
ATOM     26  C   UNL     1       2.067   7.577  19.481  0.00  0.00    +0.000 A 
ATOM     27 CL   UNL     1       2.564   6.003  19.968  0.00  0.00    +0.000 Cl
ATOM     28  C   UNL     1       2.244   7.982  18.162  0.00  0.00    +0.000 A 
ATOM     29  C   UNL     1       1.850   9.264  17.770  0.00  0.00    +0.000 A 
ENDBRANCH   9  23
TORSDOF 2
ENDMDL
MODEL 6
REMARK VINA RESULT:      -7.0      3.067      7.738
REMARK  Name = 
REMARK  3 active torsions:
REMARK  status: ('A' for Active; 'I' for Inactive)
REMARK    1  A    between atoms: C_1  and  C_2
REMARK    2  A    between atoms: C_5  and  C_7
REMARK    3  A    between atoms: C_16  and  C_17
REMARK                            x       y       z     vdW  Elec       q    Type
REMARK                         _______ _______ _______ _____ _____    ______ ____
ROOT
ATOM      1  C   UNL     1      -1.997  10.018  18.299  0.00  0.00    +0.000 C 
ATOM      2  C   UNL     1      -1.589  11.279  18.972  0.00  0.00    +0.000 A 
ATOM      3  N   UNL     1      -2.479  11.948  19.713  0.00  0.00    +0.000 NA
ATOM      4  N   UNL     1      -1.833  13.081  20.112  0.00  0.00    +0.000 N 
ATOM      5  C   UNL     1      -2.528  14.077  20.829  0.00  0.00    +0.000 C 
ATOM      6  O   UNL     1      -1.995  15.178  20.951  0.00  0.00    +0.000 OA
ATOM      7  C   UNL     1      -0.532  13.083  19.658  0.00  0.00    +0.000 A 
ATOM      8  C   UNL     1      -0.329  11.930  18.938  0.00  0.00    +0.000 A 
ATOM      9  C   UNL     1       0.941  11.580  18.245  0.00  0.00    +0.000 C 
ATOM     10  S   UNL     1       2.311  12.760  18.463  0.00  0.00    +0.000 S 
ATOM     11  C   UNL     1       1.534  14.166  19.156  0.00  0.00    +0.000 C 
ATOM     12  N   UNL     1       2.144  15.292  19.004  0.00  0.00    +0.000 NA
ATOM     13  N   UNL     1       0.356  14.078  19.831  0.00  0.00    +0.000 N 
ATOM     14  H   UNL     1       2.988  15.098  18.452  0.00  0.00    +0.000 HD
ATOM     15  H   UNL     1       0.059  14.964  20.245  0.00  0.00    +0.000 HD
ENDROOT
BRANCH   5  16
ATOM     16  C   UNL     1      -3.871  13.841  21.418  0.00  0.00    +0.000 A 
ATOM     17  C   UNL     1      -3.977  13.241  22.680  0.00  0.00    +0.000 A 
ATOM     18  C   UNL     1      -5.232  12.924  23.201  0.00  0.00    +0.000 A 
ATOM     19  C   UNL     1      -6.376  13.232  22.470  0.00  0.00    +0.000 A 
ATOM     20 CL   UNL     1      -7.917  12.783  23.086  0.00  0.00    +0.000 Cl
ATOM     21  C   UNL     1      -6.279  13.885  21.239  0.00  0.00    +0.000 A 
ATOM     22  C   UNL     1      -5.021  14.200  20.712  0.00  0.00    +0.000 A 
ENDBRANCH   5  16
BRANCH   9  23
ATOM     23  C   UNL     1       1.328  10.187  18.727  0.00  0.00    +0.000 A 
ATOM     24  C   UNL     1       1.871   9.263  17.813  0.00  0.00    +0.000 A 
ATOM     25  C   UNL     1       2.197   7.964  18.217  0.00  0.00    +0.000 A 
ATOM     26  C   UNL     1       1.993   7.576  19.538  0.00  0.00    +0.000 A 
ATOM     27 CL   UNL     1       2.378   5.972  20.026  0.00  0.00    +0.000 Cl
ATOM     28  C   UNL     1       1.477   8.477  20.465  0.00  0.00    +0.000 A 
ATOM     29  C   UNL     1       1.155   9.777  20.064  0.00  0.00    +0.000 A 
ENDBRANCH   9  23
TORSDOF 2
ENDMDL
MODEL 7
REMARK VINA RESULT:      -7.0      3.194      7.814
REMARK  Name = 
REMARK  3 active torsions:
REMARK  status: ('A' for Active; 'I' for Inactive)
REMARK    1  A    between atoms: C_1  and  C_2
REMARK    2  A    between atoms: C_5  and  C_7
REMARK    3  A    between atoms: C_16  and  C_17
REMARK                            x       y       z     vdW  Elec       q    Type
REMARK                         _______ _______ _______ _____ _____    ______ ____
ROOT
ATOM      1  C   UNL     1      -2.044  10.401  18.577  0.00  0.00    +0.000 C 
ATOM      2  C   UNL     1      -1.583  11.567  19.376  0.00  0.00    +0.000 A 
ATOM      3  N   UNL     1      -2.429  12.158  20.226  0.00  0.00    +0.000 NA
ATOM      4  N   UNL     1      -1.745  13.225  20.728  0.00  0.00    +0.000 N 
ATOM      5  C   UNL     1      -2.391  14.142  21.584  0.00  0.00    +0.000 C 
ATOM      6  O   UNL     1      -1.830  15.211  21.813  0.00  0.00    +0.000 OA
ATOM      7  C   UNL     1      -0.463  13.260  20.225  0.00  0.00    +0.000 A 
ATOM      8  C   UNL     1      -0.312  12.196  19.368  0.00  0.00    +0.000 A 
ATOM      9  C   UNL     1       0.922  11.910  18.586  0.00  0.00    +0.000 C 
ATOM     10  S   UNL     1       2.325  13.033  18.885  0.00  0.00    +0.000 S 
ATOM     11  C   UNL     1       1.605  14.360  19.769  0.00  0.00    +0.000 C 
ATOM     12  N   UNL     1       2.232  15.486  19.726  0.00  0.00    +0.000 NA
ATOM     13  N   UNL     1       0.453  14.212  20.477  0.00  0.00    +0.000 N 
ATOM     14  H   UNL     1       3.050  15.344  19.120  0.00  0.00    +0.000 HD
ATOM     15  H   UNL     1       0.190  15.048  21.003  0.00  0.00    +0.000 HD
ENDROOT
BRANCH   5  16
ATOM     16  C   UNL     1      -3.715  13.860  22.196  0.00  0.00    +0.000 A 
ATOM     17  C   UNL     1      -4.873  14.393  21.613  0.00  0.00    +0.000 A 
ATOM     18  C   UNL     1      -6.111  14.219  22.232  0.00  0.00    +0.000 A 
ATOM     19  C   UNL     1      -6.190  13.492  23.417  0.00  0.00    +0.000 A 
ATOM     20 CL   UNL     1      -7.707  13.333  24.210  0.00  0.00    +0.000 Cl
ATOM     21  C   UNL     1      -5.048  12.908  23.969  0.00  0.00    +0.000 A 
ATOM     22  C   UNL     1      -3.804  13.084  23.353  0.00  0.00    +0.000 A 
ENDBRANCH   5  16
BRANCH   9  23
ATOM     23  C   UNL     1       1.298  10.463  18.886  0.00  0.00    +0.000 A 
ATOM     24  C   UNL     1       1.821   9.656  17.858  0.00  0.00    +0.000 A 
ATOM     25  C   UNL     1       2.137   8.313  18.092  0.00  0.00    +0.000 A 
ATOM     26  C   UNL     1       1.941   7.765  19.357  0.00  0.00    +0.000 A 
ATOM     27 CL   UNL     1       2.313   6.108  19.636  0.00  0.00    +0.000 Cl
ATOM     28  C   UNL     1       1.446   8.548  20.395  0.00  0.00    +0.000 A 
ATOM     29  C   UNL     1       1.135   9.891  20.164  0.00  0.00    +0.000 A 
ENDBRANCH   9  23
TORSDOF 2
ENDMDL
MODEL 8
REMARK VINA RESULT:      -6.9      1.980      2.933
REMARK  Name = 
REMARK  3 active torsions:
REMARK  status: ('A' for Active; 'I' for Inactive)
REMARK    1  A    between atoms: C_1  and  C_2
REMARK    2  A    between atoms: C_5  and  C_7
REMARK    3  A    between atoms: C_16  and  C_17
REMARK                            x       y       z     vdW  Elec       q    Type
REMARK                         _______ _______ _______ _____ _____    ______ ____
ROOT
ATOM      1  C   UNL     1      -1.259  10.894  23.097  0.00  0.00    +0.000 C 
ATOM      2  C   UNL     1      -0.701  11.336  21.792  0.00  0.00    +0.000 A 
ATOM      3  N   UNL     1       0.035  10.485  21.069  0.00  0.00    +0.000 NA
ATOM      4  N   UNL     1       0.463  11.207  19.994  0.00  0.00    +0.000 N 
ATOM      5  C   UNL     1       1.366  10.636  19.072  0.00  0.00    +0.000 C 
ATOM      6  O   UNL     1       1.919  11.383  18.268  0.00  0.00    +0.000 OA
ATOM      7  C   UNL     1      -0.051  12.484  20.031  0.00  0.00    +0.000 A 
ATOM      8  C   UNL     1      -0.823  12.601  21.162  0.00  0.00    +0.000 A 
ATOM      9  C   UNL     1      -1.519  13.847  21.584  0.00  0.00    +0.000 C 
ATOM     10  S   UNL     1      -1.366  15.262  20.447  0.00  0.00    +0.000 S 
ATOM     11  C   UNL     1      -0.090  14.772  19.355  0.00  0.00    +0.000 C 
ATOM     12  N   UNL     1       0.536  15.719  18.742  0.00  0.00    +0.000 NA
ATOM     13  N   UNL     1       0.219  13.463  19.149  0.00  0.00    +0.000 N 
ATOM     14  H   UNL     1       0.135  16.603  19.078  0.00  0.00    +0.000 HD
ATOM     15  H   UNL     1       0.931  13.323  18.431  0.00  0.00    +0.000 HD
ENDROOT
BRANCH   5  16
ATOM     16  C   UNL     1       1.672   9.182  19.056  0.00  0.00    +0.000 A 
ATOM     17  C   UNL     1       1.586   8.444  20.244  0.00  0.00    +0.000 A 
ATOM     18  C   UNL     1       1.966   7.102  20.263  0.00  0.00    +0.000 A 
ATOM     19  C   UNL     1       2.406   6.497  19.089  0.00  0.00    +0.000 A 
ATOM     20 CL   UNL     1       2.932   4.861  19.129  0.00  0.00    +0.000 Cl
ATOM     21  C   UNL     1       2.435   7.211  17.889  0.00  0.00    +0.000 A 
ATOM     22  C   UNL     1       2.059   8.559  17.868  0.00  0.00    +0.000 A 
ENDBRANCH   5  16
BRANCH   9  23
ATOM     23  C   UNL     1      -2.980  13.473  21.809  0.00  0.00    +0.000 A 
ATOM     24  C   UNL     1      -3.548  13.635  23.086  0.00  0.00    +0.000 A 
ATOM     25  C   UNL     1      -4.874  13.262  23.333  0.00  0.00    +0.000 A 
ATOM     26  C   UNL     1      -5.648  12.731  22.305  0.00  0.00    +0.000 A 
ATOM     27 CL   UNL     1      -7.272  12.256  22.617  0.00  0.00    +0.000 Cl
ATOM     28  C   UNL     1      -5.115  12.581  21.028  0.00  0.00    +0.000 A 
ATOM     29  C   UNL     1      -3.792  12.958  20.779  0.00  0.00    +0.000 A 
ENDBRANCH   9  23
TORSDOF 2
ENDMDL
MODEL 9
REMARK VINA RESULT:      -6.9      3.171      7.827
REMARK  Name = 
REMARK  3 active torsions:
REMARK  status: ('A' for Active; 'I' for Inactive)
REMARK    1  A    between atoms: C_1  and  C_2
REMARK    2  A    between atoms: C_5  and  C_7
REMARK    3  A    between atoms: C_16  and  C_17
REMARK                            x       y       z     vdW  Elec       q    Type
REMARK                         _______ _______ _______ _____ _____    ______ ____
ROOT
ATOM      1  C   UNL     1      -2.084  10.415  18.560  0.00  0.00    +0.000 C 
ATOM      2  C   UNL     1      -1.585  11.575  19.344  0.00  0.00    +0.000 A 
ATOM      3  N   UNL     1      -2.404  12.190  20.204  0.00  0.00    +0.000 NA
ATOM      4  N   UNL     1      -1.689  13.245  20.689  0.00  0.00    +0.000 N 
ATOM      5  C   UNL     1      -2.301  14.180  21.549  0.00  0.00    +0.000 C 
ATOM      6  O   UNL     1      -1.714  15.238  21.763  0.00  0.00    +0.000 OA
ATOM      7  C   UNL     1      -0.415  13.249  20.164  0.00  0.00    +0.000 A 
ATOM      8  C   UNL     1      -0.301  12.177  19.312  0.00  0.00    +0.000 A 
ATOM      9  C   UNL     1       0.914  11.859  18.513  0.00  0.00    +0.000 C 
ATOM     10  S   UNL     1       2.345  12.954  18.782  0.00  0.00    +0.000 S 
ATOM     11  C   UNL     1       1.668  14.301  19.669  0.00  0.00    +0.000 C 
ATOM     12  N   UNL     1       2.319  15.413  19.609  0.00  0.00    +0.000 NA
ATOM     13  N   UNL     1       0.525  14.183  20.396  0.00  0.00    +0.000 N 
ATOM     14  H   UNL     1       3.124  15.251  18.991  0.00  0.00    +0.000 HD
ATOM     15  H   UNL     1       0.288  15.027  20.922  0.00  0.00    +0.000 HD
ENDROOT
BRANCH   5  16
ATOM     16  C   UNL     1      -3.621  13.931  22.184  0.00  0.00    +0.000 A 
ATOM     17  C   UNL     1      -3.687  13.201  23.379  0.00  0.00    +0.000 A 
ATOM     18  C   UNL     1      -4.926  12.875  23.933  0.00  0.00    +0.000 A 
ATOM     19  C   UNL     1      -6.092  13.302  23.303  0.00  0.00    +0.000 A 
ATOM     20 CL   UNL     1      -7.616  12.845  23.953  0.00  0.00    +0.000 Cl
ATOM     21  C   UNL     1      -6.031  14.080  22.145  0.00  0.00    +0.000 A 
ATOM     22  C   UNL     1      -4.790  14.405  21.585  0.00  0.00    +0.000 A 
ENDBRANCH   5  16
BRANCH   9  23
ATOM     23  C   UNL     1       1.264  10.407  18.815  0.00  0.00    +0.000 A 
ATOM     24  C   UNL     1       1.072   9.905  20.116  0.00  0.00    +0.000 A 
ATOM     25  C   UNL     1       1.422   8.588  20.434  0.00  0.00    +0.000 A 
ATOM     26  C   UNL     1       1.959   7.757  19.455  0.00  0.00    +0.000 A 
ATOM     27 CL   UNL     1       2.406   6.144  19.854  0.00  0.00    +0.000 Cl
ATOM     28  C   UNL     1       2.139   8.224  18.156  0.00  0.00    +0.000 A 
ATOM     29  C   UNL     1       1.784   9.538  17.836  0.00  0.00    +0.000 A 
ENDBRANCH   9  23
TORSDOF 2
ENDMDL
