MODEL 1
REMARK VINA RESULT:      -7.1      0.000      0.000
REMARK  Name = 
REMARK  13 active torsions:
REMARK  status: ('A' for Active; 'I' for Inactive)
REMARK    1  A    between atoms: C_1  and  O_2
REMARK    2  A    between atoms: O_2  and  C_3
REMARK    3  A    between atoms: C_8  and  C_9
REMARK    4  A    between atoms: C_9  and  O_10
REMARK    5  A    between atoms: O_10  and  C_11
REMARK    6  A    between atoms: C_11  and  C_12
REMARK    7  A    between atoms: C_12  and  O_13
REMARK    8  A    between atoms: C_12  and  C_14
REMARK    9  A    between atoms: C_14  and  N_15
REMARK   10  A    between atoms: N_15  and  C_16
REMARK   11  A    between atoms: N_15  and  C_17
REMARK   12  A    between atoms: C_20  and  C_21
REMARK   13  A    between atoms: C_23  and  C_24
REMARK                            x       y       z     vdW  Elec       q    Type
REMARK                         _______ _______ _______ _____ _____    ______ ____
ROOT
ATOM      1  C   UNL     1       7.599   6.283  18.008  0.00  0.00    +0.000 C 
ENDROOT
BRANCH   1   2
ATOM      2  O   UNL     1       7.041   5.952  19.287  0.00  0.00    +0.000 OA
ATOM      3  H   UNL     1       7.736   5.524  19.815  0.00  0.00    +0.000 HD
ENDBRANCH   1   2
BRANCH   1   4
ATOM      4  C   UNL     1       7.483   7.804  17.756  0.00  0.00    +0.000 C 
BRANCH   4   5
ATOM      5  O   UNL     1       8.495   8.560  18.426  0.00  0.00    +0.000 OA
BRANCH   5   6
ATOM      6  C   UNL     1       8.325   9.975  18.292  0.00  0.00    +0.000 C 
BRANCH   6  12
ATOM      7  C   UNL     1       9.767  11.087  20.079  0.00  0.00    +0.000 A 
ATOM      8  C   UNL     1      10.901  11.839  20.407  0.00  0.00    +0.000 A 
ATOM      9  C   UNL     1      11.849  12.154  19.426  0.00  0.00    +0.000 A 
ATOM     10  C   UNL     1      11.682  11.732  18.123  0.00  0.00    +0.000 A 
ATOM     11  C   UNL     1      10.545  11.007  17.783  0.00  0.00    +0.000 A 
ATOM     12  C   UNL     1       9.575  10.680  18.750  0.00  0.00    +0.000 A 
BRANCH   7  14
ATOM     13  C   UNL     1       8.589  11.668  22.054  0.00  0.00    +0.000 C 
ATOM     14  O   UNL     1       8.792  10.750  20.983  0.00  0.00    +0.000 OA
ENDBRANCH   7  14
ENDBRANCH   6  12
ENDBRANCH   5   6
ENDBRANCH   4   5
ENDBRANCH   1   4
BRANCH   1  15
ATOM     15  C   UNL     1       6.909   5.507  16.869  0.00  0.00    +0.000 C 
BRANCH  15  16
ATOM     16  N   UNL     1       5.509   5.876  16.569  0.00  0.00    +0.000 N 
ATOM     17  C   UNL     1       5.200   6.608  15.337  0.00  0.00    +0.000 C 
BRANCH  16  18
ATOM     18  C   UNL     1       4.460   5.147  17.169  0.00  0.00    +0.000 A 
ATOM     19  C   UNL     1       4.411   3.736  17.046  0.00  0.00    +0.000 A 
ATOM     20  C   UNL     1       3.347   2.956  17.518  0.00  0.00    +0.000 A 
ATOM     21  C   UNL     1       2.273   3.557  18.156  0.00  0.00    +0.000 A 
ATOM     22  C   UNL     1       1.090   2.767  18.627  0.00  0.00    +0.000 C 
ATOM     23  C   UNL     1       2.307   4.938  18.335  0.00  0.00    +0.000 A 
ATOM     24  C   UNL     1       3.369   5.740  17.852  0.00  0.00    +0.000 A 
ATOM     25  C   UNL     1       3.205   7.217  18.086  0.00  0.00    +0.000 C 
ENDBRANCH  16  18
ENDBRANCH  15  16
ENDBRANCH   1  15
TORSDOF 9
ENDMDL
MODEL 2
REMARK VINA RESULT:      -6.9      1.151      1.208
REMARK  Name = 
REMARK  13 active torsions:
REMARK  status: ('A' for Active; 'I' for Inactive)
REMARK    1  A    between atoms: C_1  and  O_2
REMARK    2  A    between atoms: O_2  and  C_3
REMARK    3  A    between atoms: C_8  and  C_9
REMARK    4  A    between atoms: C_9  and  O_10
REMARK    5  A    between atoms: O_10  and  C_11
REMARK    6  A    between atoms: C_11  and  C_12
REMARK    7  A    between atoms: C_12  and  O_13
REMARK    8  A    between atoms: C_12  and  C_14
REMARK    9  A    between atoms: C_14  and  N_15
REMARK   10  A    between atoms: N_15  and  C_16
REMARK   11  A    between atoms: N_15  and  C_17
REMARK   12  A    between atoms: C_20  and  C_21
REMARK   13  A    between atoms: C_23  and  C_24
REMARK                            x       y       z     vdW  Elec       q    Type
REMARK                         _______ _______ _______ _____ _____    ______ ____
ROOT
ATOM      1  C   UNL     1       7.360   6.817  17.564  0.00  0.00    +0.000 C 
ENDROOT
BRANCH   1   2
ATOM      2  O   UNL     1       7.823   6.272  18.807  0.00  0.00    +0.000 OA
ATOM      3  H   UNL     1       8.698   6.651  18.992  0.00  0.00    +0.000 HD
ENDBRANCH   1   2
BRANCH   1   4
ATOM      4  C   UNL     1       8.104   8.135  17.251  0.00  0.00    +0.000 C 
BRANCH   4   5
ATOM      5  O   UNL     1       8.460   8.867  18.427  0.00  0.00    +0.000 OA
BRANCH   5   6
ATOM      6  C   UNL     1       8.390  10.286  18.252  0.00  0.00    +0.000 C 
BRANCH   6  12
ATOM      7  C   UNL     1       9.880  11.243  20.089  0.00  0.00    +0.000 A 
ATOM      8  C   UNL     1      11.042  11.934  20.451  0.00  0.00    +0.000 A 
ATOM      9  C   UNL     1      11.996  12.270  19.483  0.00  0.00    +0.000 A 
ATOM     10  C   UNL     1      11.808  11.930  18.159  0.00  0.00    +0.000 A 
ATOM     11  C   UNL     1      10.643  11.266  17.787  0.00  0.00    +0.000 A 
ATOM     12  C   UNL     1       9.667  10.919  18.740  0.00  0.00    +0.000 A 
BRANCH   7  14
ATOM     13  C   UNL     1       8.640  11.822  22.026  0.00  0.00    +0.000 C 
ATOM     14  O   UNL     1       8.898  10.890  20.979  0.00  0.00    +0.000 OA
ENDBRANCH   7  14
ENDBRANCH   6  12
ENDBRANCH   5   6
ENDBRANCH   4   5
ENDBRANCH   1   4
BRANCH   1  15
ATOM     15  C   UNL     1       5.838   7.064  17.585  0.00  0.00    +0.000 C 
BRANCH  15  16
ATOM     16  N   UNL     1       4.974   5.909  17.261  0.00  0.00    +0.000 N 
ATOM     17  C   UNL     1       5.304   5.055  16.116  0.00  0.00    +0.000 C 
BRANCH  16  18
ATOM     18  C   UNL     1       4.162   5.351  18.271  0.00  0.00    +0.000 A 
ATOM     19  C   UNL     1       4.454   4.065  18.792  0.00  0.00    +0.000 A 
ATOM     20  C   UNL     1       3.635   3.402  19.714  0.00  0.00    +0.000 A 
ATOM     21  C   UNL     1       2.474   4.004  20.175  0.00  0.00    +0.000 A 
ATOM     22  C   UNL     1       1.542   3.307  21.118  0.00  0.00    +0.000 C 
ATOM     23  C   UNL     1       2.177   5.286  19.718  0.00  0.00    +0.000 A 
ATOM     24  C   UNL     1       2.989   5.965  18.778  0.00  0.00    +0.000 A 
ATOM     25  C   UNL     1       2.479   7.316  18.357  0.00  0.00    +0.000 C 
ENDBRANCH  16  18
ENDBRANCH  15  16
ENDBRANCH   1  15
TORSDOF 9
ENDMDL
MODEL 3
REMARK VINA RESULT:      -6.8      2.063      2.351
REMARK  Name = 
REMARK  13 active torsions:
REMARK  status: ('A' for Active; 'I' for Inactive)
REMARK    1  A    between atoms: C_1  and  O_2
REMARK    2  A    between atoms: O_2  and  C_3
REMARK    3  A    between atoms: C_8  and  C_9
REMARK    4  A    between atoms: C_9  and  O_10
REMARK    5  A    between atoms: O_10  and  C_11
REMARK    6  A    between atoms: C_11  and  C_12
REMARK    7  A    between atoms: C_12  and  O_13
REMARK    8  A    between atoms: C_12  and  C_14
REMARK    9  A    between atoms: C_14  and  N_15
REMARK   10  A    between atoms: N_15  and  C_16
REMARK   11  A    between atoms: N_15  and  C_17
REMARK   12  A    between atoms: C_20  and  C_21
REMARK   13  A    between atoms: C_23  and  C_24
REMARK                            x       y       z     vdW  Elec       q    Type
REMARK                         _______ _______ _______ _____ _____    ______ ____
ROOT
ATOM      1  C   UNL     1       7.093   7.006  17.512  0.00  0.00    +0.000 C 
ENDROOT
BRANCH   1   2
ATOM      2  O   UNL     1       7.740   6.519  16.329  0.00  0.00    +0.000 OA
ATOM      3  H   UNL     1       8.461   5.929  16.604  0.00  0.00    +0.000 HD
ENDBRANCH   1   2
BRANCH   1   4
ATOM      4  C   UNL     1       8.101   7.784  18.389  0.00  0.00    +0.000 C 
BRANCH   4   5
ATOM      5  O   UNL     1       8.494   9.032  17.814  0.00  0.00    +0.000 OA
BRANCH   5   6
ATOM      6  C   UNL     1       8.415  10.127  18.732  0.00  0.00    +0.000 C 
BRANCH   6  12
ATOM      7  C   UNL     1       9.102  12.335  17.654  0.00  0.00    +0.000 A 
ATOM      8  C   UNL     1      10.121  13.204  17.245  0.00  0.00    +0.000 A 
ATOM      9  C   UNL     1      11.455  12.929  17.567  0.00  0.00    +0.000 A 
ATOM     10  C   UNL     1      11.790  11.802  18.289  0.00  0.00    +0.000 A 
ATOM     11  C   UNL     1      10.786  10.920  18.677  0.00  0.00    +0.000 A 
ATOM     12  C   UNL     1       9.436  11.171  18.363  0.00  0.00    +0.000 A 
BRANCH   7  14
ATOM     13  C   UNL     1       7.298  13.867  17.507  0.00  0.00    +0.000 C 
ATOM     14  O   UNL     1       7.776  12.532  17.366  0.00  0.00    +0.000 OA
ENDBRANCH   7  14
ENDBRANCH   6  12
ENDBRANCH   5   6
ENDBRANCH   4   5
ENDBRANCH   1   4
BRANCH   1  15
ATOM     15  C   UNL     1       6.463   5.859  18.328  0.00  0.00    +0.000 C 
BRANCH  15  16
ATOM     16  N   UNL     1       5.073   5.487  17.984  0.00  0.00    +0.000 N 
ATOM     17  C   UNL     1       4.700   5.302  16.578  0.00  0.00    +0.000 C 
BRANCH  16  18
ATOM     18  C   UNL     1       4.267   4.858  18.956  0.00  0.00    +0.000 A 
ATOM     19  C   UNL     1       4.505   3.508  19.315  0.00  0.00    +0.000 A 
ATOM     20  C   UNL     1       3.682   2.785  20.189  0.00  0.00    +0.000 A 
ATOM     21  C   UNL     1       2.573   3.389  20.761  0.00  0.00    +0.000 A 
ATOM     22  C   UNL     1       1.637   2.636  21.657  0.00  0.00    +0.000 C 
ATOM     23  C   UNL     1       2.332   4.728  20.466  0.00  0.00    +0.000 A 
ATOM     24  C   UNL     1       3.148   5.469  19.576  0.00  0.00    +0.000 A 
ATOM     25  C   UNL     1       2.700   6.884  19.333  0.00  0.00    +0.000 C 
ENDBRANCH  16  18
ENDBRANCH  15  16
ENDBRANCH   1  15
TORSDOF 9
ENDMDL
MODEL 4
REMARK VINA RESULT:      -6.8      3.415      6.917
REMARK  Name = 
REMARK  13 active torsions:
REMARK  status: ('A' for Active; 'I' for Inactive)
REMARK    1  A    between atoms: C_1  and  O_2
REMARK    2  A    between atoms: O_2  and  C_3
REMARK    3  A    between atoms: C_8  and  C_9
REMARK    4  A    between atoms: C_9  and  O_10
REMARK    5  A    between atoms: O_10  and  C_11
REMARK    6  A    between atoms: C_11  and  C_12
REMARK    7  A    between atoms: C_12  and  O_13
REMARK    8  A    between atoms: C_12  and  C_14
REMARK    9  A    between atoms: C_14  and  N_15
REMARK   10  A    between atoms: N_15  and  C_16
REMARK   11  A    between atoms: N_15  and  C_17
REMARK   12  A    between atoms: C_20  and  C_21
REMARK   13  A    between atoms: C_23  and  C_24
REMARK                            x       y       z     vdW  Elec       q    Type
REMARK                         _______ _______ _______ _____ _____    ______ ____
ROOT
ATOM      1  C   UNL     1       4.195   3.209  18.878  0.00  0.00    +0.000 C 
ENDROOT
BRANCH   1   2
ATOM      2  O   UNL     1       3.364   2.040  18.856  0.00  0.00    +0.000 OA
ATOM      3  H   UNL     1       2.497   2.284  19.219  0.00  0.00    +0.000 HD
ENDBRANCH   1   2
BRANCH   1   4
ATOM      4  C   UNL     1       3.718   4.180  19.981  0.00  0.00    +0.000 C 
BRANCH   4   5
ATOM      5  O   UNL     1       2.437   4.753  19.704  0.00  0.00    +0.000 OA
BRANCH   5   6
ATOM      6  C   UNL     1       2.105   5.842  20.572  0.00  0.00    +0.000 C 
BRANCH   6  12
ATOM      7  C   UNL     1       1.478   8.300  20.295  0.00  0.00    +0.000 A 
ATOM      8  C   UNL     1       1.331   9.412  19.458  0.00  0.00    +0.000 A 
ATOM      9  C   UNL     1       1.754   9.355  18.125  0.00  0.00    +0.000 A 
ATOM     10  C   UNL     1       2.320   8.206  17.612  0.00  0.00    +0.000 A 
ATOM     11  C   UNL     1       2.445   7.087  18.430  0.00  0.00    +0.000 A 
ATOM     12  C   UNL     1       2.025   7.117  19.774  0.00  0.00    +0.000 A 
BRANCH   7  14
ATOM     13  C   UNL     1      -0.236   8.765  21.866  0.00  0.00    +0.000 C 
ATOM     14  O   UNL     1       1.077   8.278  21.606  0.00  0.00    +0.000 OA
ENDBRANCH   7  14
ENDBRANCH   6  12
ENDBRANCH   5   6
ENDBRANCH   4   5
ENDBRANCH   1   4
BRANCH   1  15
ATOM     15  C   UNL     1       4.203   3.926  17.513  0.00  0.00    +0.000 C 
BRANCH  15  16
ATOM     16  N   UNL     1       5.520   4.107  16.866  0.00  0.00    +0.000 N 
ATOM     17  C   UNL     1       5.803   3.431  15.596  0.00  0.00    +0.000 C 
BRANCH  16  18
ATOM     18  C   UNL     1       6.291   5.246  17.179  0.00  0.00    +0.000 A 
ATOM     19  C   UNL     1       7.265   5.188  18.207  0.00  0.00    +0.000 A 
ATOM     20  C   UNL     1       7.991   6.303  18.646  0.00  0.00    +0.000 A 
ATOM     21  C   UNL     1       7.783   7.544  18.064  0.00  0.00    +0.000 A 
ATOM     22  C   UNL     1       8.498   8.771  18.541  0.00  0.00    +0.000 C 
ATOM     23  C   UNL     1       6.865   7.631  17.020  0.00  0.00    +0.000 A 
ATOM     24  C   UNL     1       6.116   6.516  16.572  0.00  0.00    +0.000 A 
ATOM     25  C   UNL     1       5.130   6.813  15.475  0.00  0.00    +0.000 C 
ENDBRANCH  16  18
ENDBRANCH  15  16
ENDBRANCH   1  15
TORSDOF 9
ENDMDL
MODEL 5
REMARK VINA RESULT:      -6.7      1.584      1.701
REMARK  Name = 
REMARK  13 active torsions:
REMARK  status: ('A' for Active; 'I' for Inactive)
REMARK    1  A    between atoms: C_1  and  O_2
REMARK    2  A    between atoms: O_2  and  C_3
REMARK    3  A    between atoms: C_8  and  C_9
REMARK    4  A    between atoms: C_9  and  O_10
REMARK    5  A    between atoms: O_10  and  C_11
REMARK    6  A    between atoms: C_11  and  C_12
REMARK    7  A    between atoms: C_12  and  O_13
REMARK    8  A    between atoms: C_12  and  C_14
REMARK    9  A    between atoms: C_14  and  N_15
REMARK   10  A    between atoms: N_15  and  C_16
REMARK   11  A    between atoms: N_15  and  C_17
REMARK   12  A    between atoms: C_20  and  C_21
REMARK   13  A    between atoms: C_23  and  C_24
REMARK                            x       y       z     vdW  Elec       q    Type
REMARK                         _______ _______ _______ _____ _____    ______ ____
ROOT
ATOM      1  C   UNL     1       6.454   7.195  17.527  0.00  0.00    +0.000 C 
ENDROOT
BRANCH   1   2
ATOM      2  O   UNL     1       5.850   7.269  16.229  0.00  0.00    +0.000 OA
ATOM      3  H   UNL     1       6.435   6.817  15.600  0.00  0.00    +0.000 HD
ENDBRANCH   1   2
BRANCH   1   4
ATOM      4  C   UNL     1       7.906   7.721  17.468  0.00  0.00    +0.000 C 
BRANCH   4   5
ATOM      5  O   UNL     1       8.017   9.098  17.838  0.00  0.00    +0.000 OA
BRANCH   5   6
ATOM      6  C   UNL     1       8.806   9.306  19.013  0.00  0.00    +0.000 C 
BRANCH   6  12
ATOM      7  C   UNL     1       9.581  11.470  20.122  0.00  0.00    +0.000 A 
ATOM      8  C   UNL     1      10.052  12.781  19.991  0.00  0.00    +0.000 A 
ATOM      9  C   UNL     1      10.388  13.290  18.731  0.00  0.00    +0.000 A 
ATOM     10  C   UNL     1      10.261  12.511  17.599  0.00  0.00    +0.000 A 
ATOM     11  C   UNL     1       9.769  11.216  17.717  0.00  0.00    +0.000 A 
ATOM     12  C   UNL     1       9.420  10.681  18.973  0.00  0.00    +0.000 A 
BRANCH   7  14
ATOM     13  C   UNL     1       8.373  11.696  22.150  0.00  0.00    +0.000 C 
ATOM     14  O   UNL     1       9.222  10.908  21.320  0.00  0.00    +0.000 OA
ENDBRANCH   7  14
ENDBRANCH   6  12
ENDBRANCH   5   6
ENDBRANCH   4   5
ENDBRANCH   1   4
BRANCH   1  15
ATOM     15  C   UNL     1       6.439   5.755  18.079  0.00  0.00    +0.000 C 
BRANCH  15  16
ATOM     16  N   UNL     1       5.323   4.889  17.641  0.00  0.00    +0.000 N 
ATOM     17  C   UNL     1       5.468   4.078  16.428  0.00  0.00    +0.000 C 
BRANCH  16  18
ATOM     18  C   UNL     1       4.359   4.476  18.584  0.00  0.00    +0.000 A 
ATOM     19  C   UNL     1       4.523   3.253  19.282  0.00  0.00    +0.000 A 
ATOM     20  C   UNL     1       3.559   2.725  20.150  0.00  0.00    +0.000 A 
ATOM     21  C   UNL     1       2.374   3.408  20.375  0.00  0.00    +0.000 A 
ATOM     22  C   UNL     1       1.294   2.853  21.253  0.00  0.00    +0.000 C 
ATOM     23  C   UNL     1       2.197   4.636  19.741  0.00  0.00    +0.000 A 
ATOM     24  C   UNL     1       3.156   5.177  18.852  0.00  0.00    +0.000 A 
ATOM     25  C   UNL     1       2.767   6.484  18.216  0.00  0.00    +0.000 C 
ENDBRANCH  16  18
ENDBRANCH  15  16
ENDBRANCH   1  15
TORSDOF 9
ENDMDL
MODEL 6
REMARK VINA RESULT:      -6.7      5.076      7.097
REMARK  Name = 
REMARK  13 active torsions:
REMARK  status: ('A' for Active; 'I' for Inactive)
REMARK    1  A    between atoms: C_1  and  O_2
REMARK    2  A    between atoms: O_2  and  C_3
REMARK    3  A    between atoms: C_8  and  C_9
REMARK    4  A    between atoms: C_9  and  O_10
REMARK    5  A    between atoms: O_10  and  C_11
REMARK    6  A    between atoms: C_11  and  C_12
REMARK    7  A    between atoms: C_12  and  O_13
REMARK    8  A    between atoms: C_12  and  C_14
REMARK    9  A    between atoms: C_14  and  N_15
REMARK   10  A    between atoms: N_15  and  C_16
REMARK   11  A    between atoms: N_15  and  C_17
REMARK   12  A    between atoms: C_20  and  C_21
REMARK   13  A    between atoms: C_23  and  C_24
REMARK                            x       y       z     vdW  Elec       q    Type
REMARK                         _______ _______ _______ _____ _____    ______ ____
ROOT
ATOM      1  C   UNL     1       1.907   2.452  19.352  0.00  0.00    +0.000 C 
ENDROOT
BRANCH   1   2
ATOM      2  O   UNL     1       0.831   1.701  18.772  0.00  0.00    +0.000 OA
ATOM      3  H   UNL     1       0.859   1.833  17.810  0.00  0.00    +0.000 HD
ENDBRANCH   1   2
BRANCH   1   4
ATOM      4  C   UNL     1       1.367   3.384  20.461  0.00  0.00    +0.000 C 
BRANCH   4   5
ATOM      5  O   UNL     1       1.181   4.730  20.017  0.00  0.00    +0.000 OA
BRANCH   5   6
ATOM      6  C   UNL     1       2.131   5.645  20.572  0.00  0.00    +0.000 C 
BRANCH   6  12
ATOM      7  C   UNL     1       1.550   8.103  20.210  0.00  0.00    +0.000 A 
ATOM      8  C   UNL     1       1.500   9.209  19.355  0.00  0.00    +0.000 A 
ATOM      9  C   UNL     1       2.065   9.140  18.076  0.00  0.00    +0.000 A 
ATOM     10  C   UNL     1       2.678   7.984  17.637  0.00  0.00    +0.000 A 
ATOM     11  C   UNL     1       2.709   6.872  18.471  0.00  0.00    +0.000 A 
ATOM     12  C   UNL     1       2.145   6.914  19.761  0.00  0.00    +0.000 A 
BRANCH   7  14
ATOM     13  C   UNL     1      -0.335   8.555  21.577  0.00  0.00    +0.000 C 
ATOM     14  O   UNL     1       1.009   8.093  21.471  0.00  0.00    +0.000 OA
ENDBRANCH   7  14
ENDBRANCH   6  12
ENDBRANCH   5   6
ENDBRANCH   4   5
ENDBRANCH   1   4
BRANCH   1  15
ATOM     15  C   UNL     1       2.659   3.280  18.290  0.00  0.00    +0.000 C 
BRANCH  15  16
ATOM     16  N   UNL     1       4.100   3.509  18.528  0.00  0.00    +0.000 N 
ATOM     17  C   UNL     1       4.788   2.763  19.587  0.00  0.00    +0.000 C 
BRANCH  16  18
ATOM     18  C   UNL     1       4.894   4.041  17.490  0.00  0.00    +0.000 A 
ATOM     19  C   UNL     1       4.669   3.647  16.147  0.00  0.00    +0.000 A 
ATOM     20  C   UNL     1       5.484   4.046  15.080  0.00  0.00    +0.000 A 
ATOM     21  C   UNL     1       6.570   4.878  15.304  0.00  0.00    +0.000 A 
ATOM     22  C   UNL     1       7.498   5.284  14.200  0.00  0.00    +0.000 C 
ATOM     23  C   UNL     1       6.796   5.322  16.605  0.00  0.00    +0.000 A 
ATOM     24  C   UNL     1       5.989   4.918  17.696  0.00  0.00    +0.000 A 
ATOM     25  C   UNL     1       6.420   5.450  19.036  0.00  0.00    +0.000 C 
ENDBRANCH  16  18
ENDBRANCH  15  16
ENDBRANCH   1  15
TORSDOF 9
ENDMDL
MODEL 7
REMARK VINA RESULT:      -6.6      1.558      2.091
REMARK  Name = 
REMARK  13 active torsions:
REMARK  status: ('A' for Active; 'I' for Inactive)
REMARK    1  A    between atoms: C_1  and  O_2
REMARK    2  A    between atoms: O_2  and  C_3
REMARK    3  A    between atoms: C_8  and  C_9
REMARK    4  A    between atoms: C_9  and  O_10
REMARK    5  A    between atoms: O_10  and  C_11
REMARK    6  A    between atoms: C_11  and  C_12
REMARK    7  A    between atoms: C_12  and  O_13
REMARK    8  A    between atoms: C_12  and  C_14
REMARK    9  A    between atoms: C_14  and  N_15
REMARK   10  A    between atoms: N_15  and  C_16
REMARK   11  A    between atoms: N_15  and  C_17
REMARK   12  A    between atoms: C_20  and  C_21
REMARK   13  A    between atoms: C_23  and  C_24
REMARK                            x       y       z     vdW  Elec       q    Type
REMARK                         _______ _______ _______ _____ _____    ______ ____
ROOT
ATOM      1  C   UNL     1       7.135   7.587  17.151  0.00  0.00    +0.000 C 
ENDROOT
BRANCH   1   2
ATOM      2  O   UNL     1       7.690   6.512  16.380  0.00  0.00    +0.000 OA
ATOM      3  H   UNL     1       6.996   6.179  15.788  0.00  0.00    +0.000 HD
ENDBRANCH   1   2
BRANCH   1   4
ATOM      4  C   UNL     1       8.154   8.063  18.210  0.00  0.00    +0.000 C 
BRANCH   4   5
ATOM      5  O   UNL     1       8.498   9.444  18.073  0.00  0.00    +0.000 OA
BRANCH   5   6
ATOM      6  C   UNL     1       9.165   9.978  19.221  0.00  0.00    +0.000 C 
BRANCH   6  12
ATOM      7  C   UNL     1       9.510  12.468  19.661  0.00  0.00    +0.000 A 
ATOM      8  C   UNL     1       9.994  13.706  19.223  0.00  0.00    +0.000 A 
ATOM      9  C   UNL     1      10.737  13.797  18.040  0.00  0.00    +0.000 A 
ATOM     10  C   UNL     1      11.004  12.673  17.286  0.00  0.00    +0.000 A 
ATOM     11  C   UNL     1      10.505  11.443  17.700  0.00  0.00    +0.000 A 
ATOM     12  C   UNL     1       9.752  11.324  18.885  0.00  0.00    +0.000 A 
BRANCH   7  14
ATOM     13  C   UNL     1       9.427  12.611  22.027  0.00  0.00    +0.000 C 
ATOM     14  O   UNL     1       8.767  12.303  20.802  0.00  0.00    +0.000 OA
ENDBRANCH   7  14
ENDBRANCH   6  12
ENDBRANCH   5   6
ENDBRANCH   4   5
ENDBRANCH   1   4
BRANCH   1  15
ATOM     15  C   UNL     1       5.818   7.172  17.838  0.00  0.00    +0.000 C 
BRANCH  15  16
ATOM     16  N   UNL     1       5.769   5.808  18.406  0.00  0.00    +0.000 N 
ATOM     17  C   UNL     1       6.772   5.397  19.394  0.00  0.00    +0.000 C 
BRANCH  16  18
ATOM     18  C   UNL     1       4.551   5.096  18.388  0.00  0.00    +0.000 A 
ATOM     19  C   UNL     1       3.688   5.129  19.512  0.00  0.00    +0.000 A 
ATOM     20  C   UNL     1       2.519   4.365  19.611  0.00  0.00    +0.000 A 
ATOM     21  C   UNL     1       2.144   3.528  18.571  0.00  0.00    +0.000 A 
ATOM     22  C   UNL     1       0.931   2.653  18.658  0.00  0.00    +0.000 C 
ATOM     23  C   UNL     1       2.943   3.503  17.430  0.00  0.00    +0.000 A 
ATOM     24  C   UNL     1       4.134   4.260  17.321  0.00  0.00    +0.000 A 
ATOM     25  C   UNL     1       4.898   4.061  16.040  0.00  0.00    +0.000 C 
ENDBRANCH  16  18
ENDBRANCH  15  16
ENDBRANCH   1  15
TORSDOF 9
ENDMDL
MODEL 8
REMARK VINA RESULT:      -6.6      6.010      9.887
REMARK  Name = 
REMARK  13 active torsions:
REMARK  status: ('A' for Active; 'I' for Inactive)
REMARK    1  A    between atoms: C_1  and  O_2
REMARK    2  A    between atoms: O_2  and  C_3
REMARK    3  A    between atoms: C_8  and  C_9
REMARK    4  A    between atoms: C_9  and  O_10
REMARK    5  A    between atoms: O_10  and  C_11
REMARK    6  A    between atoms: C_11  and  C_12
REMARK    7  A    between atoms: C_12  and  O_13
REMARK    8  A    between atoms: C_12  and  C_14
REMARK    9  A    between atoms: C_14  and  N_15
REMARK   10  A    between atoms: N_15  and  C_16
REMARK   11  A    between atoms: N_15  and  C_17
REMARK   12  A    between atoms: C_20  and  C_21
REMARK   13  A    between atoms: C_23  and  C_24
REMARK                            x       y       z     vdW  Elec       q    Type
REMARK                         _______ _______ _______ _____ _____    ______ ____
ROOT
ATOM      1  C   UNL     1       1.415   9.663  18.686  0.00  0.00    +0.000 C 
ENDROOT
BRANCH   1   2
ATOM      2  O   UNL     1       1.221   9.299  17.313  0.00  0.00    +0.000 OA
ATOM      3  H   UNL     1       1.696   8.466  17.154  0.00  0.00    +0.000 HD
ENDBRANCH   1   2
BRANCH   1   4
ATOM      4  C   UNL     1       1.803   8.418  19.516  0.00  0.00    +0.000 C 
BRANCH   4   5
ATOM      5  O   UNL     1       2.293   7.342  18.713  0.00  0.00    +0.000 OA
BRANCH   5   6
ATOM      6  C   UNL     1       3.030   6.369  19.460  0.00  0.00    +0.000 C 
BRANCH   6  12
ATOM      7  C   UNL     1       2.573   4.198  18.198  0.00  0.00    +0.000 A 
ATOM      8  C   UNL     1       1.841   3.011  18.082  0.00  0.00    +0.000 A 
ATOM      9  C   UNL     1       0.943   2.632  19.087  0.00  0.00    +0.000 A 
ATOM     10  C   UNL     1       0.763   3.419  20.206  0.00  0.00    +0.000 A 
ATOM     11  C   UNL     1       1.467   4.614  20.317  0.00  0.00    +0.000 A 
ATOM     12  C   UNL     1       2.374   5.020  19.318  0.00  0.00    +0.000 A 
BRANCH   7  14
ATOM     13  C   UNL     1       4.642   3.859  17.090  0.00  0.00    +0.000 C 
ATOM     14  O   UNL     1       3.460   4.639  17.250  0.00  0.00    +0.000 OA
ENDBRANCH   7  14
ENDBRANCH   6  12
ENDBRANCH   5   6
ENDBRANCH   4   5
ENDBRANCH   1   4
BRANCH   1  15
ATOM     15  C   UNL     1       0.154  10.320  19.283  0.00  0.00    +0.000 C 
BRANCH  15  16
ATOM     16  N   UNL     1       0.362  11.232  20.429  0.00  0.00    +0.000 N 
ATOM     17  C   UNL     1       1.483  12.176  20.410  0.00  0.00    +0.000 C 
BRANCH  16  18
ATOM     18  C   UNL     1      -0.727  11.536  21.274  0.00  0.00    +0.000 A 
ATOM     19  C   UNL     1      -1.631  12.570  20.927  0.00  0.00    +0.000 A 
ATOM     20  C   UNL     1      -2.668  13.002  21.765  0.00  0.00    +0.000 A 
ATOM     21  C   UNL     1      -2.860  12.404  23.000  0.00  0.00    +0.000 A 
ATOM     22  C   UNL     1      -3.922  12.871  23.949  0.00  0.00    +0.000 C 
ATOM     23  C   UNL     1      -2.018  11.353  23.357  0.00  0.00    +0.000 A 
ATOM     24  C   UNL     1      -0.958  10.914  22.527  0.00  0.00    +0.000 A 
ATOM     25  C   UNL     1      -0.118   9.807  23.102  0.00  0.00    +0.000 C 
ENDBRANCH  16  18
ENDBRANCH  15  16
ENDBRANCH   1  15
TORSDOF 9
ENDMDL
MODEL 9
REMARK VINA RESULT:      -6.6      4.710      6.845
REMARK  Name = 
REMARK  13 active torsions:
REMARK  status: ('A' for Active; 'I' for Inactive)
REMARK    1  A    between atoms: C_1  and  O_2
REMARK    2  A    between atoms: O_2  and  C_3
REMARK    3  A    between atoms: C_8  and  C_9
REMARK    4  A    between atoms: C_9  and  O_10
REMARK    5  A    between atoms: O_10  and  C_11
REMARK    6  A    between atoms: C_11  and  C_12
REMARK    7  A    between atoms: C_12  and  O_13
REMARK    8  A    between atoms: C_12  and  C_14
REMARK    9  A    between atoms: C_14  and  N_15
REMARK   10  A    between atoms: N_15  and  C_16
REMARK   11  A    between atoms: N_15  and  C_17
REMARK   12  A    between atoms: C_20  and  C_21
REMARK   13  A    between atoms: C_23  and  C_24
REMARK                            x       y       z     vdW  Elec       q    Type
REMARK                         _______ _______ _______ _____ _____    ______ ____
ROOT
ATOM      1  C   UNL     1       2.989   6.414  19.457  0.00  0.00    +0.000 C 
ENDROOT
BRANCH   1   2
ATOM      2  O   UNL     1       2.212   6.848  20.582  0.00  0.00    +0.000 OA
ATOM      3  H   UNL     1       2.823   7.205  21.247  0.00  0.00    +0.000 HD
ENDBRANCH   1   2
BRANCH   1   4
ATOM      4  C   UNL     1       2.521   7.140  18.176  0.00  0.00    +0.000 C 
BRANCH   4   5
ATOM      5  O   UNL     1       2.603   8.564  18.280  0.00  0.00    +0.000 OA
BRANCH   5   6
ATOM      6  C   UNL     1       1.393   9.229  17.904  0.00  0.00    +0.000 C 
BRANCH   6  12
ATOM      7  C   UNL     1       1.463  11.467  19.128  0.00  0.00    +0.000 A 
ATOM      8  C   UNL     1       1.109  12.235  20.244  0.00  0.00    +0.000 A 
ATOM      9  C   UNL     1       0.243  11.715  21.213  0.00  0.00    +0.000 A 
ATOM     10  C   UNL     1      -0.275  10.442  21.089  0.00  0.00    +0.000 A 
ATOM     11  C   UNL     1       0.093   9.664  19.996  0.00  0.00    +0.000 A 
ATOM     12  C   UNL     1       0.965  10.161  19.008  0.00  0.00    +0.000 A 
BRANCH   7  14
ATOM     13  C   UNL     1       2.755  13.255  18.256  0.00  0.00    +0.000 C 
ATOM     14  O   UNL     1       2.313  11.904  18.145  0.00  0.00    +0.000 OA
ENDBRANCH   7  14
ENDBRANCH   6  12
ENDBRANCH   5   6
ENDBRANCH   4   5
ENDBRANCH   1   4
BRANCH   1  15
ATOM     15  C   UNL     1       2.897   4.887  19.259  0.00  0.00    +0.000 C 
BRANCH  15  16
ATOM     16  N   UNL     1       4.170   4.171  19.031  0.00  0.00    +0.000 N 
ATOM     17  C   UNL     1       4.401   2.878  19.682  0.00  0.00    +0.000 C 
BRANCH  16  18
ATOM     18  C   UNL     1       4.923   4.455  17.872  0.00  0.00    +0.000 A 
ATOM     19  C   UNL     1       4.451   4.052  16.598  0.00  0.00    +0.000 A 
ATOM     20  C   UNL     1       5.192   4.202  15.418  0.00  0.00    +0.000 A 
ATOM     21  C   UNL     1       6.451   4.780  15.454  0.00  0.00    +0.000 A 
ATOM     22  C   UNL     1       7.298   4.908  14.225  0.00  0.00    +0.000 C 
ATOM     23  C   UNL     1       6.930   5.229  16.683  0.00  0.00    +0.000 A 
ATOM     24  C   UNL     1       6.199   5.074  17.885  0.00  0.00    +0.000 A 
ATOM     25  C   UNL     1       6.900   5.566  19.122  0.00  0.00    +0.000 C 
ENDBRANCH  16  18
ENDBRANCH  15  16
ENDBRANCH   1  15
TORSDOF 9
ENDMDL
