MODEL 1
REMARK VINA RESULT:      -6.3      0.000      0.000
REMARK  Name = 
REMARK  9 active torsions:
REMARK  status: ('A' for Active; 'I' for Inactive)
REMARK    1  A    between atoms: C_1  and  C_2
REMARK    2  A    between atoms: C_2  and  C_3
REMARK    3  A    between atoms: C_3  and  N_4
REMARK    4  A    between atoms: N_4  and  C_5
REMARK    5  A    between atoms: C_5  and  C_6
REMARK    6  A    between atoms: C_6  and  C_9
REMARK    7  A    between atoms: N_7  and  O_8
REMARK    8  A    between atoms: C_12  and  O_13
REMARK    9  A    between atoms: O_13  and  C_14
REMARK                            x       y       z     vdW  Elec       q    Type
REMARK                         _______ _______ _______ _____ _____    ______ ____
ROOT
ATOM      1  C   UNL     1       5.634   4.285  16.249  0.00  0.00    +0.000 C 
ATOM      2  N   UNL     1       6.764   4.329  16.905  0.00  0.00    +0.000 NA
ENDROOT
BRANCH   1   3
ATOM      3  C   UNL     1       4.380   4.049  17.035  0.00  0.00    +0.000 A 
ATOM      4  C   UNL     1       3.650   5.155  17.490  0.00  0.00    +0.000 A 
ATOM      5  C   UNL     1       2.477   4.970  18.227  0.00  0.00    +0.000 A 
ATOM      6  C   UNL     1       2.005   3.685  18.500  0.00  0.00    +0.000 A 
ATOM      7  C   UNL     1       2.723   2.581  18.042  0.00  0.00    +0.000 A 
ATOM      8  C   UNL     1       3.900   2.762  17.304  0.00  0.00    +0.000 A 
BRANCH   6   9
ATOM      9  O   UNL     1       0.862   3.630  19.247  0.00  0.00    +0.000 OA
ATOM     10  C   UNL     1       1.039   3.697  20.658  0.00  0.00    +0.000 C 
ENDBRANCH   6   9
ENDBRANCH   1   3
BRANCH   2  11
ATOM     11  O   UNL     1       7.859   4.595  16.077  0.00  0.00    +0.000 OA
ATOM     12  H   UNL     1       8.543   4.005  16.449  0.00  0.00    +0.000 HD
ENDBRANCH   2  11
BRANCH   1  13
ATOM     13  C   UNL     1       5.513   4.484  14.731  0.00  0.00    +0.000 C 
BRANCH  13  14
ATOM     14  N   UNL     1       6.242   3.414  14.033  0.00  0.00    +0.000 NA
ATOM     15  H   UNL     1       7.180   3.384  14.443  0.00  0.00    +0.000 HD
BRANCH  14  16
ATOM     16  C   UNL     1       6.322   3.685  12.599  0.00  0.00    +0.000 C 
BRANCH  16  18
ATOM     17  C   UNL     1       4.193   3.248  11.326  0.00  0.00    +0.000 C 
ATOM     18  C   UNL     1       5.500   2.654  11.823  0.00  0.00    +0.000 C 
ENDBRANCH  16  18
ENDBRANCH  14  16
ENDBRANCH  13  14
ENDBRANCH   1  13
TORSDOF 7
ENDMDL
MODEL 2
REMARK VINA RESULT:      -6.2      1.532      1.930
REMARK  Name = 
REMARK  9 active torsions:
REMARK  status: ('A' for Active; 'I' for Inactive)
REMARK    1  A    between atoms: C_1  and  C_2
REMARK    2  A    between atoms: C_2  and  C_3
REMARK    3  A    between atoms: C_3  and  N_4
REMARK    4  A    between atoms: N_4  and  C_5
REMARK    5  A    between atoms: C_5  and  C_6
REMARK    6  A    between atoms: C_6  and  C_9
REMARK    7  A    between atoms: N_7  and  O_8
REMARK    8  A    between atoms: C_12  and  O_13
REMARK    9  A    between atoms: O_13  and  C_14
REMARK                            x       y       z     vdW  Elec       q    Type
REMARK                         _______ _______ _______ _____ _____    ______ ____
ROOT
ATOM      1  C   UNL     1       6.273   4.813  15.386  0.00  0.00    +0.000 C 
ATOM      2  N   UNL     1       7.453   5.372  15.434  0.00  0.00    +0.000 NA
ENDROOT
BRANCH   1   3
ATOM      3  C   UNL     1       5.567   4.561  16.683  0.00  0.00    +0.000 A 
ATOM      4  C   UNL     1       4.322   3.919  16.661  0.00  0.00    +0.000 A 
ATOM      5  C   UNL     1       3.636   3.670  17.854  0.00  0.00    +0.000 A 
ATOM      6  C   UNL     1       4.190   4.037  19.081  0.00  0.00    +0.000 A 
ATOM      7  C   UNL     1       5.432   4.669  19.109  0.00  0.00    +0.000 A 
ATOM      8  C   UNL     1       6.123   4.921  17.917  0.00  0.00    +0.000 A 
BRANCH   6   9
ATOM      9  O   UNL     1       3.417   3.763  20.175  0.00  0.00    +0.000 OA
ATOM     10  C   UNL     1       2.440   4.744  20.504  0.00  0.00    +0.000 C 
ENDBRANCH   6   9
ENDBRANCH   1   3
BRANCH   2  11
ATOM     11  O   UNL     1       7.998   5.596  14.165  0.00  0.00    +0.000 OA
ATOM     12  H   UNL     1       8.947   5.704  14.368  0.00  0.00    +0.000 HD
ENDBRANCH   2  11
BRANCH   1  13
ATOM     13  C   UNL     1       5.560   4.421  14.083  0.00  0.00    +0.000 C 
BRANCH  13  14
ATOM     14  N   UNL     1       6.325   3.366  13.400  0.00  0.00    +0.000 NA
ATOM     15  H   UNL     1       7.313   3.622  13.480  0.00  0.00    +0.000 HD
BRANCH  14  16
ATOM     16  C   UNL     1       5.936   3.266  11.995  0.00  0.00    +0.000 C 
BRANCH  16  18
ATOM     17  C   UNL     1       3.852   3.689  10.645  0.00  0.00    +0.000 C 
ATOM     18  C   UNL     1       4.431   3.021  11.882  0.00  0.00    +0.000 C 
ENDBRANCH  16  18
ENDBRANCH  14  16
ENDBRANCH  13  14
ENDBRANCH   1  13
TORSDOF 7
ENDMDL
MODEL 3
REMARK VINA RESULT:      -6.2      1.531      1.707
REMARK  Name = 
REMARK  9 active torsions:
REMARK  status: ('A' for Active; 'I' for Inactive)
REMARK    1  A    between atoms: C_1  and  C_2
REMARK    2  A    between atoms: C_2  and  C_3
REMARK    3  A    between atoms: C_3  and  N_4
REMARK    4  A    between atoms: N_4  and  C_5
REMARK    5  A    between atoms: C_5  and  C_6
REMARK    6  A    between atoms: C_6  and  C_9
REMARK    7  A    between atoms: N_7  and  O_8
REMARK    8  A    between atoms: C_12  and  O_13
REMARK    9  A    between atoms: O_13  and  C_14
REMARK                            x       y       z     vdW  Elec       q    Type
REMARK                         _______ _______ _______ _____ _____    ______ ____
ROOT
ATOM      1  C   UNL     1       6.127   5.527  16.730  0.00  0.00    +0.000 C 
ATOM      2  N   UNL     1       6.436   6.704  17.207  0.00  0.00    +0.000 NA
ENDROOT
BRANCH   1   3
ATOM      3  C   UNL     1       4.776   4.972  17.063  0.00  0.00    +0.000 A 
ATOM      4  C   UNL     1       3.798   5.835  17.574  0.00  0.00    +0.000 A 
ATOM      5  C   UNL     1       2.528   5.349  17.896  0.00  0.00    +0.000 A 
ATOM      6  C   UNL     1       2.210   4.005  17.693  0.00  0.00    +0.000 A 
ATOM      7  C   UNL     1       3.176   3.143  17.178  0.00  0.00    +0.000 A 
ATOM      8  C   UNL     1       4.451   3.627  16.853  0.00  0.00    +0.000 A 
BRANCH   6   9
ATOM      9  O   UNL     1       0.945   3.642  18.067  0.00  0.00    +0.000 OA
ATOM     10  C   UNL     1       0.837   2.413  18.777  0.00  0.00    +0.000 C 
ENDBRANCH   6   9
ENDBRANCH   1   3
BRANCH   2  11
ATOM     11  O   UNL     1       7.702   7.138  16.798  0.00  0.00    +0.000 OA
ATOM     12  H   UNL     1       8.260   6.366  17.013  0.00  0.00    +0.000 HD
ENDBRANCH   2  11
BRANCH   1  13
ATOM     13  C   UNL     1       7.054   4.693  15.832  0.00  0.00    +0.000 C 
BRANCH  13  14
ATOM     14  N   UNL     1       7.467   5.495  14.669  0.00  0.00    +0.000 NA
ATOM     15  H   UNL     1       6.930   6.367  14.710  0.00  0.00    +0.000 HD
BRANCH  14  16
ATOM     16  C   UNL     1       7.194   4.785  13.422  0.00  0.00    +0.000 C 
BRANCH  16  18
ATOM     17  C   UNL     1       5.512   3.290  12.292  0.00  0.00    +0.000 C 
ATOM     18  C   UNL     1       6.047   3.793  13.622  0.00  0.00    +0.000 C 
ENDBRANCH  16  18
ENDBRANCH  14  16
ENDBRANCH  13  14
ENDBRANCH   1  13
TORSDOF 7
ENDMDL
MODEL 4
REMARK VINA RESULT:      -6.2      2.308      3.042
REMARK  Name = 
REMARK  9 active torsions:
REMARK  status: ('A' for Active; 'I' for Inactive)
REMARK    1  A    between atoms: C_1  and  C_2
REMARK    2  A    between atoms: C_2  and  C_3
REMARK    3  A    between atoms: C_3  and  N_4
REMARK    4  A    between atoms: N_4  and  C_5
REMARK    5  A    between atoms: C_5  and  C_6
REMARK    6  A    between atoms: C_6  and  C_9
REMARK    7  A    between atoms: N_7  and  O_8
REMARK    8  A    between atoms: C_12  and  O_13
REMARK    9  A    between atoms: O_13  and  C_14
REMARK                            x       y       z     vdW  Elec       q    Type
REMARK                         _______ _______ _______ _____ _____    ______ ____
ROOT
ATOM      1  C   UNL     1       6.488   5.561  18.777  0.00  0.00    +0.000 C 
ATOM      2  N   UNL     1       7.059   5.146  19.877  0.00  0.00    +0.000 NA
ENDROOT
BRANCH   1   3
ATOM      3  C   UNL     1       5.077   5.128  18.517  0.00  0.00    +0.000 A 
ATOM      4  C   UNL     1       4.794   3.758  18.447  0.00  0.00    +0.000 A 
ATOM      5  C   UNL     1       3.488   3.320  18.205  0.00  0.00    +0.000 A 
ATOM      6  C   UNL     1       2.449   4.238  18.051  0.00  0.00    +0.000 A 
ATOM      7  C   UNL     1       2.724   5.603  18.128  0.00  0.00    +0.000 A 
ATOM      8  C   UNL     1       4.031   6.046  18.371  0.00  0.00    +0.000 A 
BRANCH   6   9
ATOM      9  O   UNL     1       1.221   3.692  17.796  0.00  0.00    +0.000 OA
ATOM     10  C   UNL     1       0.822   2.634  18.661  0.00  0.00    +0.000 C 
ENDBRANCH   6   9
ENDBRANCH   1   3
BRANCH   2  11
ATOM     11  O   UNL     1       8.357   5.646  20.034  0.00  0.00    +0.000 OA
ATOM     12  H   UNL     1       8.380   5.853  20.988  0.00  0.00    +0.000 HD
ENDBRANCH   2  11
BRANCH   1  13
ATOM     13  C   UNL     1       7.165   6.483  17.751  0.00  0.00    +0.000 C 
BRANCH  13  14
ATOM     14  N   UNL     1       6.797   6.061  16.390  0.00  0.00    +0.000 NA
ATOM     15  H   UNL     1       5.776   5.981  16.375  0.00  0.00    +0.000 HD
BRANCH  14  16
ATOM     16  C   UNL     1       7.414   4.779  16.057  0.00  0.00    +0.000 C 
BRANCH  16  18
ATOM     17  C   UNL     1       5.223   4.724  14.818  0.00  0.00    +0.000 C 
ATOM     18  C   UNL     1       6.564   4.040  15.021  0.00  0.00    +0.000 C 
ENDBRANCH  16  18
ENDBRANCH  14  16
ENDBRANCH  13  14
ENDBRANCH   1  13
TORSDOF 7
ENDMDL
MODEL 5
REMARK VINA RESULT:      -6.2      3.098      4.784
REMARK  Name = 
REMARK  9 active torsions:
REMARK  status: ('A' for Active; 'I' for Inactive)
REMARK    1  A    between atoms: C_1  and  C_2
REMARK    2  A    between atoms: C_2  and  C_3
REMARK    3  A    between atoms: C_3  and  N_4
REMARK    4  A    between atoms: N_4  and  C_5
REMARK    5  A    between atoms: C_5  and  C_6
REMARK    6  A    between atoms: C_6  and  C_9
REMARK    7  A    between atoms: N_7  and  O_8
REMARK    8  A    between atoms: C_12  and  O_13
REMARK    9  A    between atoms: O_13  and  C_14
REMARK                            x       y       z     vdW  Elec       q    Type
REMARK                         _______ _______ _______ _____ _____    ______ ____
ROOT
ATOM      1  C   UNL     1       6.170   5.506  16.352  0.00  0.00    +0.000 C 
ATOM      2  N   UNL     1       6.401   5.329  15.078  0.00  0.00    +0.000 NA
ENDROOT
BRANCH   1   3
ATOM      3  C   UNL     1       4.811   5.149  16.872  0.00  0.00    +0.000 A 
ATOM      4  C   UNL     1       4.354   3.834  16.720  0.00  0.00    +0.000 A 
ATOM      5  C   UNL     1       3.090   3.468  17.192  0.00  0.00    +0.000 A 
ATOM      6  C   UNL     1       2.278   4.401  17.840  0.00  0.00    +0.000 A 
ATOM      7  C   UNL     1       2.731   5.708  18.002  0.00  0.00    +0.000 A 
ATOM      8  C   UNL     1       3.997   6.079  17.530  0.00  0.00    +0.000 A 
BRANCH   6   9
ATOM      9  O   UNL     1       1.056   3.932  18.237  0.00  0.00    +0.000 OA
ATOM     10  C   UNL     1       1.077   2.819  19.124  0.00  0.00    +0.000 C 
ENDBRANCH   6   9
ENDBRANCH   1   3
BRANCH   2  11
ATOM     11  O   UNL     1       7.711   5.656  14.715  0.00  0.00    +0.000 OA
ATOM     12  H   UNL     1       8.180   4.813  14.867  0.00  0.00    +0.000 HD
ENDBRANCH   2  11
BRANCH   1  13
ATOM     13  C   UNL     1       7.214   6.033  17.349  0.00  0.00    +0.000 C 
BRANCH  13  14
ATOM     14  N   UNL     1       7.339   7.493  17.208  0.00  0.00    +0.000 NA
ATOM     15  H   UNL     1       7.713   7.664  16.270  0.00  0.00    +0.000 HD
BRANCH  14  16
ATOM     16  C   UNL     1       8.235   8.040  18.224  0.00  0.00    +0.000 C 
BRANCH  16  18
ATOM     17  C   UNL     1       9.193  10.178  19.150  0.00  0.00    +0.000 C 
ATOM     18  C   UNL     1       8.417   9.544  18.008  0.00  0.00    +0.000 C 
ENDBRANCH  16  18
ENDBRANCH  14  16
ENDBRANCH  13  14
ENDBRANCH   1  13
TORSDOF 7
ENDMDL
MODEL 6
REMARK VINA RESULT:      -6.2      1.908      2.694
REMARK  Name = 
REMARK  9 active torsions:
REMARK  status: ('A' for Active; 'I' for Inactive)
REMARK    1  A    between atoms: C_1  and  C_2
REMARK    2  A    between atoms: C_2  and  C_3
REMARK    3  A    between atoms: C_3  and  N_4
REMARK    4  A    between atoms: N_4  and  C_5
REMARK    5  A    between atoms: C_5  and  C_6
REMARK    6  A    between atoms: C_6  and  C_9
REMARK    7  A    between atoms: N_7  and  O_8
REMARK    8  A    between atoms: C_12  and  O_13
REMARK    9  A    between atoms: O_13  and  C_14
REMARK                            x       y       z     vdW  Elec       q    Type
REMARK                         _______ _______ _______ _____ _____    ______ ____
ROOT
ATOM      1  C   UNL     1       6.553   5.012  18.764  0.00  0.00    +0.000 C 
ATOM      2  N   UNL     1       6.915   5.407  19.956  0.00  0.00    +0.000 NA
ENDROOT
BRANCH   1   3
ATOM      3  C   UNL     1       5.104   4.710  18.539  0.00  0.00    +0.000 A 
ATOM      4  C   UNL     1       4.616   3.443  18.887  0.00  0.00    +0.000 A 
ATOM      5  C   UNL     1       3.269   3.128  18.689  0.00  0.00    +0.000 A 
ATOM      6  C   UNL     1       2.388   4.075  18.163  0.00  0.00    +0.000 A 
ATOM      7  C   UNL     1       2.866   5.339  17.823  0.00  0.00    +0.000 A 
ATOM      8  C   UNL     1       4.216   5.659  18.019  0.00  0.00    +0.000 A 
BRANCH   6   9
ATOM      9  O   UNL     1       1.101   3.644  17.994  0.00  0.00    +0.000 OA
ATOM     10  C   UNL     1       0.728   2.497  18.750  0.00  0.00    +0.000 C 
ENDBRANCH   6   9
ENDBRANCH   1   3
BRANCH   2  11
ATOM     11  O   UNL     1       8.281   5.700  20.038  0.00  0.00    +0.000 OA
ATOM     12  H   UNL     1       8.686   4.861  19.743  0.00  0.00    +0.000 HD
ENDBRANCH   2  11
BRANCH   1  13
ATOM     13  C   UNL     1       7.519   4.864  17.578  0.00  0.00    +0.000 C 
BRANCH  13  14
ATOM     14  N   UNL     1       6.916   3.992  16.557  0.00  0.00    +0.000 NA
ATOM     15  H   UNL     1       7.469   3.130  16.546  0.00  0.00    +0.000 HD
BRANCH  14  16
ATOM     16  C   UNL     1       6.942   4.631  15.243  0.00  0.00    +0.000 C 
BRANCH  16  18
ATOM     17  C   UNL     1       6.277   3.856  12.941  0.00  0.00    +0.000 C 
ATOM     18  C   UNL     1       5.812   4.082  14.370  0.00  0.00    +0.000 C 
ENDBRANCH  16  18
ENDBRANCH  14  16
ENDBRANCH  13  14
ENDBRANCH   1  13
TORSDOF 7
ENDMDL
MODEL 7
REMARK VINA RESULT:      -6.1      3.033      6.229
REMARK  Name = 
REMARK  9 active torsions:
REMARK  status: ('A' for Active; 'I' for Inactive)
REMARK    1  A    between atoms: C_1  and  C_2
REMARK    2  A    between atoms: C_2  and  C_3
REMARK    3  A    between atoms: C_3  and  N_4
REMARK    4  A    between atoms: N_4  and  C_5
REMARK    5  A    between atoms: C_5  and  C_6
REMARK    6  A    between atoms: C_6  and  C_9
REMARK    7  A    between atoms: N_7  and  O_8
REMARK    8  A    between atoms: C_12  and  O_13
REMARK    9  A    between atoms: O_13  and  C_14
REMARK                            x       y       z     vdW  Elec       q    Type
REMARK                         _______ _______ _______ _____ _____    ______ ____
ROOT
ATOM      1  C   UNL     1       2.801   3.492  17.590  0.00  0.00    +0.000 C 
ATOM      2  N   UNL     1       1.617   4.035  17.493  0.00  0.00    +0.000 NA
ENDROOT
BRANCH   1   3
ATOM      3  C   UNL     1       3.989   4.343  17.259  0.00  0.00    +0.000 A 
ATOM      4  C   UNL     1       4.019   5.667  17.715  0.00  0.00    +0.000 A 
ATOM      5  C   UNL     1       5.112   6.489  17.422  0.00  0.00    +0.000 A 
ATOM      6  C   UNL     1       6.194   5.996  16.691  0.00  0.00    +0.000 A 
ATOM      7  C   UNL     1       6.172   4.677  16.241  0.00  0.00    +0.000 A 
ATOM      8  C   UNL     1       5.079   3.850  16.533  0.00  0.00    +0.000 A 
BRANCH   6   9
ATOM      9  O   UNL     1       7.192   6.898  16.448  0.00  0.00    +0.000 OA
ATOM     10  C   UNL     1       7.617   7.669  17.567  0.00  0.00    +0.000 C 
ENDBRANCH   6   9
ENDBRANCH   1   3
BRANCH   2  11
ATOM     11  O   UNL     1       0.589   3.162  17.866  0.00  0.00    +0.000 OA
ATOM     12  H   UNL     1       0.300   3.542  18.718  0.00  0.00    +0.000 HD
ENDBRANCH   2  11
BRANCH   1  13
ATOM     13  C   UNL     1       3.049   2.046  18.045  0.00  0.00    +0.000 C 
BRANCH  13  14
ATOM     14  N   UNL     1       2.516   1.858  19.405  0.00  0.00    +0.000 NA
ATOM     15  H   UNL     1       1.521   2.098  19.364  0.00  0.00    +0.000 HD
BRANCH  14  16
ATOM     16  C   UNL     1       3.209   2.718  20.361  0.00  0.00    +0.000 C 
BRANCH  16  18
ATOM     17  C   UNL     1       2.110   4.915  20.916  0.00  0.00    +0.000 C 
ATOM     18  C   UNL     1       2.195   3.436  21.253  0.00  0.00    +0.000 C 
ENDBRANCH  16  18
ENDBRANCH  14  16
ENDBRANCH  13  14
ENDBRANCH   1  13
TORSDOF 7
ENDMDL
MODEL 8
REMARK VINA RESULT:      -6.0      1.952      2.540
REMARK  Name = 
REMARK  9 active torsions:
REMARK  status: ('A' for Active; 'I' for Inactive)
REMARK    1  A    between atoms: C_1  and  C_2
REMARK    2  A    between atoms: C_2  and  C_3
REMARK    3  A    between atoms: C_3  and  N_4
REMARK    4  A    between atoms: N_4  and  C_5
REMARK    5  A    between atoms: C_5  and  C_6
REMARK    6  A    between atoms: C_6  and  C_9
REMARK    7  A    between atoms: N_7  and  O_8
REMARK    8  A    between atoms: C_12  and  O_13
REMARK    9  A    between atoms: O_13  and  C_14
REMARK                            x       y       z     vdW  Elec       q    Type
REMARK                         _______ _______ _______ _____ _____    ______ ____
ROOT
ATOM      1  C   UNL     1       6.230   5.638  18.514  0.00  0.00    +0.000 C 
ATOM      2  N   UNL     1       6.905   5.358  19.597  0.00  0.00    +0.000 NA
ENDROOT
BRANCH   1   3
ATOM      3  C   UNL     1       4.875   5.018  18.356  0.00  0.00    +0.000 A 
ATOM      4  C   UNL     1       3.757   5.855  18.256  0.00  0.00    +0.000 A 
ATOM      5  C   UNL     1       2.478   5.308  18.110  0.00  0.00    +0.000 A 
ATOM      6  C   UNL     1       2.302   3.926  18.039  0.00  0.00    +0.000 A 
ATOM      7  C   UNL     1       3.412   3.088  18.130  0.00  0.00    +0.000 A 
ATOM      8  C   UNL     1       4.695   3.632  18.277  0.00  0.00    +0.000 A 
BRANCH   6   9
ATOM      9  O   UNL     1       1.005   3.509  17.918  0.00  0.00    +0.000 OA
ATOM     10  C   UNL     1       0.605   2.466  18.801  0.00  0.00    +0.000 C 
ENDBRANCH   6   9
ENDBRANCH   1   3
BRANCH   2  11
ATOM     11  O   UNL     1       8.134   6.024  19.655  0.00  0.00    +0.000 OA
ATOM     12  H   UNL     1       8.156   6.485  18.795  0.00  0.00    +0.000 HD
ENDBRANCH   2  11
BRANCH   1  13
ATOM     13  C   UNL     1       6.730   6.581  17.408  0.00  0.00    +0.000 C 
BRANCH  13  14
ATOM     14  N   UNL     1       6.310   6.067  16.094  0.00  0.00    +0.000 NA
ATOM     15  H   UNL     1       5.320   5.818  16.182  0.00  0.00    +0.000 HD
BRANCH  14  16
ATOM     16  C   UNL     1       7.099   4.898  15.714  0.00  0.00    +0.000 C 
BRANCH  16  18
ATOM     17  C   UNL     1       6.258   3.951  13.537  0.00  0.00    +0.000 C 
ATOM     18  C   UNL     1       6.201   3.851  15.052  0.00  0.00    +0.000 C 
ENDBRANCH  16  18
ENDBRANCH  14  16
ENDBRANCH  13  14
ENDBRANCH   1  13
TORSDOF 7
ENDMDL
MODEL 9
REMARK VINA RESULT:      -6.0      2.835      5.722
REMARK  Name = 
REMARK  9 active torsions:
REMARK  status: ('A' for Active; 'I' for Inactive)
REMARK    1  A    between atoms: C_1  and  C_2
REMARK    2  A    between atoms: C_2  and  C_3
REMARK    3  A    between atoms: C_3  and  N_4
REMARK    4  A    between atoms: N_4  and  C_5
REMARK    5  A    between atoms: C_5  and  C_6
REMARK    6  A    between atoms: C_6  and  C_9
REMARK    7  A    between atoms: N_7  and  O_8
REMARK    8  A    between atoms: C_12  and  O_13
REMARK    9  A    between atoms: O_13  and  C_14
REMARK                            x       y       z     vdW  Elec       q    Type
REMARK                         _______ _______ _______ _____ _____    ______ ____
ROOT
ATOM      1  C   UNL     1       6.388   4.762  18.176  0.00  0.00    +0.000 C 
ATOM      2  N   UNL     1       7.479   5.199  18.747  0.00  0.00    +0.000 NA
ENDROOT
BRANCH   1   3
ATOM      3  C   UNL     1       6.408   4.569  16.691  0.00  0.00    +0.000 A 
ATOM      4  C   UNL     1       5.350   3.878  16.086  0.00  0.00    +0.000 A 
ATOM      5  C   UNL     1       5.338   3.679  14.702  0.00  0.00    +0.000 A 
ATOM      6  C   UNL     1       6.366   4.184  13.903  0.00  0.00    +0.000 A 
ATOM      7  C   UNL     1       7.416   4.880  14.499  0.00  0.00    +0.000 A 
ATOM      8  C   UNL     1       7.432   5.082  15.886  0.00  0.00    +0.000 A 
BRANCH   6   9
ATOM      9  O   UNL     1       6.257   3.907  12.569  0.00  0.00    +0.000 OA
ATOM     10  C   UNL     1       5.057   3.254  12.168  0.00  0.00    +0.000 C 
ENDBRANCH   6   9
ENDBRANCH   1   3
BRANCH   2  11
ATOM     11  O   UNL     1       7.359   5.301  20.137  0.00  0.00    +0.000 OA
ATOM     12  H   UNL     1       6.621   4.689  20.322  0.00  0.00    +0.000 HD
ENDBRANCH   2  11
BRANCH   1  13
ATOM     13  C   UNL     1       5.100   4.413  18.937  0.00  0.00    +0.000 C 
BRANCH  13  14
ATOM     14  N   UNL     1       5.232   3.078  19.544  0.00  0.00    +0.000 NA
ATOM     15  H   UNL     1       5.809   2.523  18.905  0.00  0.00    +0.000 HD
BRANCH  14  16
ATOM     16  C   UNL     1       3.923   2.454  19.721  0.00  0.00    +0.000 C 
BRANCH  16  18
ATOM     17  C   UNL     1       2.377   2.254  17.742  0.00  0.00    +0.000 C 
ATOM     18  C   UNL     1       3.556   1.640  18.478  0.00  0.00    +0.000 C 
ENDBRANCH  16  18
ENDBRANCH  14  16
ENDBRANCH  13  14
ENDBRANCH   1  13
TORSDOF 7
ENDMDL
