MODEL 1
REMARK VINA RESULT:      -8.3      0.000      0.000
REMARK  Name = 
REMARK  9 active torsions:
REMARK  status: ('A' for Active; 'I' for Inactive)
REMARK    1  A    between atoms: C_1  and  S_2
REMARK    2  A    between atoms: S_2  and  N_5
REMARK    3  A    between atoms: N_5  and  C_6
REMARK    4  A    between atoms: N_5  and  C_14
REMARK    5  A    between atoms: C_6  and  C_7
REMARK    6  A    between atoms: C_7  and  N_8
REMARK    7  A    between atoms: C_17  and  C_19
REMARK    8  A    between atoms: C_19  and  O_20
REMARK    9  A    between atoms: O_20  and  C_21
REMARK                            x       y       z     vdW  Elec       q    Type
REMARK                         _______ _______ _______ _____ _____    ______ ____
ROOT
ATOM      1  C   UNL     1       2.448   5.839  19.318  0.00  0.00    +0.000 C 
ATOM      2  C   UNL     1       1.998   7.068  20.174  0.00  0.00    +0.000 C 
ATOM      3  N   UNL     1       2.214   7.854  18.982  0.00  0.00    +0.000 N 
ATOM      4  C   UNL     1       1.698   8.999  18.451  0.00  0.00    +0.000 C 
ATOM      5  O   UNL     1       1.980   9.369  17.310  0.00  0.00    +0.000 OA
ATOM      6  C   UNL     1       3.088   6.888  18.369  0.00  0.00    +0.000 C 
ENDROOT
BRANCH   1   7
ATOM      7  N   UNL     1       3.309   4.753  20.006  0.00  0.00    +0.000 NA
BRANCH   7   9
ATOM      8  C   UNL     1       0.852   3.526  19.846  0.00  0.00    +0.000 C 
ATOM      9  S   UNL     1       2.457   3.330  20.578  0.00  0.00    +0.000 S 
ATOM     10  O   UNL     1       2.333   3.406  22.018  0.00  0.00    +0.000 OA
ATOM     11  O   UNL     1       3.082   2.186  19.945  0.00  0.00    +0.000 OA
ENDBRANCH   7   9
BRANCH   7  12
ATOM     12  C   UNL     1       4.547   4.360  19.200  0.00  0.00    +0.000 C 
BRANCH  12  13
ATOM     13  C   UNL     1       5.746   5.314  19.391  0.00  0.00    +0.000 C 
BRANCH  13  14
ATOM     14  N   UNL     1       7.051   4.965  18.800  0.00  0.00    +0.000 NA
ATOM     15  C   UNL     1       7.946   6.159  18.820  0.00  0.00    +0.000 C 
ATOM     16  C   UNL     1       7.604   7.230  17.762  0.00  0.00    +0.000 C 
ATOM     17  O   UNL     1       7.623   6.670  16.447  0.00  0.00    +0.000 OA
ATOM     18  C   UNL     1       6.699   5.581  16.344  0.00  0.00    +0.000 C 
ATOM     19  C   UNL     1       6.975   4.490  17.398  0.00  0.00    +0.000 C 
ENDBRANCH  13  14
ENDBRANCH  12  13
ENDBRANCH   7  12
ENDBRANCH   1   7
BRANCH   4  20
ATOM     20  C   UNL     1       0.764   9.789  19.344  0.00  0.00    +0.000 C 
BRANCH  20  21
ATOM     21  O   UNL     1       0.235  10.856  18.566  0.00  0.00    +0.000 OA
BRANCH  21  22
ATOM     22  C   UNL     1      -1.090  10.778  18.244  0.00  0.00    +0.000 A 
ATOM     23  C   UNL     1      -1.658   9.881  17.336  0.00  0.00    +0.000 A 
ATOM     24  C   UNL     1      -3.039   9.887  17.122  0.00  0.00    +0.000 A 
ATOM     25  C   UNL     1      -3.838  10.792  17.807  0.00  0.00    +0.000 A 
ATOM     26  F   UNL     1      -5.161  10.791  17.602  0.00  0.00    +0.000 F 
ATOM     27  C   UNL     1      -3.285  11.699  18.703  0.00  0.00    +0.000 A 
ATOM     28  C   UNL     1      -1.907  11.690  18.919  0.00  0.00    +0.000 A 
ENDBRANCH  21  22
ENDBRANCH  20  21
ENDBRANCH   4  20
TORSDOF 8
ENDMDL
MODEL 2
REMARK VINA RESULT:      -7.9      2.218      2.758
REMARK  Name = 
REMARK  9 active torsions:
REMARK  status: ('A' for Active; 'I' for Inactive)
REMARK    1  A    between atoms: C_1  and  S_2
REMARK    2  A    between atoms: S_2  and  N_5
REMARK    3  A    between atoms: N_5  and  C_6
REMARK    4  A    between atoms: N_5  and  C_14
REMARK    5  A    between atoms: C_6  and  C_7
REMARK    6  A    between atoms: C_7  and  N_8
REMARK    7  A    between atoms: C_17  and  C_19
REMARK    8  A    between atoms: C_19  and  O_20
REMARK    9  A    between atoms: O_20  and  C_21
REMARK                            x       y       z     vdW  Elec       q    Type
REMARK                         _______ _______ _______ _____ _____    ______ ____
ROOT
ATOM      1  C   UNL     1       2.337   5.523  18.820  0.00  0.00    +0.000 C 
ATOM      2  C   UNL     1       2.456   6.722  19.817  0.00  0.00    +0.000 C 
ATOM      3  N   UNL     1       2.400   7.571  18.650  0.00  0.00    +0.000 N 
ATOM      4  C   UNL     1       1.967   8.834  18.371  0.00  0.00    +0.000 C 
ATOM      5  O   UNL     1       1.908   9.259  17.216  0.00  0.00    +0.000 OA
ATOM      6  C   UNL     1       2.805   6.533  17.738  0.00  0.00    +0.000 C 
ENDROOT
BRANCH   1   7
ATOM      7  N   UNL     1       3.152   4.244  19.125  0.00  0.00    +0.000 NA
BRANCH   7   9
ATOM      8  C   UNL     1       3.494   1.636  18.318  0.00  0.00    +0.000 C 
ATOM      9  S   UNL     1       2.282   2.724  19.024  0.00  0.00    +0.000 S 
ATOM     10  O   UNL     1       1.182   2.875  18.095  0.00  0.00    +0.000 OA
ATOM     11  O   UNL     1       2.050   2.284  20.385  0.00  0.00    +0.000 OA
ENDBRANCH   7   9
BRANCH   7  12
ATOM     12  C   UNL     1       4.472   4.168  18.357  0.00  0.00    +0.000 C 
BRANCH  12  13
ATOM     13  C   UNL     1       5.658   4.835  19.086  0.00  0.00    +0.000 C 
BRANCH  13  14
ATOM     14  N   UNL     1       7.025   4.647  18.567  0.00  0.00    +0.000 NA
ATOM     15  C   UNL     1       7.853   5.847  18.890  0.00  0.00    +0.000 C 
ATOM     16  C   UNL     1       7.550   7.084  18.018  0.00  0.00    +0.000 C 
ATOM     17  O   UNL     1       7.711   6.781  16.630  0.00  0.00    +0.000 OA
ATOM     18  C   UNL     1       6.855   5.700  16.243  0.00  0.00    +0.000 C 
ATOM     19  C   UNL     1       7.095   4.441  17.101  0.00  0.00    +0.000 C 
ENDBRANCH  13  14
ENDBRANCH  12  13
ENDBRANCH   7  12
ENDBRANCH   1   7
BRANCH   4  20
ATOM     20  C   UNL     1       1.569   9.682  19.561  0.00  0.00    +0.000 C 
BRANCH  20  21
ATOM     21  O   UNL     1       0.257   9.287  19.943  0.00  0.00    +0.000 OA
BRANCH  21  22
ATOM     22  C   UNL     1      -0.337  10.018  20.933  0.00  0.00    +0.000 A 
ATOM     23  C   UNL     1      -0.392   9.669  22.284  0.00  0.00    +0.000 A 
ATOM     24  C   UNL     1      -1.006  10.527  23.201  0.00  0.00    +0.000 A 
ATOM     25  C   UNL     1      -1.565  11.719  22.760  0.00  0.00    +0.000 A 
ATOM     26  F   UNL     1      -2.148  12.540  23.643  0.00  0.00    +0.000 F 
ATOM     27  C   UNL     1      -1.529  12.073  21.418  0.00  0.00    +0.000 A 
ATOM     28  C   UNL     1      -0.913  11.218  20.504  0.00  0.00    +0.000 A 
ENDBRANCH  21  22
ENDBRANCH  20  21
ENDBRANCH   4  20
TORSDOF 8
ENDMDL
MODEL 3
REMARK VINA RESULT:      -7.8      0.859      1.316
REMARK  Name = 
REMARK  9 active torsions:
REMARK  status: ('A' for Active; 'I' for Inactive)
REMARK    1  A    between atoms: C_1  and  S_2
REMARK    2  A    between atoms: S_2  and  N_5
REMARK    3  A    between atoms: N_5  and  C_6
REMARK    4  A    between atoms: N_5  and  C_14
REMARK    5  A    between atoms: C_6  and  C_7
REMARK    6  A    between atoms: C_7  and  N_8
REMARK    7  A    between atoms: C_17  and  C_19
REMARK    8  A    between atoms: C_19  and  O_20
REMARK    9  A    between atoms: O_20  and  C_21
REMARK                            x       y       z     vdW  Elec       q    Type
REMARK                         _______ _______ _______ _____ _____    ______ ____
ROOT
ATOM      1  C   UNL     1       2.273   5.992  19.353  0.00  0.00    +0.000 C 
ATOM      2  C   UNL     1       2.126   7.322  20.162  0.00  0.00    +0.000 C 
ATOM      3  N   UNL     1       2.263   7.996  18.892  0.00  0.00    +0.000 N 
ATOM      4  C   UNL     1       1.830   9.168  18.348  0.00  0.00    +0.000 C 
ATOM      5  O   UNL     1       1.983   9.425  17.152  0.00  0.00    +0.000 OA
ATOM      6  C   UNL     1       2.898   6.878  18.242  0.00  0.00    +0.000 C 
ENDROOT
BRANCH   1   7
ATOM      7  N   UNL     1       3.076   4.837  19.997  0.00  0.00    +0.000 NA
BRANCH   7   9
ATOM      8  C   UNL     1       2.628   2.175  19.466  0.00  0.00    +0.000 C 
ATOM      9  S   UNL     1       2.142   3.469  20.579  0.00  0.00    +0.000 S 
ATOM     10  O   UNL     1       0.735   3.751  20.392  0.00  0.00    +0.000 OA
ATOM     11  O   UNL     1       2.665   3.131  21.887  0.00  0.00    +0.000 OA
ENDBRANCH   7   9
BRANCH   7  12
ATOM     12  C   UNL     1       4.256   4.368  19.145  0.00  0.00    +0.000 C 
BRANCH  12  13
ATOM     13  C   UNL     1       5.556   5.166  19.385  0.00  0.00    +0.000 C 
BRANCH  13  14
ATOM     14  N   UNL     1       6.808   4.718  18.749  0.00  0.00    +0.000 NA
ATOM     15  C   UNL     1       7.848   5.780  18.888  0.00  0.00    +0.000 C 
ATOM     16  C   UNL     1       7.650   6.992  17.954  0.00  0.00    +0.000 C 
ATOM     17  O   UNL     1       7.604   6.579  16.586  0.00  0.00    +0.000 OA
ATOM     18  C   UNL     1       6.549   5.634  16.376  0.00  0.00    +0.000 C 
ATOM     19  C   UNL     1       6.679   4.410  17.305  0.00  0.00    +0.000 C 
ENDBRANCH  13  14
ENDBRANCH  12  13
ENDBRANCH   7  12
ENDBRANCH   1   7
BRANCH   4  20
ATOM     20  C   UNL     1       1.155  10.137  19.297  0.00  0.00    +0.000 C 
BRANCH  20  21
ATOM     21  O   UNL     1      -0.150   9.635  19.559  0.00  0.00    +0.000 OA
BRANCH  21  22
ATOM     22  C   UNL     1      -1.186  10.273  18.938  0.00  0.00    +0.000 A 
ATOM     23  C   UNL     1      -1.877  11.382  19.433  0.00  0.00    +0.000 A 
ATOM     24  C   UNL     1      -2.901  11.959  18.676  0.00  0.00    +0.000 A 
ATOM     25  C   UNL     1      -3.230  11.422  17.440  0.00  0.00    +0.000 A 
ATOM     26  F   UNL     1      -4.208  11.982  16.716  0.00  0.00    +0.000 F 
ATOM     27  C   UNL     1      -2.559  10.313  16.940  0.00  0.00    +0.000 A 
ATOM     28  C   UNL     1      -1.535   9.738  17.694  0.00  0.00    +0.000 A 
ENDBRANCH  21  22
ENDBRANCH  20  21
ENDBRANCH   4  20
TORSDOF 8
ENDMDL
MODEL 4
REMARK VINA RESULT:      -7.7      2.176      2.601
REMARK  Name = 
REMARK  9 active torsions:
REMARK  status: ('A' for Active; 'I' for Inactive)
REMARK    1  A    between atoms: C_1  and  S_2
REMARK    2  A    between atoms: S_2  and  N_5
REMARK    3  A    between atoms: N_5  and  C_6
REMARK    4  A    between atoms: N_5  and  C_14
REMARK    5  A    between atoms: C_6  and  C_7
REMARK    6  A    between atoms: C_7  and  N_8
REMARK    7  A    between atoms: C_17  and  C_19
REMARK    8  A    between atoms: C_19  and  O_20
REMARK    9  A    between atoms: O_20  and  C_21
REMARK                            x       y       z     vdW  Elec       q    Type
REMARK                         _______ _______ _______ _____ _____    ______ ____
ROOT
ATOM      1  C   UNL     1       2.503   5.414  19.084  0.00  0.00    +0.000 C 
ATOM      2  C   UNL     1       2.612   6.722  19.935  0.00  0.00    +0.000 C 
ATOM      3  N   UNL     1       2.517   7.430  18.680  0.00  0.00    +0.000 N 
ATOM      4  C   UNL     1       2.051   8.643  18.267  0.00  0.00    +0.000 C 
ATOM      5  O   UNL     1       1.961   8.932  17.073  0.00  0.00    +0.000 OA
ATOM      6  C   UNL     1       2.930   6.303  17.885  0.00  0.00    +0.000 C 
ENDROOT
BRANCH   1   7
ATOM      7  N   UNL     1       3.353   4.195  19.517  0.00  0.00    +0.000 NA
BRANCH   7   9
ATOM      8  C   UNL     1       1.047   2.958  18.666  0.00  0.00    +0.000 C 
ATOM      9  S   UNL     1       2.512   2.659  19.622  0.00  0.00    +0.000 S 
ATOM     10  O   UNL     1       2.138   2.424  21.001  0.00  0.00    +0.000 OA
ATOM     11  O   UNL     1       3.311   1.694  18.895  0.00  0.00    +0.000 OA
ENDBRANCH   7   9
BRANCH   7  12
ATOM     12  C   UNL     1       4.654   4.051  18.726  0.00  0.00    +0.000 C 
BRANCH  12  13
ATOM     13  C   UNL     1       5.768   5.021  19.175  0.00  0.00    +0.000 C 
BRANCH  13  14
ATOM     14  N   UNL     1       7.136   4.843  18.655  0.00  0.00    +0.000 NA
ATOM     15  C   UNL     1       7.898   6.118  18.803  0.00  0.00    +0.000 C 
ATOM     16  C   UNL     1       7.512   7.213  17.786  0.00  0.00    +0.000 C 
ATOM     17  O   UNL     1       7.670   6.741  16.445  0.00  0.00    +0.000 OA
ATOM     18  C   UNL     1       6.873   5.574  16.220  0.00  0.00    +0.000 C 
ATOM     19  C   UNL     1       7.196   4.452  17.227  0.00  0.00    +0.000 C 
ENDBRANCH  13  14
ENDBRANCH  12  13
ENDBRANCH   7  12
ENDBRANCH   1   7
BRANCH   4  20
ATOM     20  C   UNL     1       1.654   9.614  19.360  0.00  0.00    +0.000 C 
BRANCH  20  21
ATOM     21  O   UNL     1       0.513   9.072  20.016  0.00  0.00    +0.000 OA
BRANCH  21  22
ATOM     22  C   UNL     1      -0.149   9.902  20.875  0.00  0.00    +0.000 A 
ATOM     23  C   UNL     1      -0.761  11.110  20.535  0.00  0.00    +0.000 A 
ATOM     24  C   UNL     1      -1.435  11.849  21.512  0.00  0.00    +0.000 A 
ATOM     25  C   UNL     1      -1.484  11.380  22.817  0.00  0.00    +0.000 A 
ATOM     26  F   UNL     1      -2.136  12.090  23.748  0.00  0.00    +0.000 F 
ATOM     27  C   UNL     1      -0.869  10.187  23.173  0.00  0.00    +0.000 A 
ATOM     28  C   UNL     1      -0.200   9.448  22.197  0.00  0.00    +0.000 A 
ENDBRANCH  21  22
ENDBRANCH  20  21
ENDBRANCH   4  20
TORSDOF 8
ENDMDL
MODEL 5
REMARK VINA RESULT:      -7.7      2.852      3.428
REMARK  Name = 
REMARK  9 active torsions:
REMARK  status: ('A' for Active; 'I' for Inactive)
REMARK    1  A    between atoms: C_1  and  S_2
REMARK    2  A    between atoms: S_2  and  N_5
REMARK    3  A    between atoms: N_5  and  C_6
REMARK    4  A    between atoms: N_5  and  C_14
REMARK    5  A    between atoms: C_6  and  C_7
REMARK    6  A    between atoms: C_7  and  N_8
REMARK    7  A    between atoms: C_17  and  C_19
REMARK    8  A    between atoms: C_19  and  O_20
REMARK    9  A    between atoms: O_20  and  C_21
REMARK                            x       y       z     vdW  Elec       q    Type
REMARK                         _______ _______ _______ _____ _____    ______ ____
ROOT
ATOM      1  C   UNL     1       2.506   5.621  19.011  0.00  0.00    +0.000 C 
ATOM      2  C   UNL     1       2.255   6.839  19.959  0.00  0.00    +0.000 C 
ATOM      3  N   UNL     1       2.356   7.658  18.774  0.00  0.00    +0.000 N 
ATOM      4  C   UNL     1       1.846   8.851  18.355  0.00  0.00    +0.000 C 
ATOM      5  O   UNL     1       1.992   9.249  17.198  0.00  0.00    +0.000 OA
ATOM      6  C   UNL     1       3.076   6.667  18.015  0.00  0.00    +0.000 C 
ENDROOT
BRANCH   1   7
ATOM      7  N   UNL     1       3.384   4.460  19.538  0.00  0.00    +0.000 NA
BRANCH   7   9
ATOM      8  C   UNL     1       2.367   2.832  21.508  0.00  0.00    +0.000 C 
ATOM      9  S   UNL     1       2.583   2.913  19.749  0.00  0.00    +0.000 S 
ATOM     10  O   UNL     1       3.485   1.859  19.333  0.00  0.00    +0.000 OA
ATOM     11  O   UNL     1       1.266   3.040  19.158  0.00  0.00    +0.000 OA
ENDBRANCH   7   9
BRANCH   7  12
ATOM     12  C   UNL     1       4.696   4.294  18.770  0.00  0.00    +0.000 C 
BRANCH  12  13
ATOM     13  C   UNL     1       5.839   5.195  19.287  0.00  0.00    +0.000 C 
BRANCH  13  14
ATOM     14  N   UNL     1       7.202   5.008  18.758  0.00  0.00    +0.000 NA
ATOM     15  C   UNL     1       7.935   6.309  18.792  0.00  0.00    +0.000 C 
ATOM     16  C   UNL     1       7.505   7.311  17.699  0.00  0.00    +0.000 C 
ATOM     17  O   UNL     1       7.654   6.739  16.397  0.00  0.00    +0.000 OA
ATOM     18  C   UNL     1       6.882   5.539  16.278  0.00  0.00    +0.000 C 
ATOM     19  C   UNL     1       7.250   4.508  17.364  0.00  0.00    +0.000 C 
ENDBRANCH  13  14
ENDBRANCH  12  13
ENDBRANCH   7  12
ENDBRANCH   1   7
BRANCH   4  20
ATOM     20  C   UNL     1       1.094   9.657  19.394  0.00  0.00    +0.000 C 
BRANCH  20  21
ATOM     21  O   UNL     1       0.721  10.889  18.787  0.00  0.00    +0.000 OA
BRANCH  21  22
ATOM     22  C   UNL     1       1.502  11.972  19.072  0.00  0.00    +0.000 A 
ATOM     23  C   UNL     1       2.343  12.632  18.173  0.00  0.00    +0.000 A 
ATOM     24  C   UNL     1       3.067  13.752  18.590  0.00  0.00    +0.000 A 
ATOM     25  C   UNL     1       2.952  14.198  19.899  0.00  0.00    +0.000 A 
ATOM     26  F   UNL     1       3.645  15.275  20.293  0.00  0.00    +0.000 F 
ATOM     27  C   UNL     1       2.130  13.544  20.808  0.00  0.00    +0.000 A 
ATOM     28  C   UNL     1       1.404  12.428  20.391  0.00  0.00    +0.000 A 
ENDBRANCH  21  22
ENDBRANCH  20  21
ENDBRANCH   4  20
TORSDOF 8
ENDMDL
MODEL 6
REMARK VINA RESULT:      -7.6      2.188      4.452
REMARK  Name = 
REMARK  9 active torsions:
REMARK  status: ('A' for Active; 'I' for Inactive)
REMARK    1  A    between atoms: C_1  and  S_2
REMARK    2  A    between atoms: S_2  and  N_5
REMARK    3  A    between atoms: N_5  and  C_6
REMARK    4  A    between atoms: N_5  and  C_14
REMARK    5  A    between atoms: C_6  and  C_7
REMARK    6  A    between atoms: C_7  and  N_8
REMARK    7  A    between atoms: C_17  and  C_19
REMARK    8  A    between atoms: C_19  and  O_20
REMARK    9  A    between atoms: O_20  and  C_21
REMARK                            x       y       z     vdW  Elec       q    Type
REMARK                         _______ _______ _______ _____ _____    ______ ____
ROOT
ATOM      1  C   UNL     1       3.548   7.093  18.141  0.00  0.00    +0.000 C 
ATOM      2  C   UNL     1       2.522   8.137  17.590  0.00  0.00    +0.000 C 
ATOM      3  N   UNL     1       1.963   8.145  18.922  0.00  0.00    +0.000 N 
ATOM      4  C   UNL     1       1.301   9.043  19.706  0.00  0.00    +0.000 C 
ATOM      5  O   UNL     1       1.065   8.817  20.894  0.00  0.00    +0.000 OA
ATOM      6  C   UNL     1       2.522   6.869  19.285  0.00  0.00    +0.000 C 
ENDROOT
BRANCH   1   7
ATOM      7  N   UNL     1       3.972   5.933  17.210  0.00  0.00    +0.000 NA
BRANCH   7   9
ATOM      8  C   UNL     1       5.899   4.451  15.921  0.00  0.00    +0.000 C 
ATOM      9  S   UNL     1       5.509   6.119  16.384  0.00  0.00    +0.000 S 
ATOM     10  O   UNL     1       6.496   6.590  17.333  0.00  0.00    +0.000 OA
ATOM     11  O   UNL     1       5.242   6.854  15.164  0.00  0.00    +0.000 OA
ENDBRANCH   7   9
BRANCH   7  12
ATOM     12  C   UNL     1       3.872   4.557  17.870  0.00  0.00    +0.000 C 
BRANCH  12  13
ATOM     13  C   UNL     1       2.573   3.795  17.531  0.00  0.00    +0.000 C 
BRANCH  13  14
ATOM     14  N   UNL     1       2.346   2.458  18.108  0.00  0.00    +0.000 NA
ATOM     15  C   UNL     1       0.973   2.390  18.690  0.00  0.00    +0.000 C 
ATOM     16  C   UNL     1       0.810   3.142  20.028  0.00  0.00    +0.000 C 
ATOM     17  O   UNL     1       1.740   2.659  21.001  0.00  0.00    +0.000 OA
ATOM     18  C   UNL     1       3.085   2.800  20.532  0.00  0.00    +0.000 C 
ATOM     19  C   UNL     1       3.302   2.090  19.181  0.00  0.00    +0.000 C 
ENDBRANCH  13  14
ENDBRANCH  12  13
ENDBRANCH   7  12
ENDBRANCH   1   7
BRANCH   4  20
ATOM     20  C   UNL     1       0.870  10.329  19.032  0.00  0.00    +0.000 C 
BRANCH  20  21
ATOM     21  O   UNL     1      -0.394  10.691  19.576  0.00  0.00    +0.000 OA
BRANCH  21  22
ATOM     22  C   UNL     1      -1.436  10.772  18.697  0.00  0.00    +0.000 A 
ATOM     23  C   UNL     1      -2.558  11.592  18.835  0.00  0.00    +0.000 A 
ATOM     24  C   UNL     1      -3.541  11.601  17.841  0.00  0.00    +0.000 A 
ATOM     25  C   UNL     1      -3.399  10.787  16.725  0.00  0.00    +0.000 A 
ATOM     26  F   UNL     1      -4.341  10.803  15.773  0.00  0.00    +0.000 F 
ATOM     27  C   UNL     1      -2.295   9.957  16.581  0.00  0.00    +0.000 A 
ATOM     28  C   UNL     1      -1.312   9.951  17.571  0.00  0.00    +0.000 A 
ENDBRANCH  21  22
ENDBRANCH  20  21
ENDBRANCH   4  20
TORSDOF 8
ENDMDL
MODEL 7
REMARK VINA RESULT:      -7.6      2.805      3.483
REMARK  Name = 
REMARK  9 active torsions:
REMARK  status: ('A' for Active; 'I' for Inactive)
REMARK    1  A    between atoms: C_1  and  S_2
REMARK    2  A    between atoms: S_2  and  N_5
REMARK    3  A    between atoms: N_5  and  C_6
REMARK    4  A    between atoms: N_5  and  C_14
REMARK    5  A    between atoms: C_6  and  C_7
REMARK    6  A    between atoms: C_7  and  N_8
REMARK    7  A    between atoms: C_17  and  C_19
REMARK    8  A    between atoms: C_19  and  O_20
REMARK    9  A    between atoms: O_20  and  C_21
REMARK                            x       y       z     vdW  Elec       q    Type
REMARK                         _______ _______ _______ _____ _____    ______ ____
ROOT
ATOM      1  C   UNL     1       2.534   5.624  19.103  0.00  0.00    +0.000 C 
ATOM      2  C   UNL     1       2.247   6.851  20.029  0.00  0.00    +0.000 C 
ATOM      3  N   UNL     1       2.346   7.654  18.832  0.00  0.00    +0.000 N 
ATOM      4  C   UNL     1       1.817   8.829  18.389  0.00  0.00    +0.000 C 
ATOM      5  O   UNL     1       1.970   9.213  17.228  0.00  0.00    +0.000 OA
ATOM      6  C   UNL     1       3.095   6.667  18.099  0.00  0.00    +0.000 C 
ENDROOT
BRANCH   1   7
ATOM      7  N   UNL     1       3.428   4.490  19.659  0.00  0.00    +0.000 NA
BRANCH   7   9
ATOM      8  C   UNL     1       3.446   1.885  18.773  0.00  0.00    +0.000 C 
ATOM      9  S   UNL     1       2.641   2.948  19.945  0.00  0.00    +0.000 S 
ATOM     10  O   UNL     1       1.241   3.065  19.595  0.00  0.00    +0.000 OA
ATOM     11  O   UNL     1       3.042   2.512  21.267  0.00  0.00    +0.000 OA
ENDBRANCH   7   9
BRANCH   7  12
ATOM     12  C   UNL     1       4.727   4.301  18.875  0.00  0.00    +0.000 C 
BRANCH  12  13
ATOM     13  C   UNL     1       5.859   5.261  19.302  0.00  0.00    +0.000 C 
BRANCH  13  14
ATOM     14  N   UNL     1       7.218   5.061  18.767  0.00  0.00    +0.000 NA
ATOM     15  C   UNL     1       7.949   6.362  18.758  0.00  0.00    +0.000 C 
ATOM     16  C   UNL     1       7.509   7.333  17.641  0.00  0.00    +0.000 C 
ATOM     17  O   UNL     1       7.647   6.724  16.354  0.00  0.00    +0.000 OA
ATOM     18  C   UNL     1       6.876   5.521  16.276  0.00  0.00    +0.000 C 
ATOM     19  C   UNL     1       7.254   4.521  17.387  0.00  0.00    +0.000 C 
ENDBRANCH  13  14
ENDBRANCH  12  13
ENDBRANCH   7  12
ENDBRANCH   1   7
BRANCH   4  20
ATOM     20  C   UNL     1       1.035   9.636  19.406  0.00  0.00    +0.000 C 
BRANCH  20  21
ATOM     21  O   UNL     1       0.698  10.876  18.795  0.00  0.00    +0.000 OA
BRANCH  21  22
ATOM     22  C   UNL     1       1.389  11.974  19.220  0.00  0.00    +0.000 A 
ATOM     23  C   UNL     1       1.285  12.567  20.481  0.00  0.00    +0.000 A 
ATOM     24  C   UNL     1       2.078  13.674  20.797  0.00  0.00    +0.000 A 
ATOM     25  C   UNL     1       2.957  14.184  19.852  0.00  0.00    +0.000 A 
ATOM     26  F   UNL     1       3.718  15.242  20.163  0.00  0.00    +0.000 F 
ATOM     27  C   UNL     1       3.062  13.613  18.590  0.00  0.00    +0.000 A 
ATOM     28  C   UNL     1       2.274  12.506  18.276  0.00  0.00    +0.000 A 
ENDBRANCH  21  22
ENDBRANCH  20  21
ENDBRANCH   4  20
TORSDOF 8
ENDMDL
MODEL 8
REMARK VINA RESULT:      -7.6      0.740      1.197
REMARK  Name = 
REMARK  9 active torsions:
REMARK  status: ('A' for Active; 'I' for Inactive)
REMARK    1  A    between atoms: C_1  and  S_2
REMARK    2  A    between atoms: S_2  and  N_5
REMARK    3  A    between atoms: N_5  and  C_6
REMARK    4  A    between atoms: N_5  and  C_14
REMARK    5  A    between atoms: C_6  and  C_7
REMARK    6  A    between atoms: C_7  and  N_8
REMARK    7  A    between atoms: C_17  and  C_19
REMARK    8  A    between atoms: C_19  and  O_20
REMARK    9  A    between atoms: O_20  and  C_21
REMARK                            x       y       z     vdW  Elec       q    Type
REMARK                         _______ _______ _______ _____ _____    ______ ____
ROOT
ATOM      1  C   UNL     1       2.734   5.728  19.044  0.00  0.00    +0.000 C 
ATOM      2  C   UNL     1       2.022   6.854  19.863  0.00  0.00    +0.000 C 
ATOM      3  N   UNL     1       2.385   7.737  18.779  0.00  0.00    +0.000 N 
ATOM      4  C   UNL     1       1.876   8.872  18.221  0.00  0.00    +0.000 C 
ATOM      5  O   UNL     1       2.331   9.343  17.177  0.00  0.00    +0.000 OA
ATOM      6  C   UNL     1       3.443   6.888  18.295  0.00  0.00    +0.000 C 
ENDROOT
BRANCH   1   7
ATOM      7  N   UNL     1       3.547   4.668  19.825  0.00  0.00    +0.000 NA
BRANCH   7   9
ATOM      8  C   UNL     1       1.311   3.201  19.180  0.00  0.00    +0.000 C 
ATOM      9  S   UNL     1       2.677   3.223  20.312  0.00  0.00    +0.000 S 
ATOM     10  O   UNL     1       2.175   3.411  21.657  0.00  0.00    +0.000 OA
ATOM     11  O   UNL     1       3.525   2.095  19.986  0.00  0.00    +0.000 OA
ENDBRANCH   7   9
BRANCH   7  12
ATOM     12  C   UNL     1       4.873   4.305  19.156  0.00  0.00    +0.000 C 
BRANCH  12  13
ATOM     13  C   UNL     1       5.996   5.338  19.394  0.00  0.00    +0.000 C 
BRANCH  13  14
ATOM     14  N   UNL     1       7.326   5.113  18.799  0.00  0.00    +0.000 NA
ATOM     15  C   UNL     1       8.063   6.408  18.715  0.00  0.00    +0.000 C 
ATOM     16  C   UNL     1       7.573   7.349  17.594  0.00  0.00    +0.000 C 
ATOM     17  O   UNL     1       7.644   6.703  16.320  0.00  0.00    +0.000 OA
ATOM     18  C   UNL     1       6.862   5.503  16.315  0.00  0.00    +0.000 C 
ATOM     19  C   UNL     1       7.290   4.533  17.435  0.00  0.00    +0.000 C 
ENDBRANCH  13  14
ENDBRANCH  12  13
ENDBRANCH   7  12
ENDBRANCH   1   7
BRANCH   4  20
ATOM     20  C   UNL     1       0.723   9.520  18.959  0.00  0.00    +0.000 C 
BRANCH  20  21
ATOM     21  O   UNL     1      -0.286   9.811  18.000  0.00  0.00    +0.000 OA
BRANCH  21  22
ATOM     22  C   UNL     1      -1.329  10.582  18.425  0.00  0.00    +0.000 A 
ATOM     23  C   UNL     1      -1.264  11.578  19.402  0.00  0.00    +0.000 A 
ATOM     24  C   UNL     1      -2.406  12.318  19.721  0.00  0.00    +0.000 A 
ATOM     25  C   UNL     1      -3.602  12.052  19.069  0.00  0.00    +0.000 A 
ATOM     26  F   UNL     1      -4.693  12.767  19.375  0.00  0.00    +0.000 F 
ATOM     27  C   UNL     1      -3.686  11.057  18.105  0.00  0.00    +0.000 A 
ATOM     28  C   UNL     1      -2.545  10.321  17.784  0.00  0.00    +0.000 A 
ENDBRANCH  21  22
ENDBRANCH  20  21
ENDBRANCH   4  20
TORSDOF 8
ENDMDL
MODEL 9
REMARK VINA RESULT:      -7.6      2.327      2.800
REMARK  Name = 
REMARK  9 active torsions:
REMARK  status: ('A' for Active; 'I' for Inactive)
REMARK    1  A    between atoms: C_1  and  S_2
REMARK    2  A    between atoms: S_2  and  N_5
REMARK    3  A    between atoms: N_5  and  C_6
REMARK    4  A    between atoms: N_5  and  C_14
REMARK    5  A    between atoms: C_6  and  C_7
REMARK    6  A    between atoms: C_7  and  N_8
REMARK    7  A    between atoms: C_17  and  C_19
REMARK    8  A    between atoms: C_19  and  O_20
REMARK    9  A    between atoms: O_20  and  C_21
REMARK                            x       y       z     vdW  Elec       q    Type
REMARK                         _______ _______ _______ _____ _____    ______ ____
ROOT
ATOM      1  C   UNL     1       2.438   5.700  19.276  0.00  0.00    +0.000 C 
ATOM      2  C   UNL     1       1.825   6.883  20.094  0.00  0.00    +0.000 C 
ATOM      3  N   UNL     1       2.208   7.722  18.983  0.00  0.00    +0.000 N 
ATOM      4  C   UNL     1       1.754   8.877  18.419  0.00  0.00    +0.000 C 
ATOM      5  O   UNL     1       2.205   9.300  17.353  0.00  0.00    +0.000 OA
ATOM      6  C   UNL     1       3.195   6.799  18.483  0.00  0.00    +0.000 C 
ENDROOT
BRANCH   1   7
ATOM      7  N   UNL     1       3.207   4.604  20.052  0.00  0.00    +0.000 NA
BRANCH   7   9
ATOM      8  C   UNL     1       2.605   1.994  19.420  0.00  0.00    +0.000 C 
ATOM      9  S   UNL     1       2.256   3.246  20.628  0.00  0.00    +0.000 S 
ATOM     10  O   UNL     1       0.853   3.594  20.558  0.00  0.00    +0.000 OA
ATOM     11  O   UNL     1       2.853   2.818  21.877  0.00  0.00    +0.000 OA
ENDBRANCH   7   9
BRANCH   7  12
ATOM     12  C   UNL     1       4.466   4.120  19.332  0.00  0.00    +0.000 C 
BRANCH  12  13
ATOM     13  C   UNL     1       5.602   5.165  19.290  0.00  0.00    +0.000 C 
BRANCH  13  14
ATOM     14  N   UNL     1       6.910   4.790  18.724  0.00  0.00    +0.000 NA
ATOM     15  C   UNL     1       7.882   5.904  18.928  0.00  0.00    +0.000 C 
ATOM     16  C   UNL     1       7.673   7.112  17.990  0.00  0.00    +0.000 C 
ATOM     17  O   UNL     1       7.727   6.707  16.620  0.00  0.00    +0.000 OA
ATOM     18  C   UNL     1       6.738   5.709  16.345  0.00  0.00    +0.000 C 
ATOM     19  C   UNL     1       6.880   4.487  17.274  0.00  0.00    +0.000 C 
ENDBRANCH  13  14
ENDBRANCH  12  13
ENDBRANCH   7  12
ENDBRANCH   1   7
BRANCH   4  20
ATOM     20  C   UNL     1       0.669   9.611  19.180  0.00  0.00    +0.000 C 
BRANCH  20  21
ATOM     21  O   UNL     1       1.224  10.018  20.425  0.00  0.00    +0.000 OA
BRANCH  21  22
ATOM     22  C   UNL     1       0.431  10.793  21.222  0.00  0.00    +0.000 A 
ATOM     23  C   UNL     1       0.251  12.173  21.101  0.00  0.00    +0.000 A 
ATOM     24  C   UNL     1      -0.618  12.841  21.969  0.00  0.00    +0.000 A 
ATOM     25  C   UNL     1      -1.291  12.129  22.951  0.00  0.00    +0.000 A 
ATOM     26  F   UNL     1      -2.127  12.773  23.777  0.00  0.00    +0.000 F 
ATOM     27  C   UNL     1      -1.113  10.759  23.092  0.00  0.00    +0.000 A 
ATOM     28  C   UNL     1      -0.248  10.091  22.224  0.00  0.00    +0.000 A 
ENDBRANCH  21  22
ENDBRANCH  20  21
ENDBRANCH   4  20
TORSDOF 8
ENDMDL
