MODEL 1
REMARK VINA RESULT:      -7.9      0.000      0.000
REMARK  Name = 
REMARK  13 active torsions:
REMARK  status: ('A' for Active; 'I' for Inactive)
REMARK    1  A    between atoms: C_1  and  C_2
REMARK    2  A    between atoms: C_2  and  C_3
REMARK    3  A    between atoms: C_3  and  C_4
REMARK    4  A    between atoms: C_4  and  C_5
REMARK    5  A    between atoms: C_5  and  C_6
REMARK    6  A    between atoms: C_5  and  O_8
REMARK    7  A    between atoms: C_6  and  C_7
REMARK    8  A    between atoms: O_8  and  C_9
REMARK    9  A    between atoms: C_11  and  C_12
REMARK   10  A    between atoms: N_18  and  C_19
REMARK   11  A    between atoms: C_22  and  C_23
REMARK   12  A    between atoms: C_23  and  C_24
REMARK   13  A    between atoms: C_23  and  C_25
REMARK                            x       y       z     vdW  Elec       q    Type
REMARK                         _______ _______ _______ _____ _____    ______ ____
ROOT
ATOM      1  C   UNL     1       6.044   4.348  16.330  0.00  0.00    +0.000 A 
ATOM      2  N   UNL     1       7.016   5.243  16.651  0.00  0.00    +0.000 NA
ATOM      3  C   UNL     1       6.728   6.256  17.497  0.00  0.00    +0.000 A 
ATOM      4  C   UNL     1       7.861   7.174  17.856  0.00  0.00    +0.000 C 
ATOM      5  N   UNL     1       5.552   6.513  18.050  0.00  0.00    +0.000 NA
ATOM      6  C   UNL     1       4.602   5.623  17.676  0.00  0.00    +0.000 A 
ATOM      7  C   UNL     1       4.779   4.516  16.882  0.00  0.00    +0.000 A 
ATOM      8  N   UNL     1       3.574   3.835  16.825  0.00  0.00    +0.000 NA
ATOM      9  N   UNL     1       2.694   4.486  17.576  0.00  0.00    +0.000 NA
ATOM     10  N   UNL     1       3.288   5.616  18.060  0.00  0.00    +0.000 N 
ENDROOT
BRANCH  10  11
ATOM     11  C   UNL     1       2.611   6.589  18.830  0.00  0.00    +0.000 A 
ATOM     12  C   UNL     1       2.477   7.898  18.317  0.00  0.00    +0.000 A 
ATOM     13  C   UNL     1       1.720   8.848  19.015  0.00  0.00    +0.000 A 
ATOM     14  C   UNL     1       1.110   8.540  20.238  0.00  0.00    +0.000 A 
ATOM     15  C   UNL     1       1.298   7.247  20.757  0.00  0.00    +0.000 A 
ATOM     16  C   UNL     1       2.050   6.284  20.071  0.00  0.00    +0.000 A 
ATOM     17 BR   UNL     1       2.370   4.665  21.026  0.00  0.00    +0.000 Br
BRANCH  14  18
ATOM     18  C   UNL     1       0.280   9.589  20.967  0.00  0.00    +0.000 C 
ATOM     19  C   UNL     1       0.158   9.291  22.466  0.00  0.00    +0.000 C 
ATOM     20  C   UNL     1       0.793  11.025  20.790  0.00  0.00    +0.000 C 
ENDBRANCH  14  18
ENDBRANCH  10  11
BRANCH   1  21
ATOM     21  O   UNL     1       6.353   3.335  15.438  0.00  0.00    +0.000 OA
BRANCH  21  22
ATOM     22  C   UNL     1       6.491   3.770  14.058  0.00  0.00    +0.000 C 
BRANCH  22  23
ATOM     23  C   UNL     1       7.137   5.184  13.912  0.00  0.00    +0.000 C 
ATOM     24  C   UNL     1       8.119   5.397  12.765  0.00  0.00    +0.000 C 
ENDBRANCH  22  23
BRANCH  22  25
ATOM     25  C   UNL     1       5.064   3.725  13.450  0.00  0.00    +0.000 C 
BRANCH  25  26
ATOM     26  C   UNL     1       4.988   3.869  11.925  0.00  0.00    +0.000 C 
BRANCH  26  28
ATOM     27  C   UNL     1       3.224   3.872  10.174  0.00  0.00    +0.000 C 
ATOM     28  C   UNL     1       3.931   3.017  11.222  0.00  0.00    +0.000 C 
ENDBRANCH  26  28
ENDBRANCH  25  26
ENDBRANCH  22  25
ENDBRANCH  21  22
ENDBRANCH   1  21
TORSDOF 8
ENDMDL
MODEL 2
REMARK VINA RESULT:      -7.9      2.618      4.588
REMARK  Name = 
REMARK  13 active torsions:
REMARK  status: ('A' for Active; 'I' for Inactive)
REMARK    1  A    between atoms: C_1  and  C_2
REMARK    2  A    between atoms: C_2  and  C_3
REMARK    3  A    between atoms: C_3  and  C_4
REMARK    4  A    between atoms: C_4  and  C_5
REMARK    5  A    between atoms: C_5  and  C_6
REMARK    6  A    between atoms: C_5  and  O_8
REMARK    7  A    between atoms: C_6  and  C_7
REMARK    8  A    between atoms: O_8  and  C_9
REMARK    9  A    between atoms: C_11  and  C_12
REMARK   10  A    between atoms: N_18  and  C_19
REMARK   11  A    between atoms: C_22  and  C_23
REMARK   12  A    between atoms: C_23  and  C_24
REMARK   13  A    between atoms: C_23  and  C_25
REMARK                            x       y       z     vdW  Elec       q    Type
REMARK                         _______ _______ _______ _____ _____    ______ ____
ROOT
ATOM      1  C   UNL     1       3.416   6.301  18.102  0.00  0.00    +0.000 A 
ATOM      2  N   UNL     1       3.200   5.396  19.093  0.00  0.00    +0.000 NA
ATOM      3  C   UNL     1       2.352   5.706  20.098  0.00  0.00    +0.000 A 
ATOM      4  C   UNL     1       2.114   4.640  21.128  0.00  0.00    +0.000 C 
ATOM      5  N   UNL     1       1.702   6.849  20.258  0.00  0.00    +0.000 NA
ATOM      6  C   UNL     1       1.972   7.737  19.272  0.00  0.00    +0.000 A 
ATOM      7  C   UNL     1       2.757   7.525  18.165  0.00  0.00    +0.000 A 
ATOM      8  N   UNL     1       2.693   8.658  17.372  0.00  0.00    +0.000 NA
ATOM      9  N   UNL     1       1.880   9.529  17.958  0.00  0.00    +0.000 NA
ATOM     10  N   UNL     1       1.473   9.006  19.152  0.00  0.00    +0.000 N 
ENDROOT
BRANCH  10  11
ATOM     11  C   UNL     1       0.666   9.706  20.079  0.00  0.00    +0.000 A 
ATOM     12  C   UNL     1       1.029   9.705  21.443  0.00  0.00    +0.000 A 
ATOM     13  C   UNL     1       0.304  10.477  22.360  0.00  0.00    +0.000 A 
ATOM     14  C   UNL     1      -0.805  11.234  21.961  0.00  0.00    +0.000 A 
ATOM     15  C   UNL     1      -1.182  11.181  20.608  0.00  0.00    +0.000 A 
ATOM     16  C   UNL     1      -0.466  10.416  19.677  0.00  0.00    +0.000 A 
ATOM     17 BR   UNL     1      -1.249  10.299  17.941  0.00  0.00    +0.000 Br
BRANCH  14  18
ATOM     18  C   UNL     1      -1.566  12.076  22.978  0.00  0.00    +0.000 C 
ATOM     19  C   UNL     1      -0.950  13.469  23.151  0.00  0.00    +0.000 C 
ATOM     20  C   UNL     1      -3.061  12.233  22.664  0.00  0.00    +0.000 C 
ENDBRANCH  14  18
ENDBRANCH  10  11
BRANCH   1  21
ATOM     21  O   UNL     1       4.311   5.974  17.097  0.00  0.00    +0.000 OA
BRANCH  21  22
ATOM     22  C   UNL     1       5.703   5.955  17.516  0.00  0.00    +0.000 C 
BRANCH  22  23
ATOM     23  C   UNL     1       6.438   7.315  17.304  0.00  0.00    +0.000 C 
ATOM     24  C   UNL     1       7.850   7.451  17.865  0.00  0.00    +0.000 C 
ENDBRANCH  22  23
BRANCH  22  25
ATOM     25  C   UNL     1       6.375   4.808  16.715  0.00  0.00    +0.000 C 
BRANCH  25  26
ATOM     26  C   UNL     1       5.445   4.009  15.793  0.00  0.00    +0.000 C 
BRANCH  26  28
ATOM     27  C   UNL     1       7.053   4.822  14.082  0.00  0.00    +0.000 C 
ATOM     28  C   UNL     1       5.693   4.162  14.293  0.00  0.00    +0.000 C 
ENDBRANCH  26  28
ENDBRANCH  25  26
ENDBRANCH  22  25
ENDBRANCH  21  22
ENDBRANCH   1  21
TORSDOF 8
ENDMDL
MODEL 3
REMARK VINA RESULT:      -7.7      2.656      4.620
REMARK  Name = 
REMARK  13 active torsions:
REMARK  status: ('A' for Active; 'I' for Inactive)
REMARK    1  A    between atoms: C_1  and  C_2
REMARK    2  A    between atoms: C_2  and  C_3
REMARK    3  A    between atoms: C_3  and  C_4
REMARK    4  A    between atoms: C_4  and  C_5
REMARK    5  A    between atoms: C_5  and  C_6
REMARK    6  A    between atoms: C_5  and  O_8
REMARK    7  A    between atoms: C_6  and  C_7
REMARK    8  A    between atoms: O_8  and  C_9
REMARK    9  A    between atoms: C_11  and  C_12
REMARK   10  A    between atoms: N_18  and  C_19
REMARK   11  A    between atoms: C_22  and  C_23
REMARK   12  A    between atoms: C_23  and  C_24
REMARK   13  A    between atoms: C_23  and  C_25
REMARK                            x       y       z     vdW  Elec       q    Type
REMARK                         _______ _______ _______ _____ _____    ______ ____
ROOT
ATOM      1  C   UNL     1       3.497   6.528  18.031  0.00  0.00    +0.000 A 
ATOM      2  N   UNL     1       3.233   5.672  19.054  0.00  0.00    +0.000 NA
ATOM      3  C   UNL     1       2.329   6.026  19.994  0.00  0.00    +0.000 A 
ATOM      4  C   UNL     1       2.042   5.012  21.064  0.00  0.00    +0.000 C 
ATOM      5  N   UNL     1       1.664   7.169  20.060  0.00  0.00    +0.000 NA
ATOM      6  C   UNL     1       1.982   8.008  19.046  0.00  0.00    +0.000 A 
ATOM      7  C   UNL     1       2.828   7.747  17.995  0.00  0.00    +0.000 A 
ATOM      8  N   UNL     1       2.800   8.838  17.142  0.00  0.00    +0.000 NA
ATOM      9  N   UNL     1       1.951   9.730  17.638  0.00  0.00    +0.000 NA
ATOM     10  N   UNL     1       1.483   9.265  18.833  0.00  0.00    +0.000 N 
ENDROOT
BRANCH  10  11
ATOM     11  C   UNL     1       0.621  10.003  19.678  0.00  0.00    +0.000 A 
ATOM     12  C   UNL     1       1.020  10.264  21.007  0.00  0.00    +0.000 A 
ATOM     13  C   UNL     1       0.230  11.081  21.826  0.00  0.00    +0.000 A 
ATOM     14  C   UNL     1      -0.975  11.629  21.367  0.00  0.00    +0.000 A 
ATOM     15  C   UNL     1      -1.380  11.315  20.058  0.00  0.00    +0.000 A 
ATOM     16  C   UNL     1      -0.601  10.502  19.224  0.00  0.00    +0.000 A 
ATOM     17 BR   UNL     1      -1.412  10.017  17.567  0.00  0.00    +0.000 Br
BRANCH  14  18
ATOM     18  C   UNL     1      -1.805  12.526  22.276  0.00  0.00    +0.000 C 
ATOM     19  C   UNL     1      -2.534  11.731  23.365  0.00  0.00    +0.000 C 
ATOM     20  C   UNL     1      -1.003  13.654  22.942  0.00  0.00    +0.000 C 
ENDBRANCH  14  18
ENDBRANCH  10  11
BRANCH   1  21
ATOM     21  O   UNL     1       4.448   6.158  17.095  0.00  0.00    +0.000 OA
BRANCH  21  22
ATOM     22  C   UNL     1       5.569   5.411  17.641  0.00  0.00    +0.000 C 
BRANCH  22  23
ATOM     23  C   UNL     1       6.781   6.309  18.042  0.00  0.00    +0.000 C 
ATOM     24  C   UNL     1       7.721   5.787  19.124  0.00  0.00    +0.000 C 
ENDBRANCH  22  23
BRANCH  22  25
ATOM     25  C   UNL     1       5.959   4.371  16.557  0.00  0.00    +0.000 C 
BRANCH  25  26
ATOM     26  C   UNL     1       7.117   4.776  15.635  0.00  0.00    +0.000 C 
BRANCH  26  28
ATOM     27  C   UNL     1       5.478   4.030  13.922  0.00  0.00    +0.000 C 
ATOM     28  C   UNL     1       6.854   4.656  14.134  0.00  0.00    +0.000 C 
ENDBRANCH  26  28
ENDBRANCH  25  26
ENDBRANCH  22  25
ENDBRANCH  21  22
ENDBRANCH   1  21
TORSDOF 8
ENDMDL
MODEL 4
REMARK VINA RESULT:      -7.3      2.845      4.870
REMARK  Name = 
REMARK  13 active torsions:
REMARK  status: ('A' for Active; 'I' for Inactive)
REMARK    1  A    between atoms: C_1  and  C_2
REMARK    2  A    between atoms: C_2  and  C_3
REMARK    3  A    between atoms: C_3  and  C_4
REMARK    4  A    between atoms: C_4  and  C_5
REMARK    5  A    between atoms: C_5  and  C_6
REMARK    6  A    between atoms: C_5  and  O_8
REMARK    7  A    between atoms: C_6  and  C_7
REMARK    8  A    between atoms: O_8  and  C_9
REMARK    9  A    between atoms: C_11  and  C_12
REMARK   10  A    between atoms: N_18  and  C_19
REMARK   11  A    between atoms: C_22  and  C_23
REMARK   12  A    between atoms: C_23  and  C_24
REMARK   13  A    between atoms: C_23  and  C_25
REMARK                            x       y       z     vdW  Elec       q    Type
REMARK                         _______ _______ _______ _____ _____    ______ ____
ROOT
ATOM      1  C   UNL     1       3.502   6.282  18.196  0.00  0.00    +0.000 A 
ATOM      2  N   UNL     1       3.254   5.483  19.267  0.00  0.00    +0.000 NA
ATOM      3  C   UNL     1       2.366   5.887  20.202  0.00  0.00    +0.000 A 
ATOM      4  C   UNL     1       2.095   4.932  21.328  0.00  0.00    +0.000 C 
ATOM      5  N   UNL     1       1.703   7.034  20.217  0.00  0.00    +0.000 NA
ATOM      6  C   UNL     1       2.004   7.817  19.154  0.00  0.00    +0.000 A 
ATOM      7  C   UNL     1       2.833   7.498  18.106  0.00  0.00    +0.000 A 
ATOM      8  N   UNL     1       2.792   8.542  17.197  0.00  0.00    +0.000 NA
ATOM      9  N   UNL     1       1.951   9.461  17.658  0.00  0.00    +0.000 NA
ATOM     10  N   UNL     1       1.502   9.061  18.884  0.00  0.00    +0.000 N 
ENDROOT
BRANCH  10  11
ATOM     11  C   UNL     1       0.655   9.844  19.701  0.00  0.00    +0.000 A 
ATOM     12  C   UNL     1       1.027  10.086  21.042  0.00  0.00    +0.000 A 
ATOM     13  C   UNL     1       0.256  10.944  21.838  0.00  0.00    +0.000 A 
ATOM     14  C   UNL     1      -0.904  11.554  21.342  0.00  0.00    +0.000 A 
ATOM     15  C   UNL     1      -1.285  11.260  20.021  0.00  0.00    +0.000 A 
ATOM     16  C   UNL     1      -0.525  10.406  19.211  0.00  0.00    +0.000 A 
ATOM     17 BR   UNL     1      -1.309   9.962  17.530  0.00  0.00    +0.000 Br
BRANCH  14  18
ATOM     18  C   UNL     1      -1.713  12.494  22.225  0.00  0.00    +0.000 C 
ATOM     19  C   UNL     1      -2.413  11.754  23.370  0.00  0.00    +0.000 C 
ATOM     20  C   UNL     1      -0.898  13.655  22.814  0.00  0.00    +0.000 C 
ENDBRANCH  14  18
ENDBRANCH  10  11
BRANCH   1  21
ATOM     21  O   UNL     1       4.437   5.861  17.265  0.00  0.00    +0.000 OA
BRANCH  21  22
ATOM     22  C   UNL     1       4.641   4.422  17.228  0.00  0.00    +0.000 C 
BRANCH  22  23
ATOM     23  C   UNL     1       5.672   3.966  16.147  0.00  0.00    +0.000 C 
ATOM     24  C   UNL     1       5.604   4.636  14.779  0.00  0.00    +0.000 C 
ENDBRANCH  22  23
BRANCH  22  25
ATOM     25  C   UNL     1       3.242   3.798  16.986  0.00  0.00    +0.000 C 
BRANCH  25  26
ATOM     26  C   UNL     1       3.080   2.339  17.432  0.00  0.00    +0.000 C 
BRANCH  26  28
ATOM     27  C   UNL     1       0.959   2.458  18.721  0.00  0.00    +0.000 C 
ATOM     28  C   UNL     1       2.445   2.123  18.805  0.00  0.00    +0.000 C 
ENDBRANCH  26  28
ENDBRANCH  25  26
ENDBRANCH  22  25
ENDBRANCH  21  22
ENDBRANCH   1  21
TORSDOF 8
ENDMDL
MODEL 5
REMARK VINA RESULT:      -7.3      4.663      7.082
REMARK  Name = 
REMARK  13 active torsions:
REMARK  status: ('A' for Active; 'I' for Inactive)
REMARK    1  A    between atoms: C_1  and  C_2
REMARK    2  A    between atoms: C_2  and  C_3
REMARK    3  A    between atoms: C_3  and  C_4
REMARK    4  A    between atoms: C_4  and  C_5
REMARK    5  A    between atoms: C_5  and  C_6
REMARK    6  A    between atoms: C_5  and  O_8
REMARK    7  A    between atoms: C_6  and  C_7
REMARK    8  A    between atoms: O_8  and  C_9
REMARK    9  A    between atoms: C_11  and  C_12
REMARK   10  A    between atoms: N_18  and  C_19
REMARK   11  A    between atoms: C_22  and  C_23
REMARK   12  A    between atoms: C_23  and  C_24
REMARK   13  A    between atoms: C_23  and  C_25
REMARK                            x       y       z     vdW  Elec       q    Type
REMARK                         _______ _______ _______ _____ _____    ______ ____
ROOT
ATOM      1  C   UNL     1       1.982   7.591  20.125  0.00  0.00    +0.000 A 
ATOM      2  N   UNL     1       1.378   7.717  21.336  0.00  0.00    +0.000 NA
ATOM      3  C   UNL     1       0.750   8.872  21.645  0.00  0.00    +0.000 A 
ATOM      4  C   UNL     1       0.055   8.923  22.975  0.00  0.00    +0.000 C 
ATOM      5  N   UNL     1       0.676   9.957  20.889  0.00  0.00    +0.000 NA
ATOM      6  C   UNL     1       1.320   9.805  19.707  0.00  0.00    +0.000 A 
ATOM      7  C   UNL     1       1.936   8.668  19.245  0.00  0.00    +0.000 A 
ATOM      8  N   UNL     1       2.389   8.919  17.961  0.00  0.00    +0.000 NA
ATOM      9  N   UNL     1       2.044  10.159  17.634  0.00  0.00    +0.000 NA
ATOM     10  N   UNL     1       1.439  10.738  18.712  0.00  0.00    +0.000 N 
ENDROOT
BRANCH  10  11
ATOM     11  C   UNL     1       1.020  12.089  18.744  0.00  0.00    +0.000 A 
ATOM     12  C   UNL     1       1.956  13.089  19.085  0.00  0.00    +0.000 A 
ATOM     13  C   UNL     1       1.590  14.440  19.021  0.00  0.00    +0.000 A 
ATOM     14  C   UNL     1       0.296  14.829  18.650  0.00  0.00    +0.000 A 
ATOM     15  C   UNL     1      -0.636  13.816  18.364  0.00  0.00    +0.000 A 
ATOM     16  C   UNL     1      -0.286  12.461  18.421  0.00  0.00    +0.000 A 
ATOM     17 BR   UNL     1      -1.731  11.234  18.208  0.00  0.00    +0.000 Br
BRANCH  14  18
ATOM     18  C   UNL     1      -0.069  16.306  18.574  0.00  0.00    +0.000 C 
ATOM     19  C   UNL     1      -1.040  16.720  19.686  0.00  0.00    +0.000 C 
ATOM     20  C   UNL     1       1.142  17.250  18.599  0.00  0.00    +0.000 C 
ENDBRANCH  14  18
ENDBRANCH  10  11
BRANCH   1  21
ATOM     21  O   UNL     1       2.645   6.409  19.840  0.00  0.00    +0.000 OA
BRANCH  21  22
ATOM     22  C   UNL     1       1.801   5.225  19.871  0.00  0.00    +0.000 C 
BRANCH  22  23
ATOM     23  C   UNL     1       2.294   4.134  20.873  0.00  0.00    +0.000 C 
ATOM     24  C   UNL     1       1.294   3.065  21.302  0.00  0.00    +0.000 C 
ENDBRANCH  22  23
BRANCH  22  25
ATOM     25  C   UNL     1       1.759   4.691  18.415  0.00  0.00    +0.000 C 
BRANCH  25  26
ATOM     26  C   UNL     1       2.935   3.797  18.002  0.00  0.00    +0.000 C 
BRANCH  26  28
ATOM     27  C   UNL     1       3.620   1.445  18.419  0.00  0.00    +0.000 C 
ATOM     28  C   UNL     1       2.599   2.334  17.716  0.00  0.00    +0.000 C 
ENDBRANCH  26  28
ENDBRANCH  25  26
ENDBRANCH  22  25
ENDBRANCH  21  22
ENDBRANCH   1  21
TORSDOF 8
ENDMDL
MODEL 6
REMARK VINA RESULT:      -7.2      3.244      5.142
REMARK  Name = 
REMARK  13 active torsions:
REMARK  status: ('A' for Active; 'I' for Inactive)
REMARK    1  A    between atoms: C_1  and  C_2
REMARK    2  A    between atoms: C_2  and  C_3
REMARK    3  A    between atoms: C_3  and  C_4
REMARK    4  A    between atoms: C_4  and  C_5
REMARK    5  A    between atoms: C_5  and  C_6
REMARK    6  A    between atoms: C_5  and  O_8
REMARK    7  A    between atoms: C_6  and  C_7
REMARK    8  A    between atoms: O_8  and  C_9
REMARK    9  A    between atoms: C_11  and  C_12
REMARK   10  A    between atoms: N_18  and  C_19
REMARK   11  A    between atoms: C_22  and  C_23
REMARK   12  A    between atoms: C_23  and  C_24
REMARK   13  A    between atoms: C_23  and  C_25
REMARK                            x       y       z     vdW  Elec       q    Type
REMARK                         _______ _______ _______ _____ _____    ______ ____
ROOT
ATOM      1  C   UNL     1       3.213   6.854  18.137  0.00  0.00    +0.000 A 
ATOM      2  N   UNL     1       3.056   5.930  19.122  0.00  0.00    +0.000 NA
ATOM      3  C   UNL     1       2.208   6.188  20.141  0.00  0.00    +0.000 A 
ATOM      4  C   UNL     1       2.037   5.102  21.164  0.00  0.00    +0.000 C 
ATOM      5  N   UNL     1       1.505   7.296  20.322  0.00  0.00    +0.000 NA
ATOM      6  C   UNL     1       1.717   8.206  19.341  0.00  0.00    +0.000 A 
ATOM      7  C   UNL     1       2.495   8.043  18.221  0.00  0.00    +0.000 A 
ATOM      8  N   UNL     1       2.365   9.179  17.441  0.00  0.00    +0.000 NA
ATOM      9  N   UNL     1       1.518  10.003  18.047  0.00  0.00    +0.000 NA
ATOM     10  N   UNL     1       1.155   9.450  19.241  0.00  0.00    +0.000 N 
ENDROOT
BRANCH  10  11
ATOM     11  C   UNL     1       0.327  10.100  20.186  0.00  0.00    +0.000 A 
ATOM     12  C   UNL     1       0.649  10.009  21.558  0.00  0.00    +0.000 A 
ATOM     13  C   UNL     1      -0.095  10.731  22.500  0.00  0.00    +0.000 A 
ATOM     14  C   UNL     1      -1.184  11.525  22.117  0.00  0.00    +0.000 A 
ATOM     15  C   UNL     1      -1.520  11.561  20.752  0.00  0.00    +0.000 A 
ATOM     16  C   UNL     1      -0.785  10.848  19.796  0.00  0.00    +0.000 A 
ATOM     17 BR   UNL     1      -1.516  10.849  18.035  0.00  0.00    +0.000 Br
BRANCH  14  18
ATOM     18  C   UNL     1      -1.966  12.311  23.162  0.00  0.00    +0.000 C 
ATOM     19  C   UNL     1      -1.333  13.676  23.452  0.00  0.00    +0.000 C 
ATOM     20  C   UNL     1      -3.446  12.518  22.808  0.00  0.00    +0.000 C 
ENDBRANCH  14  18
ENDBRANCH  10  11
BRANCH   1  21
ATOM     21  O   UNL     1       4.108   6.581  17.116  0.00  0.00    +0.000 OA
BRANCH  21  22
ATOM     22  C   UNL     1       5.061   5.526  17.421  0.00  0.00    +0.000 C 
BRANCH  22  23
ATOM     23  C   UNL     1       6.507   5.826  16.915  0.00  0.00    +0.000 C 
ATOM     24  C   UNL     1       7.435   6.599  17.846  0.00  0.00    +0.000 C 
ENDBRANCH  22  23
BRANCH  22  25
ATOM     25  C   UNL     1       4.487   4.233  16.783  0.00  0.00    +0.000 C 
BRANCH  25  26
ATOM     26  C   UNL     1       4.214   3.078  17.755  0.00  0.00    +0.000 C 
BRANCH  26  28
ATOM     27  C   UNL     1       1.753   2.947  18.073  0.00  0.00    +0.000 C 
ATOM     28  C   UNL     1       2.966   2.243  17.472  0.00  0.00    +0.000 C 
ENDBRANCH  26  28
ENDBRANCH  25  26
ENDBRANCH  22  25
ENDBRANCH  21  22
ENDBRANCH   1  21
TORSDOF 8
ENDMDL
MODEL 7
REMARK VINA RESULT:      -7.1      2.444      4.641
REMARK  Name = 
REMARK  13 active torsions:
REMARK  status: ('A' for Active; 'I' for Inactive)
REMARK    1  A    between atoms: C_1  and  C_2
REMARK    2  A    between atoms: C_2  and  C_3
REMARK    3  A    between atoms: C_3  and  C_4
REMARK    4  A    between atoms: C_4  and  C_5
REMARK    5  A    between atoms: C_5  and  C_6
REMARK    6  A    between atoms: C_5  and  O_8
REMARK    7  A    between atoms: C_6  and  C_7
REMARK    8  A    between atoms: O_8  and  C_9
REMARK    9  A    between atoms: C_11  and  C_12
REMARK   10  A    between atoms: N_18  and  C_19
REMARK   11  A    between atoms: C_22  and  C_23
REMARK   12  A    between atoms: C_23  and  C_24
REMARK   13  A    between atoms: C_23  and  C_25
REMARK                            x       y       z     vdW  Elec       q    Type
REMARK                         _______ _______ _______ _____ _____    ______ ____
ROOT
ATOM      1  C   UNL     1       3.862   4.333  18.645  0.00  0.00    +0.000 A 
ATOM      2  N   UNL     1       3.426   3.608  19.709  0.00  0.00    +0.000 NA
ATOM      3  C   UNL     1       2.580   4.179  20.595  0.00  0.00    +0.000 A 
ATOM      4  C   UNL     1       2.091   3.306  21.714  0.00  0.00    +0.000 C 
ATOM      5  N   UNL     1       2.131   5.425  20.568  0.00  0.00    +0.000 NA
ATOM      6  C   UNL     1       2.617   6.124  19.515  0.00  0.00    +0.000 A 
ATOM      7  C   UNL     1       3.425   5.647  18.512  0.00  0.00    +0.000 A 
ATOM      8  N   UNL     1       3.613   6.666  17.593  0.00  0.00    +0.000 NA
ATOM      9  N   UNL     1       2.927   7.726  18.004  0.00  0.00    +0.000 NA
ATOM     10  N   UNL     1       2.357   7.433  19.209  0.00  0.00    +0.000 N 
ENDROOT
BRANCH  10  11
ATOM     11  C   UNL     1       1.625   8.368  19.977  0.00  0.00    +0.000 A 
ATOM     12  C   UNL     1       1.161   7.991  21.257  0.00  0.00    +0.000 A 
ATOM     13  C   UNL     1       0.525   8.934  22.075  0.00  0.00    +0.000 A 
ATOM     14  C   UNL     1       0.308  10.249  21.642  0.00  0.00    +0.000 A 
ATOM     15  C   UNL     1       0.731  10.589  20.345  0.00  0.00    +0.000 A 
ATOM     16  C   UNL     1       1.370   9.660  19.514  0.00  0.00    +0.000 A 
ATOM     17 BR   UNL     1       1.678  10.240  17.724  0.00  0.00    +0.000 Br
BRANCH  14  18
ATOM     18  C   UNL     1      -0.373  11.257  22.559  0.00  0.00    +0.000 C 
ATOM     19  C   UNL     1      -0.707  12.565  21.834  0.00  0.00    +0.000 C 
ATOM     20  C   UNL     1      -1.647  10.727  23.233  0.00  0.00    +0.000 C 
ENDBRANCH  14  18
ENDBRANCH  10  11
BRANCH   1  21
ATOM     21  O   UNL     1       4.751   3.738  17.765  0.00  0.00    +0.000 OA
BRANCH  21  22
ATOM     22  C   UNL     1       5.778   4.631  17.255  0.00  0.00    +0.000 C 
BRANCH  22  23
ATOM     23  C   UNL     1       6.397   4.161  15.901  0.00  0.00    +0.000 C 
ATOM     24  C   UNL     1       5.682   4.570  14.618  0.00  0.00    +0.000 C 
ENDBRANCH  22  23
BRANCH  22  25
ATOM     25  C   UNL     1       6.851   4.732  18.372  0.00  0.00    +0.000 C 
BRANCH  25  26
ATOM     26  C   UNL     1       7.425   6.133  18.617  0.00  0.00    +0.000 C 
BRANCH  26  28
ATOM     27  C   UNL     1       8.063   8.381  17.771  0.00  0.00    +0.000 C 
ATOM     28  C   UNL     1       7.187   7.159  17.510  0.00  0.00    +0.000 C 
ENDBRANCH  26  28
ENDBRANCH  25  26
ENDBRANCH  22  25
ENDBRANCH  21  22
ENDBRANCH   1  21
TORSDOF 8
ENDMDL
MODEL 8
REMARK VINA RESULT:      -7.1      4.414      7.137
REMARK  Name = 
REMARK  13 active torsions:
REMARK  status: ('A' for Active; 'I' for Inactive)
REMARK    1  A    between atoms: C_1  and  C_2
REMARK    2  A    between atoms: C_2  and  C_3
REMARK    3  A    between atoms: C_3  and  C_4
REMARK    4  A    between atoms: C_4  and  C_5
REMARK    5  A    between atoms: C_5  and  C_6
REMARK    6  A    between atoms: C_5  and  O_8
REMARK    7  A    between atoms: C_6  and  C_7
REMARK    8  A    between atoms: O_8  and  C_9
REMARK    9  A    between atoms: C_11  and  C_12
REMARK   10  A    between atoms: N_18  and  C_19
REMARK   11  A    between atoms: C_22  and  C_23
REMARK   12  A    between atoms: C_23  and  C_24
REMARK   13  A    between atoms: C_23  and  C_25
REMARK                            x       y       z     vdW  Elec       q    Type
REMARK                         _______ _______ _______ _____ _____    ______ ____
ROOT
ATOM      1  C   UNL     1       1.642   7.638  19.753  0.00  0.00    +0.000 A 
ATOM      2  N   UNL     1       1.190   7.782  21.027  0.00  0.00    +0.000 NA
ATOM      3  C   UNL     1       0.804   9.003  21.458  0.00  0.00    +0.000 A 
ATOM      4  C   UNL     1       0.261   9.081  22.855  0.00  0.00    +0.000 C 
ATOM      5  N   UNL     1       0.847  10.134  20.769  0.00  0.00    +0.000 NA
ATOM      6  C   UNL     1       1.338   9.956  19.519  0.00  0.00    +0.000 A 
ATOM      7  C   UNL     1       1.699   8.764  18.938  0.00  0.00    +0.000 A 
ATOM      8  N   UNL     1       2.063   9.021  17.626  0.00  0.00    +0.000 NA
ATOM      9  N   UNL     1       1.909  10.321  17.401  0.00  0.00    +0.000 NA
ATOM     10  N   UNL     1       1.521  10.920  18.565  0.00  0.00    +0.000 N 
ENDROOT
BRANCH  10  11
ATOM     11  C   UNL     1       1.349  12.316  18.707  0.00  0.00    +0.000 A 
ATOM     12  C   UNL     1       2.475  13.122  18.983  0.00  0.00    +0.000 A 
ATOM     13  C   UNL     1       2.344  14.516  19.025  0.00  0.00    +0.000 A 
ATOM     14  C   UNL     1       1.105  15.139  18.827  0.00  0.00    +0.000 A 
ATOM     15  C   UNL     1      -0.014  14.317  18.605  0.00  0.00    +0.000 A 
ATOM     16  C   UNL     1       0.100  12.921  18.558  0.00  0.00    +0.000 A 
ATOM     17 BR   UNL     1      -1.550  11.970  18.459  0.00  0.00    +0.000 Br
BRANCH  14  18
ATOM     18  C   UNL     1       0.996  16.658  18.862  0.00  0.00    +0.000 C 
ATOM     19  C   UNL     1      -0.414  17.145  18.507  0.00  0.00    +0.000 C 
ATOM     20  C   UNL     1       1.410  17.283  20.203  0.00  0.00    +0.000 C 
ENDBRANCH  14  18
ENDBRANCH  10  11
BRANCH   1  21
ATOM     21  O   UNL     1       2.058   6.384  19.341  0.00  0.00    +0.000 OA
BRANCH  21  22
ATOM     22  C   UNL     1       3.074   5.780  20.188  0.00  0.00    +0.000 C 
BRANCH  22  23
ATOM     23  C   UNL     1       4.356   5.344  19.412  0.00  0.00    +0.000 C 
ATOM     24  C   UNL     1       4.299   5.361  17.888  0.00  0.00    +0.000 C 
ENDBRANCH  22  23
BRANCH  22  25
ATOM     25  C   UNL     1       2.389   4.577  20.887  0.00  0.00    +0.000 C 
BRANCH  25  26
ATOM     26  C   UNL     1       1.045   4.140  20.291  0.00  0.00    +0.000 C 
BRANCH  26  28
ATOM     27  C   UNL     1       2.248   2.172  19.367  0.00  0.00    +0.000 C 
ATOM     28  C   UNL     1       1.116   3.165  19.117  0.00  0.00    +0.000 C 
ENDBRANCH  26  28
ENDBRANCH  25  26
ENDBRANCH  22  25
ENDBRANCH  21  22
ENDBRANCH   1  21
TORSDOF 8
ENDMDL
MODEL 9
REMARK VINA RESULT:      -7.0      2.698      5.090
REMARK  Name = 
REMARK  13 active torsions:
REMARK  status: ('A' for Active; 'I' for Inactive)
REMARK    1  A    between atoms: C_1  and  C_2
REMARK    2  A    between atoms: C_2  and  C_3
REMARK    3  A    between atoms: C_3  and  C_4
REMARK    4  A    between atoms: C_4  and  C_5
REMARK    5  A    between atoms: C_5  and  C_6
REMARK    6  A    between atoms: C_5  and  O_8
REMARK    7  A    between atoms: C_6  and  C_7
REMARK    8  A    between atoms: O_8  and  C_9
REMARK    9  A    between atoms: C_11  and  C_12
REMARK   10  A    between atoms: N_18  and  C_19
REMARK   11  A    between atoms: C_22  and  C_23
REMARK   12  A    between atoms: C_23  and  C_24
REMARK   13  A    between atoms: C_23  and  C_25
REMARK                            x       y       z     vdW  Elec       q    Type
REMARK                         _______ _______ _______ _____ _____    ______ ____
ROOT
ATOM      1  C   UNL     1       3.194   5.681  18.102  0.00  0.00    +0.000 A 
ATOM      2  N   UNL     1       2.994   4.850  19.159  0.00  0.00    +0.000 NA
ATOM      3  C   UNL     1       2.247   5.274  20.201  0.00  0.00    +0.000 A 
ATOM      4  C   UNL     1       2.018   4.287  21.309  0.00  0.00    +0.000 C 
ATOM      5  N   UNL     1       1.687   6.467  20.338  0.00  0.00    +0.000 NA
ATOM      6  C   UNL     1       1.940   7.278  19.283  0.00  0.00    +0.000 A 
ATOM      7  C   UNL     1       2.623   6.949  18.137  0.00  0.00    +0.000 A 
ATOM      8  N   UNL     1       2.574   8.038  17.283  0.00  0.00    +0.000 NA
ATOM      9  N   UNL     1       1.866   8.995  17.872  0.00  0.00    +0.000 NA
ATOM     10  N   UNL     1       1.518   8.570  19.122  0.00  0.00    +0.000 N 
ENDROOT
BRANCH  10  11
ATOM     11  C   UNL     1       0.830   9.375  20.060  0.00  0.00    +0.000 A 
ATOM     12  C   UNL     1       1.242   9.358  21.410  0.00  0.00    +0.000 A 
ATOM     13  C   UNL     1       0.643  10.225  22.334  0.00  0.00    +0.000 A 
ATOM     14  C   UNL     1      -0.386  11.097  21.956  0.00  0.00    +0.000 A 
ATOM     15  C   UNL     1      -0.816  11.062  20.618  0.00  0.00    +0.000 A 
ATOM     16  C   UNL     1      -0.227  10.203  19.681  0.00  0.00    +0.000 A 
ATOM     17 BR   UNL     1      -1.082  10.144  17.977  0.00  0.00    +0.000 Br
BRANCH  14  18
ATOM     18  C   UNL     1      -1.007  12.040  22.979  0.00  0.00    +0.000 C 
ATOM     19  C   UNL     1      -0.822  13.512  22.596  0.00  0.00    +0.000 C 
ATOM     20  C   UNL     1      -2.498  11.782  23.240  0.00  0.00    +0.000 C 
ENDBRANCH  14  18
ENDBRANCH  10  11
BRANCH   1  21
ATOM     21  O   UNL     1       3.987   5.236  17.057  0.00  0.00    +0.000 OA
BRANCH  21  22
ATOM     22  C   UNL     1       4.947   6.215  16.575  0.00  0.00    +0.000 C 
BRANCH  22  23
ATOM     23  C   UNL     1       5.814   5.703  15.382  0.00  0.00    +0.000 C 
ATOM     24  C   UNL     1       5.525   4.305  14.847  0.00  0.00    +0.000 C 
ENDBRANCH  22  23
BRANCH  22  25
ATOM     25  C   UNL     1       5.822   6.596  17.798  0.00  0.00    +0.000 C 
BRANCH  25  26
ATOM     26  C   UNL     1       7.260   7.025  17.479  0.00  0.00    +0.000 C 
BRANCH  26  28
ATOM     27  C   UNL     1       7.990   5.734  19.474  0.00  0.00    +0.000 C 
ATOM     28  C   UNL     1       8.246   6.991  18.646  0.00  0.00    +0.000 C 
ENDBRANCH  26  28
ENDBRANCH  25  26
ENDBRANCH  22  25
ENDBRANCH  21  22
ENDBRANCH   1  21
TORSDOF 8
ENDMDL
