MODEL 1
REMARK VINA RESULT:      -7.1      0.000      0.000
REMARK  Name = 
REMARK  3 active torsions:
REMARK  status: ('A' for Active; 'I' for Inactive)
REMARK    1  A    between atoms: C_1  and  C_2
REMARK    2  A    between atoms: C_7  and  C_8
REMARK    3  A    between atoms: C_8  and  O_10
REMARK                            x       y       z     vdW  Elec       q    Type
REMARK                         _______ _______ _______ _____ _____    ______ ____
ROOT
ATOM      1  C   UNL     1       7.819   7.171  17.619  0.00  0.00    +0.000 C 
ATOM      2  C   UNL     1       6.697   6.243  18.071  0.00  0.00    +0.000 C 
ATOM      3  S   UNL     1       5.137   6.805  17.328  0.00  0.00    +0.000 S 
ATOM      4  C   UNL     1       4.100   5.434  17.785  0.00  0.00    +0.000 A 
ATOM      5  C   UNL     1       2.717   5.642  17.830  0.00  0.00    +0.000 A 
ATOM      6  C   UNL     1       1.852   4.582  18.112  0.00  0.00    +0.000 A 
ATOM      7  C   UNL     1       2.361   3.300  18.341  0.00  0.00    +0.000 A 
ATOM      8  C   UNL     1       3.747   3.086  18.307  0.00  0.00    +0.000 A 
ATOM      9  C   UNL     1       4.614   4.151  18.020  0.00  0.00    +0.000 A 
ATOM     10  N   UNL     1       5.986   3.868  17.911  0.00  0.00    +0.000 N 
ATOM     11  C   UNL     1       6.993   4.786  17.739  0.00  0.00    +0.000 C 
ATOM     12  O   UNL     1       8.119   4.373  17.461  0.00  0.00    +0.000 OA
ATOM     13  H   UNL     1       6.295   2.906  17.855  0.00  0.00    +0.000 HD
ENDROOT
BRANCH   7  14
ATOM     14  C   UNL     1       1.392   2.220  18.659  0.00  0.00    +0.000 C 
ATOM     15  O   UNL     1       0.190   2.351  18.503  0.00  0.00    +0.000 OA
BRANCH  14  16
ATOM     16  O   UNL     1       1.955   1.077  19.100  0.00  0.00    +0.000 OA
ATOM     17  H   UNL     1       1.359   0.462  19.562  0.00  0.00    +0.000 HD
ENDBRANCH  14  16
ENDBRANCH   7  14
TORSDOF 2
ENDMDL
MODEL 2
REMARK VINA RESULT:      -7.1      2.305      5.277
REMARK  Name = 
REMARK  3 active torsions:
REMARK  status: ('A' for Active; 'I' for Inactive)
REMARK    1  A    between atoms: C_1  and  C_2
REMARK    2  A    between atoms: C_7  and  C_8
REMARK    3  A    between atoms: C_8  and  O_10
REMARK                            x       y       z     vdW  Elec       q    Type
REMARK                         _______ _______ _______ _____ _____    ______ ____
ROOT
ATOM      1  C   UNL     1       0.979   4.182  20.369  0.00  0.00    +0.000 C 
ATOM      2  C   UNL     1       1.841   4.227  19.113  0.00  0.00    +0.000 C 
ATOM      3  S   UNL     1       2.967   5.651  19.225  0.00  0.00    +0.000 S 
ATOM      4  C   UNL     1       3.995   5.305  17.816  0.00  0.00    +0.000 A 
ATOM      5  C   UNL     1       4.701   6.367  17.240  0.00  0.00    +0.000 A 
ATOM      6  C   UNL     1       5.578   6.140  16.179  0.00  0.00    +0.000 A 
ATOM      7  C   UNL     1       5.768   4.845  15.687  0.00  0.00    +0.000 A 
ATOM      8  C   UNL     1       5.058   3.776  16.253  0.00  0.00    +0.000 A 
ATOM      9  C   UNL     1       4.179   4.006  17.322  0.00  0.00    +0.000 A 
ATOM     10  N   UNL     1       3.557   2.892  17.910  0.00  0.00    +0.000 N 
ATOM     11  C   UNL     1       2.596   2.922  18.892  0.00  0.00    +0.000 C 
ATOM     12  O   UNL     1       2.293   1.865  19.445  0.00  0.00    +0.000 OA
ATOM     13  H   UNL     1       3.886   1.960  17.688  0.00  0.00    +0.000 HD
ENDROOT
BRANCH   7  14
ATOM     14  C   UNL     1       6.697   4.671  14.541  0.00  0.00    +0.000 C 
ATOM     15  O   UNL     1       7.599   5.456  14.304  0.00  0.00    +0.000 OA
BRANCH  14  16
ATOM     16  O   UNL     1       6.480   3.559  13.810  0.00  0.00    +0.000 OA
ATOM     17  H   UNL     1       6.653   2.714  14.262  0.00  0.00    +0.000 HD
ENDBRANCH  14  16
ENDBRANCH   7  14
TORSDOF 2
ENDMDL
MODEL 3
REMARK VINA RESULT:      -7.0      1.884      2.252
REMARK  Name = 
REMARK  3 active torsions:
REMARK  status: ('A' for Active; 'I' for Inactive)
REMARK    1  A    between atoms: C_1  and  C_2
REMARK    2  A    between atoms: C_7  and  C_8
REMARK    3  A    between atoms: C_8  and  O_10
REMARK                            x       y       z     vdW  Elec       q    Type
REMARK                         _______ _______ _______ _____ _____    ______ ____
ROOT
ATOM      1  C   UNL     1       7.198   5.148  15.061  0.00  0.00    +0.000 C 
ATOM      2  C   UNL     1       6.248   4.996  16.244  0.00  0.00    +0.000 C 
ATOM      3  S   UNL     1       4.817   4.004  15.722  0.00  0.00    +0.000 S 
ATOM      4  C   UNL     1       4.050   3.765  17.309  0.00  0.00    +0.000 A 
ATOM      5  C   UNL     1       2.685   3.459  17.340  0.00  0.00    +0.000 A 
ATOM      6  C   UNL     1       2.048   3.190  18.553  0.00  0.00    +0.000 A 
ATOM      7  C   UNL     1       2.773   3.214  19.749  0.00  0.00    +0.000 A 
ATOM      8  C   UNL     1       4.139   3.530  19.727  0.00  0.00    +0.000 A 
ATOM      9  C   UNL     1       4.778   3.796  18.507  0.00  0.00    +0.000 A 
ATOM     10  N   UNL     1       6.165   4.021  18.528  0.00  0.00    +0.000 N 
ATOM     11  C   UNL     1       6.944   4.395  17.460  0.00  0.00    +0.000 C 
ATOM     12  O   UNL     1       8.167   4.359  17.588  0.00  0.00    +0.000 OA
ATOM     13  H   UNL     1       6.693   3.807  19.365  0.00  0.00    +0.000 HD
ENDROOT
BRANCH   7  14
ATOM     14  C   UNL     1       2.034   2.943  21.008  0.00  0.00    +0.000 C 
ATOM     15  O   UNL     1       2.599   2.700  22.061  0.00  0.00    +0.000 OA
BRANCH  14  16
ATOM     16  O   UNL     1       0.692   3.022  20.897  0.00  0.00    +0.000 OA
ATOM     17  H   UNL     1       0.195   2.994  21.733  0.00  0.00    +0.000 HD
ENDBRANCH  14  16
ENDBRANCH   7  14
TORSDOF 2
ENDMDL
MODEL 4
REMARK VINA RESULT:      -6.8      1.483      1.670
REMARK  Name = 
REMARK  3 active torsions:
REMARK  status: ('A' for Active; 'I' for Inactive)
REMARK    1  A    between atoms: C_1  and  C_2
REMARK    2  A    between atoms: C_7  and  C_8
REMARK    3  A    between atoms: C_8  and  O_10
REMARK                            x       y       z     vdW  Elec       q    Type
REMARK                         _______ _______ _______ _____ _____    ______ ____
ROOT
ATOM      1  C   UNL     1       7.450   6.825  16.766  0.00  0.00    +0.000 C 
ATOM      2  C   UNL     1       6.476   6.214  17.767  0.00  0.00    +0.000 C 
ATOM      3  S   UNL     1       4.798   6.284  17.071  0.00  0.00    +0.000 S 
ATOM      4  C   UNL     1       3.952   5.294  18.283  0.00  0.00    +0.000 A 
ATOM      5  C   UNL     1       2.569   5.456  18.414  0.00  0.00    +0.000 A 
ATOM      6  C   UNL     1       1.844   4.653  19.297  0.00  0.00    +0.000 A 
ATOM      7  C   UNL     1       2.494   3.672  20.052  0.00  0.00    +0.000 A 
ATOM      8  C   UNL     1       3.882   3.510  19.932  0.00  0.00    +0.000 A 
ATOM      9  C   UNL     1       4.608   4.315  19.042  0.00  0.00    +0.000 A 
ATOM     10  N   UNL     1       5.981   4.056  18.894  0.00  0.00    +0.000 N 
ATOM     11  C   UNL     1       6.873   4.794  18.154  0.00  0.00    +0.000 C 
ATOM     12  O   UNL     1       7.996   4.331  17.959  0.00  0.00    +0.000 OA
ATOM     13  H   UNL     1       6.372   3.203  19.274  0.00  0.00    +0.000 HD
ENDROOT
BRANCH   7  14
ATOM     14  C   UNL     1       1.672   2.867  20.991  0.00  0.00    +0.000 C 
ATOM     15  O   UNL     1       2.134   2.363  22.000  0.00  0.00    +0.000 OA
BRANCH  14  16
ATOM     16  O   UNL     1       0.370   2.771  20.652  0.00  0.00    +0.000 OA
ATOM     17  H   UNL     1      -0.008   3.546  20.200  0.00  0.00    +0.000 HD
ENDBRANCH  14  16
ENDBRANCH   7  14
TORSDOF 2
ENDMDL
MODEL 5
REMARK VINA RESULT:      -6.8      2.372      5.534
REMARK  Name = 
REMARK  3 active torsions:
REMARK  status: ('A' for Active; 'I' for Inactive)
REMARK    1  A    between atoms: C_1  and  C_2
REMARK    2  A    between atoms: C_7  and  C_8
REMARK    3  A    between atoms: C_8  and  O_10
REMARK                            x       y       z     vdW  Elec       q    Type
REMARK                         _______ _______ _______ _____ _____    ______ ____
ROOT
ATOM      1  C   UNL     1       1.090   3.550  20.739  0.00  0.00    +0.000 C 
ATOM      2  C   UNL     1       1.990   3.931  19.569  0.00  0.00    +0.000 C 
ATOM      3  S   UNL     1       3.722   3.861  20.115  0.00  0.00    +0.000 S 
ATOM      4  C   UNL     1       4.520   4.073  18.539  0.00  0.00    +0.000 A 
ATOM      5  C   UNL     1       5.836   4.547  18.526  0.00  0.00    +0.000 A 
ATOM      6  C   UNL     1       6.534   4.662  17.323  0.00  0.00    +0.000 A 
ATOM      7  C   UNL     1       5.926   4.296  16.118  0.00  0.00    +0.000 A 
ATOM      8  C   UNL     1       4.603   3.829  16.122  0.00  0.00    +0.000 A 
ATOM      9  C   UNL     1       3.905   3.710  17.332  0.00  0.00    +0.000 A 
ATOM     10  N   UNL     1       2.614   3.156  17.293  0.00  0.00    +0.000 N 
ATOM     11  C   UNL     1       1.742   3.053  18.348  0.00  0.00    +0.000 C 
ATOM     12  O   UNL     1       0.730   2.367  18.206  0.00  0.00    +0.000 OA
ATOM     13  H   UNL     1       2.295   2.694  16.451  0.00  0.00    +0.000 HD
ENDROOT
BRANCH   7  14
ATOM     14  C   UNL     1       6.713   4.464  14.869  0.00  0.00    +0.000 C 
ATOM     15  O   UNL     1       7.561   5.330  14.741  0.00  0.00    +0.000 OA
BRANCH  14  16
ATOM     16  O   UNL     1       6.434   3.560  13.908  0.00  0.00    +0.000 OA
ATOM     17  H   UNL     1       5.615   3.050  14.031  0.00  0.00    +0.000 HD
ENDBRANCH  14  16
ENDBRANCH   7  14
TORSDOF 2
ENDMDL
MODEL 6
REMARK VINA RESULT:      -6.7      2.425      5.343
REMARK  Name = 
REMARK  3 active torsions:
REMARK  status: ('A' for Active; 'I' for Inactive)
REMARK    1  A    between atoms: C_1  and  C_2
REMARK    2  A    between atoms: C_7  and  C_8
REMARK    3  A    between atoms: C_8  and  O_10
REMARK                            x       y       z     vdW  Elec       q    Type
REMARK                         _______ _______ _______ _____ _____    ______ ____
ROOT
ATOM      1  C   UNL     1       1.580   2.602  21.197  0.00  0.00    +0.000 C 
ATOM      2  C   UNL     1       2.547   3.034  20.100  0.00  0.00    +0.000 C 
ATOM      3  S   UNL     1       2.387   4.828  19.851  0.00  0.00    +0.000 S 
ATOM      4  C   UNL     1       3.768   5.082  18.760  0.00  0.00    +0.000 A 
ATOM      5  C   UNL     1       3.760   6.218  17.942  0.00  0.00    +0.000 A 
ATOM      6  C   UNL     1       4.852   6.505  17.121  0.00  0.00    +0.000 A 
ATOM      7  C   UNL     1       5.969   5.664  17.116  0.00  0.00    +0.000 A 
ATOM      8  C   UNL     1       5.981   4.519  17.926  0.00  0.00    +0.000 A 
ATOM      9  C   UNL     1       4.885   4.234  18.753  0.00  0.00    +0.000 A 
ATOM     10  N   UNL     1       4.981   3.124  19.609  0.00  0.00    +0.000 N 
ATOM     11  C   UNL     1       3.983   2.629  20.413  0.00  0.00    +0.000 C 
ATOM     12  O   UNL     1       4.275   1.778  21.252  0.00  0.00    +0.000 OA
ATOM     13  H   UNL     1       5.878   2.677  19.749  0.00  0.00    +0.000 HD
ENDROOT
BRANCH   7  14
ATOM     14  C   UNL     1       7.088   6.011  16.203  0.00  0.00    +0.000 C 
ATOM     15  O   UNL     1       7.323   5.382  15.185  0.00  0.00    +0.000 OA
BRANCH  14  16
ATOM     16  O   UNL     1       7.797   7.096  16.575  0.00  0.00    +0.000 OA
ATOM     17  H   UNL     1       8.734   6.937  16.789  0.00  0.00    +0.000 HD
ENDBRANCH  14  16
ENDBRANCH   7  14
TORSDOF 2
ENDMDL
MODEL 7
REMARK VINA RESULT:      -6.3      2.314      5.804
REMARK  Name = 
REMARK  3 active torsions:
REMARK  status: ('A' for Active; 'I' for Inactive)
REMARK    1  A    between atoms: C_1  and  C_2
REMARK    2  A    between atoms: C_7  and  C_8
REMARK    3  A    between atoms: C_8  and  O_10
REMARK                            x       y       z     vdW  Elec       q    Type
REMARK                         _______ _______ _______ _____ _____    ______ ____
ROOT
ATOM      1  C   UNL     1       0.743   2.276  19.230  0.00  0.00    +0.000 C 
ATOM      2  C   UNL     1       2.120   2.925  19.162  0.00  0.00    +0.000 C 
ATOM      3  S   UNL     1       2.589   3.125  17.418  0.00  0.00    +0.000 S 
ATOM      4  C   UNL     1       4.051   4.116  17.634  0.00  0.00    +0.000 A 
ATOM      5  C   UNL     1       4.999   4.122  16.605  0.00  0.00    +0.000 A 
ATOM      6  C   UNL     1       6.129   4.938  16.690  0.00  0.00    +0.000 A 
ATOM      7  C   UNL     1       6.317   5.766  17.801  0.00  0.00    +0.000 A 
ATOM      8  C   UNL     1       5.376   5.758  18.840  0.00  0.00    +0.000 A 
ATOM      9  C   UNL     1       4.240   4.940  18.752  0.00  0.00    +0.000 A 
ATOM     10  N   UNL     1       3.283   5.033  19.777  0.00  0.00    +0.000 N 
ATOM     11  C   UNL     1       2.165   4.248  19.919  0.00  0.00    +0.000 C 
ATOM     12  O   UNL     1       1.320   4.578  20.751  0.00  0.00    +0.000 OA
ATOM     13  H   UNL     1       3.334   5.797  20.440  0.00  0.00    +0.000 HD
ENDROOT
BRANCH   7  14
ATOM     14  C   UNL     1       7.551   6.592  17.843  0.00  0.00    +0.000 C 
ATOM     15  O   UNL     1       7.907   7.287  16.907  0.00  0.00    +0.000 OA
BRANCH  14  16
ATOM     16  O   UNL     1       8.220   6.536  19.013  0.00  0.00    +0.000 OA
ATOM     17  H   UNL     1       8.222   5.671  19.459  0.00  0.00    +0.000 HD
ENDBRANCH  14  16
ENDBRANCH   7  14
TORSDOF 2
ENDMDL
MODEL 8
REMARK VINA RESULT:      -6.3      2.509      5.452
REMARK  Name = 
REMARK  3 active torsions:
REMARK  status: ('A' for Active; 'I' for Inactive)
REMARK    1  A    between atoms: C_1  and  C_2
REMARK    2  A    between atoms: C_7  and  C_8
REMARK    3  A    between atoms: C_8  and  O_10
REMARK                            x       y       z     vdW  Elec       q    Type
REMARK                         _______ _______ _______ _____ _____    ______ ____
ROOT
ATOM      1  C   UNL     1       2.030   4.781  20.595  0.00  0.00    +0.000 C 
ATOM      2  C   UNL     1       2.761   4.945  19.268  0.00  0.00    +0.000 C 
ATOM      3  S   UNL     1       4.535   5.161  19.597  0.00  0.00    +0.000 S 
ATOM      4  C   UNL     1       5.144   5.053  17.929  0.00  0.00    +0.000 A 
ATOM      5  C   UNL     1       6.391   5.623  17.647  0.00  0.00    +0.000 A 
ATOM      6  C   UNL     1       6.949   5.504  16.373  0.00  0.00    +0.000 A 
ATOM      7  C   UNL     1       6.270   4.805  15.369  0.00  0.00    +0.000 A 
ATOM      8  C   UNL     1       5.016   4.240  15.642  0.00  0.00    +0.000 A 
ATOM      9  C   UNL     1       4.458   4.357  16.924  0.00  0.00    +0.000 A 
ATOM     10  N   UNL     1       3.242   3.700  17.172  0.00  0.00    +0.000 N 
ATOM     11  C   UNL     1       2.495   3.779  18.322  0.00  0.00    +0.000 C 
ATOM     12  O   UNL     1       1.559   2.994  18.467  0.00  0.00    +0.000 OA
ATOM     13  H   UNL     1       2.895   3.022  16.505  0.00  0.00    +0.000 HD
ENDROOT
BRANCH   7  14
ATOM     14  C   UNL     1       6.906   4.734  14.028  0.00  0.00    +0.000 C 
ATOM     15  O   UNL     1       6.502   3.992  13.150  0.00  0.00    +0.000 OA
BRANCH  14  16
ATOM     16  O   UNL     1       7.939   5.583  13.855  0.00  0.00    +0.000 OA
ATOM     17  H   UNL     1       8.365   5.559  12.980  0.00  0.00    +0.000 HD
ENDBRANCH  14  16
ENDBRANCH   7  14
TORSDOF 2
ENDMDL
MODEL 9
REMARK VINA RESULT:      -6.3      2.793      5.700
REMARK  Name = 
REMARK  3 active torsions:
REMARK  status: ('A' for Active; 'I' for Inactive)
REMARK    1  A    between atoms: C_1  and  C_2
REMARK    2  A    between atoms: C_7  and  C_8
REMARK    3  A    between atoms: C_8  and  O_10
REMARK                            x       y       z     vdW  Elec       q    Type
REMARK                         _______ _______ _______ _____ _____    ______ ____
ROOT
ATOM      1  C   UNL     1       1.154   2.992  21.057  0.00  0.00    +0.000 C 
ATOM      2  C   UNL     1       2.411   3.538  20.389  0.00  0.00    +0.000 C 
ATOM      3  S   UNL     1       2.496   2.898  18.689  0.00  0.00    +0.000 S 
ATOM      4  C   UNL     1       3.854   3.879  18.090  0.00  0.00    +0.000 A 
ATOM      5  C   UNL     1       4.571   3.404  16.986  0.00  0.00    +0.000 A 
ATOM      6  C   UNL     1       5.599   4.168  16.430  0.00  0.00    +0.000 A 
ATOM      7  C   UNL     1       5.914   5.420  16.965  0.00  0.00    +0.000 A 
ATOM      8  C   UNL     1       5.207   5.898  18.078  0.00  0.00    +0.000 A 
ATOM      9  C   UNL     1       4.172   5.131  18.634  0.00  0.00    +0.000 A 
ATOM     10  N   UNL     1       3.436   5.691  19.692  0.00  0.00    +0.000 N 
ATOM     11  C   UNL     1       2.462   5.061  20.426  0.00  0.00    +0.000 C 
ATOM     12  O   UNL     1       1.770   5.740  21.185  0.00  0.00    +0.000 OA
ATOM     13  H   UNL     1       3.535   6.676  19.903  0.00  0.00    +0.000 HD
ENDROOT
BRANCH   7  14
ATOM     14  C   UNL     1       7.034   6.174  16.344  0.00  0.00    +0.000 C 
ATOM     15  O   UNL     1       7.603   5.790  15.337  0.00  0.00    +0.000 OA
BRANCH  14  16
ATOM     16  O   UNL     1       7.341   7.330  16.966  0.00  0.00    +0.000 OA
ATOM     17  H   UNL     1       7.941   7.254  17.729  0.00  0.00    +0.000 HD
ENDBRANCH  14  16
ENDBRANCH   7  14
TORSDOF 2
ENDMDL
