MODEL 1
REMARK VINA RESULT:      -7.1      0.000      0.000
REMARK  Name = 
REMARK  3 active torsions:
REMARK  status: ('A' for Active; 'I' for Inactive)
REMARK    1  A    between atoms: C_4  and  C_5
REMARK    2  A    between atoms: C_8  and  O_9
REMARK    3  A    between atoms: N_15  and  C_16
REMARK                            x       y       z     vdW  Elec       q    Type
REMARK                         _______ _______ _______ _____ _____    ______ ____
ROOT
ATOM      1  O   UNL     1       3.913   6.814  18.470  0.00  0.00    +0.000 OA
ATOM      2  C   UNL     1       3.620   5.756  19.006  0.00  0.00    +0.000 C 
ATOM      3  C   UNL     1       2.553   5.615  20.044  0.00  0.00    +0.000 C 
ATOM      4  C   UNL     1       1.688   6.562  20.444  0.00  0.00    +0.000 C 
ATOM      5  S   UNL     1       2.527   3.997  20.636  0.00  0.00    +0.000 S 
ATOM      6  C   UNL     1       3.768   3.453  19.503  0.00  0.00    +0.000 C 
ATOM      7  S   UNL     1       4.331   1.880  19.527  0.00  0.00    +0.000 S 
ATOM      8  N   UNL     1       4.190   4.521  18.731  0.00  0.00    +0.000 N 
ENDROOT
BRANCH   4   9
ATOM      9  C   UNL     1       1.618   7.900  19.852  0.00  0.00    +0.000 A 
ATOM     10  C   UNL     1       1.330   9.004  20.667  0.00  0.00    +0.000 A 
ATOM     11  C   UNL     1       1.111  10.262  20.100  0.00  0.00    +0.000 A 
ATOM     12  C   UNL     1       1.202  10.413  18.721  0.00  0.00    +0.000 A 
ATOM     13  C   UNL     1       1.533   9.336  17.905  0.00  0.00    +0.000 A 
ATOM     14  C   UNL     1       1.740   8.077  18.470  0.00  0.00    +0.000 A 
BRANCH  12  15
ATOM     15  O   UNL     1       0.955  11.612  18.122  0.00  0.00    +0.000 OA
ATOM     16  H   UNL     1       0.111  11.550  17.645  0.00  0.00    +0.000 HD
ENDBRANCH  12  15
ENDBRANCH   4   9
BRANCH   8  17
ATOM     17  C   UNL     1       5.176   4.445  17.708  0.00  0.00    +0.000 A 
ATOM     18  C   UNL     1       4.831   4.225  16.373  0.00  0.00    +0.000 A 
ATOM     19  C   UNL     1       5.825   4.248  15.394  0.00  0.00    +0.000 A 
ATOM     20  C   UNL     1       7.136   4.470  15.782  0.00  0.00    +0.000 A 
ATOM     21  N   UNL     1       7.509   4.688  17.060  0.00  0.00    +0.000 NA
ATOM     22  C   UNL     1       6.521   4.695  17.987  0.00  0.00    +0.000 A 
ENDBRANCH   8  17
TORSDOF 3
ENDMDL
MODEL 2
REMARK VINA RESULT:      -6.9      9.121     11.191
REMARK  Name = 
REMARK  3 active torsions:
REMARK  status: ('A' for Active; 'I' for Inactive)
REMARK    1  A    between atoms: C_4  and  C_5
REMARK    2  A    between atoms: C_8  and  O_9
REMARK    3  A    between atoms: N_15  and  C_16
REMARK                            x       y       z     vdW  Elec       q    Type
REMARK                         _______ _______ _______ _____ _____    ______ ____
ROOT
ATOM      1  O   UNL     1       8.552  13.854  20.084  0.00  0.00    +0.000 OA
ATOM      2  C   UNL     1       8.139  13.486  21.173  0.00  0.00    +0.000 C 
ATOM      3  C   UNL     1       8.465  12.160  21.783  0.00  0.00    +0.000 C 
ATOM      4  C   UNL     1       9.336  11.250  21.315  0.00  0.00    +0.000 C 
ATOM      5  S   UNL     1       7.599  11.970  23.260  0.00  0.00    +0.000 S 
ATOM      6  C   UNL     1       6.916  13.598  23.189  0.00  0.00    +0.000 C 
ATOM      7  S   UNL     1       5.855  14.142  24.359  0.00  0.00    +0.000 S 
ATOM      8  N   UNL     1       7.337  14.226  22.030  0.00  0.00    +0.000 N 
ENDROOT
BRANCH   4   9
ATOM      9  C   UNL     1      10.172  11.461  20.131  0.00  0.00    +0.000 A 
ATOM     10  C   UNL     1      11.416  12.096  20.265  0.00  0.00    +0.000 A 
ATOM     11  C   UNL     1      12.158  12.440  19.134  0.00  0.00    +0.000 A 
ATOM     12  C   UNL     1      11.662  12.130  17.872  0.00  0.00    +0.000 A 
ATOM     13  C   UNL     1      10.452  11.459  17.726  0.00  0.00    +0.000 A 
ATOM     14  C   UNL     1       9.704  11.125  18.857  0.00  0.00    +0.000 A 
BRANCH  12  15
ATOM     15  O   UNL     1      12.333  12.484  16.740  0.00  0.00    +0.000 OA
ATOM     16  H   UNL     1      12.764  13.341  16.894  0.00  0.00    +0.000 HD
ENDBRANCH  12  15
ENDBRANCH   4   9
BRANCH   8  17
ATOM     17  C   UNL     1       6.987  15.551  21.650  0.00  0.00    +0.000 A 
ATOM     18  C   UNL     1       5.781  15.834  21.005  0.00  0.00    +0.000 A 
ATOM     19  C   UNL     1       5.441  17.160  20.733  0.00  0.00    +0.000 A 
ATOM     20  C   UNL     1       6.327  18.161  21.096  0.00  0.00    +0.000 A 
ATOM     21  N   UNL     1       7.501  17.929  21.721  0.00  0.00    +0.000 NA
ATOM     22  C   UNL     1       7.791  16.636  22.005  0.00  0.00    +0.000 A 
ENDBRANCH   8  17
TORSDOF 3
ENDMDL
MODEL 3
REMARK VINA RESULT:      -6.9      3.941      7.554
REMARK  Name = 
REMARK  3 active torsions:
REMARK  status: ('A' for Active; 'I' for Inactive)
REMARK    1  A    between atoms: C_4  and  C_5
REMARK    2  A    between atoms: C_8  and  O_9
REMARK    3  A    between atoms: N_15  and  C_16
REMARK                            x       y       z     vdW  Elec       q    Type
REMARK                         _______ _______ _______ _____ _____    ______ ____
ROOT
ATOM      1  O   UNL     1       1.416   7.087  21.076  0.00  0.00    +0.000 OA
ATOM      2  C   UNL     1       1.628   7.777  20.091  0.00  0.00    +0.000 C 
ATOM      3  C   UNL     1       2.290   7.275  18.848  0.00  0.00    +0.000 C 
ATOM      4  C   UNL     1       2.627   6.004  18.572  0.00  0.00    +0.000 C 
ATOM      5  S   UNL     1       2.514   8.575  17.741  0.00  0.00    +0.000 S 
ATOM      6  C   UNL     1       1.670   9.735  18.772  0.00  0.00    +0.000 C 
ATOM      7  S   UNL     1       1.525  11.340  18.331  0.00  0.00    +0.000 S 
ATOM      8  N   UNL     1       1.273   9.110  19.941  0.00  0.00    +0.000 N 
ENDROOT
BRANCH   4   9
ATOM      9  C   UNL     1       2.321   4.874  19.453  0.00  0.00    +0.000 A 
ATOM     10  C   UNL     1       1.092   4.210  19.327  0.00  0.00    +0.000 A 
ATOM     11  C   UNL     1       0.721   3.232  20.253  0.00  0.00    +0.000 A 
ATOM     12  C   UNL     1       1.591   2.908  21.289  0.00  0.00    +0.000 A 
ATOM     13  C   UNL     1       2.832   3.525  21.398  0.00  0.00    +0.000 A 
ATOM     14  C   UNL     1       3.199   4.511  20.480  0.00  0.00    +0.000 A 
BRANCH  12  15
ATOM     15  O   UNL     1       1.251   1.990  22.237  0.00  0.00    +0.000 OA
ATOM     16  H   UNL     1       0.312   1.766  22.126  0.00  0.00    +0.000 HD
ENDBRANCH  12  15
ENDBRANCH   4   9
BRANCH   8  17
ATOM     17  C   UNL     1       0.559   9.741  20.998  0.00  0.00    +0.000 A 
ATOM     18  C   UNL     1      -0.520  10.592  20.747  0.00  0.00    +0.000 A 
ATOM     19  C   UNL     1      -1.245  11.117  21.818  0.00  0.00    +0.000 A 
ATOM     20  C   UNL     1      -0.856  10.790  23.107  0.00  0.00    +0.000 A 
ATOM     21  N   UNL     1       0.178   9.971  23.390  0.00  0.00    +0.000 NA
ATOM     22  C   UNL     1       0.844   9.448  22.333  0.00  0.00    +0.000 A 
ENDBRANCH   8  17
TORSDOF 3
ENDMDL
MODEL 4
REMARK VINA RESULT:      -6.9      9.217     11.286
REMARK  Name = 
REMARK  3 active torsions:
REMARK  status: ('A' for Active; 'I' for Inactive)
REMARK    1  A    between atoms: C_4  and  C_5
REMARK    2  A    between atoms: C_8  and  O_9
REMARK    3  A    between atoms: N_15  and  C_16
REMARK                            x       y       z     vdW  Elec       q    Type
REMARK                         _______ _______ _______ _____ _____    ______ ____
ROOT
ATOM      1  O   UNL     1       8.633  13.930  20.209  0.00  0.00    +0.000 OA
ATOM      2  C   UNL     1       8.204  13.538  21.283  0.00  0.00    +0.000 C 
ATOM      3  C   UNL     1       8.454  12.170  21.831  0.00  0.00    +0.000 C 
ATOM      4  C   UNL     1       9.267  11.232  21.317  0.00  0.00    +0.000 C 
ATOM      5  S   UNL     1       7.585  11.965  23.305  0.00  0.00    +0.000 S 
ATOM      6  C   UNL     1       6.999  13.632  23.311  0.00  0.00    +0.000 C 
ATOM      7  S   UNL     1       5.978  14.185  24.513  0.00  0.00    +0.000 S 
ATOM      8  N   UNL     1       7.452  14.285  22.179  0.00  0.00    +0.000 N 
ENDROOT
BRANCH   4   9
ATOM      9  C   UNL     1      10.109  11.446  20.137  0.00  0.00    +0.000 A 
ATOM     10  C   UNL     1      11.387  12.002  20.290  0.00  0.00    +0.000 A 
ATOM     11  C   UNL     1      12.143  12.353  19.169  0.00  0.00    +0.000 A 
ATOM     12  C   UNL     1      11.623  12.126  17.899  0.00  0.00    +0.000 A 
ATOM     13  C   UNL     1      10.377  11.533  17.732  0.00  0.00    +0.000 A 
ATOM     14  C   UNL     1       9.616  11.194  18.853  0.00  0.00    +0.000 A 
BRANCH  12  15
ATOM     15  O   UNL     1      12.309  12.491  16.778  0.00  0.00    +0.000 OA
ATOM     16  H   UNL     1      13.148  12.897  17.050  0.00  0.00    +0.000 HD
ENDBRANCH  12  15
ENDBRANCH   4   9
BRANCH   8  17
ATOM     17  C   UNL     1       7.179  15.645  21.861  0.00  0.00    +0.000 A 
ATOM     18  C   UNL     1       8.048  16.673  22.234  0.00  0.00    +0.000 A 
ATOM     19  C   UNL     1       7.782  17.979  21.822  0.00  0.00    +0.000 A 
ATOM     20  C   UNL     1       6.645  18.222  21.068  0.00  0.00    +0.000 A 
ATOM     21  N   UNL     1       5.783  17.256  20.688  0.00  0.00    +0.000 NA
ATOM     22  C   UNL     1       6.081  15.991  21.071  0.00  0.00    +0.000 A 
ENDBRANCH   8  17
TORSDOF 3
ENDMDL
MODEL 5
REMARK VINA RESULT:      -6.8      9.200     11.253
REMARK  Name = 
REMARK  3 active torsions:
REMARK  status: ('A' for Active; 'I' for Inactive)
REMARK    1  A    between atoms: C_4  and  C_5
REMARK    2  A    between atoms: C_8  and  O_9
REMARK    3  A    between atoms: N_15  and  C_16
REMARK                            x       y       z     vdW  Elec       q    Type
REMARK                         _______ _______ _______ _____ _____    ______ ____
ROOT
ATOM      1  O   UNL     1       8.514  13.924  19.656  0.00  0.00    +0.000 OA
ATOM      2  C   UNL     1       8.301  13.659  20.829  0.00  0.00    +0.000 C 
ATOM      3  C   UNL     1       9.069  12.638  21.605  0.00  0.00    +0.000 C 
ATOM      4  C   UNL     1      10.159  11.966  21.196  0.00  0.00    +0.000 C 
ATOM      5  S   UNL     1       8.393  12.474  23.181  0.00  0.00    +0.000 S 
ATOM      6  C   UNL     1       7.220  13.771  22.925  0.00  0.00    +0.000 C 
ATOM      7  S   UNL     1       6.107  14.175  24.103  0.00  0.00    +0.000 S 
ATOM      8  N   UNL     1       7.353  14.267  21.640  0.00  0.00    +0.000 N 
ENDROOT
BRANCH   4   9
ATOM      9  C   UNL     1      10.816  12.195  19.907  0.00  0.00    +0.000 A 
ATOM     10  C   UNL     1      11.743  13.240  19.778  0.00  0.00    +0.000 A 
ATOM     11  C   UNL     1      12.266  13.569  18.526  0.00  0.00    +0.000 A 
ATOM     12  C   UNL     1      11.874  12.837  17.410  0.00  0.00    +0.000 A 
ATOM     13  C   UNL     1      10.992  11.769  17.531  0.00  0.00    +0.000 A 
ATOM     14  C   UNL     1      10.460  11.447  18.780  0.00  0.00    +0.000 A 
BRANCH  12  15
ATOM     15  O   UNL     1      12.328  13.149  16.163  0.00  0.00    +0.000 OA
ATOM     16  H   UNL     1      13.068  12.559  15.948  0.00  0.00    +0.000 HD
ENDBRANCH  12  15
ENDBRANCH   4   9
BRANCH   8  17
ATOM     17  C   UNL     1       6.575  15.325  21.093  0.00  0.00    +0.000 A 
ATOM     18  C   UNL     1       7.019  16.649  21.117  0.00  0.00    +0.000 A 
ATOM     19  C   UNL     1       6.263  17.639  20.488  0.00  0.00    +0.000 A 
ATOM     20  C   UNL     1       5.075  17.278  19.873  0.00  0.00    +0.000 A 
ATOM     21  N   UNL     1       4.614  16.010  19.827  0.00  0.00    +0.000 NA
ATOM     22  C   UNL     1       5.383  15.064  20.414  0.00  0.00    +0.000 A 
ENDBRANCH   8  17
TORSDOF 3
ENDMDL
MODEL 6
REMARK VINA RESULT:      -6.8      0.673      1.101
REMARK  Name = 
REMARK  3 active torsions:
REMARK  status: ('A' for Active; 'I' for Inactive)
REMARK    1  A    between atoms: C_4  and  C_5
REMARK    2  A    between atoms: C_8  and  O_9
REMARK    3  A    between atoms: N_15  and  C_16
REMARK                            x       y       z     vdW  Elec       q    Type
REMARK                         _______ _______ _______ _____ _____    ______ ____
ROOT
ATOM      1  O   UNL     1       3.773   7.060  18.667  0.00  0.00    +0.000 OA
ATOM      2  C   UNL     1       3.454   6.006  19.194  0.00  0.00    +0.000 C 
ATOM      3  C   UNL     1       2.343   5.872  20.186  0.00  0.00    +0.000 C 
ATOM      4  C   UNL     1       1.466   6.824  20.547  0.00  0.00    +0.000 C 
ATOM      5  S   UNL     1       2.287   4.257  20.783  0.00  0.00    +0.000 S 
ATOM      6  C   UNL     1       3.572   3.704  19.704  0.00  0.00    +0.000 C 
ATOM      7  S   UNL     1       4.128   2.129  19.758  0.00  0.00    +0.000 S 
ATOM      8  N   UNL     1       4.030   4.768  18.948  0.00  0.00    +0.000 N 
ENDROOT
BRANCH   4   9
ATOM      9  C   UNL     1       1.426   8.160  19.948  0.00  0.00    +0.000 A 
ATOM     10  C   UNL     1       1.203   9.279  20.763  0.00  0.00    +0.000 A 
ATOM     11  C   UNL     1       1.013  10.540  20.194  0.00  0.00    +0.000 A 
ATOM     12  C   UNL     1       1.066  10.679  18.812  0.00  0.00    +0.000 A 
ATOM     13  C   UNL     1       1.332   9.587  17.994  0.00  0.00    +0.000 A 
ATOM     14  C   UNL     1       1.511   8.324  18.561  0.00  0.00    +0.000 A 
BRANCH  12  15
ATOM     15  O   UNL     1       0.844  11.883  18.212  0.00  0.00    +0.000 OA
ATOM     16  H   UNL     1       0.392  12.464  18.847  0.00  0.00    +0.000 HD
ENDBRANCH  12  15
ENDBRANCH   4   9
BRANCH   8  17
ATOM     17  C   UNL     1       5.058   4.685  17.967  0.00  0.00    +0.000 A 
ATOM     18  C   UNL     1       6.404   4.849  18.301  0.00  0.00    +0.000 A 
ATOM     19  C   UNL     1       7.382   4.670  17.321  0.00  0.00    +0.000 A 
ATOM     20  C   UNL     1       6.983   4.353  16.033  0.00  0.00    +0.000 A 
ATOM     21  N   UNL     1       5.693   4.184  15.672  0.00  0.00    +0.000 NA
ATOM     22  C   UNL     1       4.766   4.329  16.649  0.00  0.00    +0.000 A 
ENDBRANCH   8  17
TORSDOF 3
ENDMDL
MODEL 7
REMARK VINA RESULT:      -6.8      9.303     11.296
REMARK  Name = 
REMARK  3 active torsions:
REMARK  status: ('A' for Active; 'I' for Inactive)
REMARK    1  A    between atoms: C_4  and  C_5
REMARK    2  A    between atoms: C_8  and  O_9
REMARK    3  A    between atoms: N_15  and  C_16
REMARK                            x       y       z     vdW  Elec       q    Type
REMARK                         _______ _______ _______ _____ _____    ______ ____
ROOT
ATOM      1  O   UNL     1       8.284  14.066  19.120  0.00  0.00    +0.000 OA
ATOM      2  C   UNL     1       8.065  14.066  20.322  0.00  0.00    +0.000 C 
ATOM      3  C   UNL     1       8.954  13.412  21.331  0.00  0.00    +0.000 C 
ATOM      4  C   UNL     1      10.156  12.856  21.106  0.00  0.00    +0.000 C 
ATOM      5  S   UNL     1       8.243  13.528  22.896  0.00  0.00    +0.000 S 
ATOM      6  C   UNL     1       6.886  14.503  22.320  0.00  0.00    +0.000 C 
ATOM      7  S   UNL     1       5.669  14.990  23.357  0.00  0.00    +0.000 S 
ATOM      8  N   UNL     1       6.994  14.683  20.953  0.00  0.00    +0.000 N 
ENDROOT
BRANCH   4   9
ATOM      9  C   UNL     1      10.825  12.870  19.803  0.00  0.00    +0.000 A 
ATOM     10  C   UNL     1      11.597  13.980  19.432  0.00  0.00    +0.000 A 
ATOM     11  C   UNL     1      12.117  14.078  18.139  0.00  0.00    +0.000 A 
ATOM     12  C   UNL     1      11.879  13.054  17.229  0.00  0.00    +0.000 A 
ATOM     13  C   UNL     1      11.155  11.926  17.598  0.00  0.00    +0.000 A 
ATOM     14  C   UNL     1      10.625  11.833  18.886  0.00  0.00    +0.000 A 
BRANCH  12  15
ATOM     15  O   UNL     1      12.332  13.128  15.946  0.00  0.00    +0.000 OA
ATOM     16  H   UNL     1      12.749  13.996  15.817  0.00  0.00    +0.000 HD
ENDBRANCH  12  15
ENDBRANCH   4   9
BRANCH   8  17
ATOM     17  C   UNL     1       6.079  15.426  20.156  0.00  0.00    +0.000 A 
ATOM     18  C   UNL     1       4.904  14.854  19.664  0.00  0.00    +0.000 A 
ATOM     19  C   UNL     1       3.995  15.647  18.963  0.00  0.00    +0.000 A 
ATOM     20  C   UNL     1       4.297  16.983  18.757  0.00  0.00    +0.000 A 
ATOM     21  N   UNL     1       5.421  17.573  19.218  0.00  0.00    +0.000 NA
ATOM     22  C   UNL     1       6.270  16.790  19.925  0.00  0.00    +0.000 A 
ENDBRANCH   8  17
TORSDOF 3
ENDMDL
MODEL 8
REMARK VINA RESULT:      -6.8      2.275      6.433
REMARK  Name = 
REMARK  3 active torsions:
REMARK  status: ('A' for Active; 'I' for Inactive)
REMARK    1  A    between atoms: C_4  and  C_5
REMARK    2  A    between atoms: C_8  and  O_9
REMARK    3  A    between atoms: N_15  and  C_16
REMARK                            x       y       z     vdW  Elec       q    Type
REMARK                         _______ _______ _______ _____ _____    ______ ____
ROOT
ATOM      1  O   UNL     1       3.986   6.063  16.856  0.00  0.00    +0.000 OA
ATOM      2  C   UNL     1       3.538   5.218  17.615  0.00  0.00    +0.000 C 
ATOM      3  C   UNL     1       3.888   3.766  17.545  0.00  0.00    +0.000 C 
ATOM      4  C   UNL     1       4.814   3.197  16.755  0.00  0.00    +0.000 C 
ATOM      5  S   UNL     1       2.962   2.887  18.703  0.00  0.00    +0.000 S 
ATOM      6  C   UNL     1       2.219   4.345  19.369  0.00  0.00    +0.000 C 
ATOM      7  S   UNL     1       1.085   4.256  20.592  0.00  0.00    +0.000 S 
ATOM      8  N   UNL     1       2.669   5.452  18.672  0.00  0.00    +0.000 N 
ENDROOT
BRANCH   4   9
ATOM      9  C   UNL     1       5.695   3.955  15.863  0.00  0.00    +0.000 A 
ATOM     10  C   UNL     1       5.445   3.962  14.484  0.00  0.00    +0.000 A 
ATOM     11  C   UNL     1       6.356   4.551  13.604  0.00  0.00    +0.000 A 
ATOM     12  C   UNL     1       7.504   5.149  14.111  0.00  0.00    +0.000 A 
ATOM     13  C   UNL     1       7.742   5.190  15.481  0.00  0.00    +0.000 A 
ATOM     14  C   UNL     1       6.838   4.591  16.360  0.00  0.00    +0.000 A 
BRANCH  12  15
ATOM     15  O   UNL     1       8.440   5.699  13.286  0.00  0.00    +0.000 OA
ATOM     16  H   UNL     1       9.292   5.264  13.455  0.00  0.00    +0.000 HD
ENDBRANCH  12  15
ENDBRANCH   4   9
BRANCH   8  17
ATOM     17  C   UNL     1       2.284   6.795  18.943  0.00  0.00    +0.000 A 
ATOM     18  C   UNL     1       2.082   7.721  17.917  0.00  0.00    +0.000 A 
ATOM     19  C   UNL     1       1.619   9.000  18.228  0.00  0.00    +0.000 A 
ATOM     20  C   UNL     1       1.391   9.321  19.556  0.00  0.00    +0.000 A 
ATOM     21  N   UNL     1       1.573   8.454  20.575  0.00  0.00    +0.000 NA
ATOM     22  C   UNL     1       1.990   7.209  20.244  0.00  0.00    +0.000 A 
ENDBRANCH   8  17
TORSDOF 3
ENDMDL
MODEL 9
REMARK VINA RESULT:      -6.7      7.863      9.546
REMARK  Name = 
REMARK  3 active torsions:
REMARK  status: ('A' for Active; 'I' for Inactive)
REMARK    1  A    between atoms: C_4  and  C_5
REMARK    2  A    between atoms: C_8  and  O_9
REMARK    3  A    between atoms: N_15  and  C_16
REMARK                            x       y       z     vdW  Elec       q    Type
REMARK                         _______ _______ _______ _____ _____    ______ ____
ROOT
ATOM      1  O   UNL     1      -0.352  13.677  18.124  0.00  0.00    +0.000 OA
ATOM      2  C   UNL     1      -0.092  13.802  19.312  0.00  0.00    +0.000 C 
ATOM      3  C   UNL     1      -0.755  13.016  20.397  0.00  0.00    +0.000 C 
ATOM      4  C   UNL     1      -1.613  11.994  20.243  0.00  0.00    +0.000 C 
ATOM      5  S   UNL     1      -0.204  13.566  21.934  0.00  0.00    +0.000 S 
ATOM      6  C   UNL     1       0.952  14.701  21.229  0.00  0.00    +0.000 C 
ATOM      7  S   UNL     1       1.887  15.694  22.194  0.00  0.00    +0.000 S 
ATOM      8  N   UNL     1       0.863  14.654  19.849  0.00  0.00    +0.000 N 
ENDROOT
BRANCH   4   9
ATOM      9  C   UNL     1      -1.984  11.436  18.940  0.00  0.00    +0.000 A 
ATOM     10  C   UNL     1      -3.198  11.811  18.347  0.00  0.00    +0.000 A 
ATOM     11  C   UNL     1      -3.640  11.179  17.182  0.00  0.00    +0.000 A 
ATOM     12  C   UNL     1      -2.853  10.187  16.605  0.00  0.00    +0.000 A 
ATOM     13  C   UNL     1      -1.626   9.838  17.157  0.00  0.00    +0.000 A 
ATOM     14  C   UNL     1      -1.190  10.461  18.328  0.00  0.00    +0.000 A 
BRANCH  12  15
ATOM     15  O   UNL     1      -3.265   9.516  15.492  0.00  0.00    +0.000 OA
ATOM     16  H   UNL     1      -3.293   8.567  15.699  0.00  0.00    +0.000 HD
ENDBRANCH  12  15
ENDBRANCH   4   9
BRANCH   8  17
ATOM     17  C   UNL     1       1.654  15.429  18.956  0.00  0.00    +0.000 A 
ATOM     18  C   UNL     1       2.783  14.899  18.329  0.00  0.00    +0.000 A 
ATOM     19  C   UNL     1       3.475  15.670  17.393  0.00  0.00    +0.000 A 
ATOM     20  C   UNL     1       3.029  16.955  17.130  0.00  0.00    +0.000 A 
ATOM     21  N   UNL     1       1.943  17.502  17.714  0.00  0.00    +0.000 NA
ATOM     22  C   UNL     1       1.269  16.721  18.592  0.00  0.00    +0.000 A 
ENDBRANCH   8  17
TORSDOF 3
ENDMDL
