MODEL 1
REMARK VINA RESULT:      -7.5      0.000      0.000
REMARK  Name = 
REMARK  5 active torsions:
REMARK  status: ('A' for Active; 'I' for Inactive)
REMARK    1  A    between atoms: C_2  and  C_3
REMARK    2  A    between atoms: C_3  and  O_4
REMARK    3  A    between atoms: O_4  and  C_5
REMARK    4  A    between atoms: C_5  and  C_7
REMARK    5  A    between atoms: N_13  and  C_14
REMARK                            x       y       z     vdW  Elec       q    Type
REMARK                         _______ _______ _______ _____ _____    ______ ____
ROOT
ATOM      1  O   UNL     1       5.482   5.781  18.804  0.00  0.00    +0.000 OA
ATOM      2  C   UNL     1       4.812   5.742  17.775  0.00  0.00    +0.000 C 
ATOM      3  N   UNL     1       3.552   5.167  17.668  0.00  0.00    +0.000 N 
ATOM      4  H   UNL     1       3.366   4.758  16.756  0.00  0.00    +0.000 HD
ENDROOT
BRANCH   3   5
ATOM      5  C   UNL     1       2.915   4.550  18.778  0.00  0.00    +0.000 A 
ATOM      6  C   UNL     1       2.373   5.280  19.854  0.00  0.00    +0.000 A 
ATOM      7 CL   UNL     1       2.212   7.005  19.825  0.00  0.00    +0.000 Cl
ATOM      8  C   UNL     1       1.799   4.617  20.945  0.00  0.00    +0.000 A 
ATOM      9  C   UNL     1       1.745   3.227  20.959  0.00  0.00    +0.000 A 
ATOM     10 CL   UNL     1       1.046   2.416  22.305  0.00  0.00    +0.000 Cl
ATOM     11  C   UNL     1       2.227   2.487  19.882  0.00  0.00    +0.000 A 
ATOM     12  C   UNL     1       2.794   3.151  18.792  0.00  0.00    +0.000 A 
ATOM     13 CL   UNL     1       3.391   2.193  17.476  0.00  0.00    +0.000 Cl
ENDBRANCH   3   5
BRANCH   2  14
ATOM     14  C   UNL     1       5.304   6.362  16.470  0.00  0.00    +0.000 C 
BRANCH  14  15
ATOM     15  O   UNL     1       6.728   6.375  16.340  0.00  0.00    +0.000 OA
BRANCH  15  16
ATOM     16  C   UNL     1       7.297   5.171  16.073  0.00  0.00    +0.000 C 
ATOM     17  O   UNL     1       7.837   4.442  16.890  0.00  0.00    +0.000 OA
BRANCH  16  18
ATOM     18  C   UNL     1       7.162   4.836  14.634  0.00  0.00    +0.000 A 
ATOM     19  C   UNL     1       6.269   3.843  14.258  0.00  0.00    +0.000 A 
ATOM     20  N   UNL     1       6.078   3.489  12.960  0.00  0.00    +0.000 NA
ATOM     21  C   UNL     1       6.820   4.171  12.058  0.00  0.00    +0.000 A 
ATOM     22  C   UNL     1       7.717   5.161  12.432  0.00  0.00    +0.000 A 
ATOM     23  N   UNL     1       7.908   5.522  13.722  0.00  0.00    +0.000 NA
ENDBRANCH  16  18
ENDBRANCH  15  16
ENDBRANCH  14  15
ENDBRANCH   2  14
TORSDOF 5
ENDMDL
MODEL 2
REMARK VINA RESULT:      -7.3      0.211      1.955
REMARK  Name = 
REMARK  5 active torsions:
REMARK  status: ('A' for Active; 'I' for Inactive)
REMARK    1  A    between atoms: C_2  and  C_3
REMARK    2  A    between atoms: C_3  and  O_4
REMARK    3  A    between atoms: O_4  and  C_5
REMARK    4  A    between atoms: C_5  and  C_7
REMARK    5  A    between atoms: N_13  and  C_14
REMARK                            x       y       z     vdW  Elec       q    Type
REMARK                         _______ _______ _______ _____ _____    ______ ____
ROOT
ATOM      1  O   UNL     1       5.647   5.769  18.809  0.00  0.00    +0.000 OA
ATOM      2  C   UNL     1       4.958   5.794  17.792  0.00  0.00    +0.000 C 
ATOM      3  N   UNL     1       3.699   5.220  17.670  0.00  0.00    +0.000 N 
ATOM      4  H   UNL     1       3.499   4.872  16.736  0.00  0.00    +0.000 HD
ENDROOT
BRANCH   3   5
ATOM      5  C   UNL     1       3.087   4.525  18.747  0.00  0.00    +0.000 A 
ATOM      6  C   UNL     1       3.083   3.120  18.850  0.00  0.00    +0.000 A 
ATOM      7 CL   UNL     1       4.025   2.105  17.808  0.00  0.00    +0.000 Cl
ATOM      8  C   UNL     1       2.422   2.487  19.908  0.00  0.00    +0.000 A 
ATOM      9  C   UNL     1       1.781   3.250  20.879  0.00  0.00    +0.000 A 
ATOM     10 CL   UNL     1       0.964   2.467  22.174  0.00  0.00    +0.000 Cl
ATOM     11  C   UNL     1       1.817   4.641  20.826  0.00  0.00    +0.000 A 
ATOM     12  C   UNL     1       2.482   5.271  19.772  0.00  0.00    +0.000 A 
ATOM     13 CL   UNL     1       2.496   7.004  19.738  0.00  0.00    +0.000 Cl
ENDBRANCH   3   5
BRANCH   2  14
ATOM     14  C   UNL     1       5.423   6.505  16.523  0.00  0.00    +0.000 C 
BRANCH  14  15
ATOM     15  O   UNL     1       6.836   6.442  16.313  0.00  0.00    +0.000 OA
BRANCH  15  16
ATOM     16  C   UNL     1       7.332   5.201  16.068  0.00  0.00    +0.000 C 
ATOM     17  O   UNL     1       7.836   4.460  16.895  0.00  0.00    +0.000 OA
BRANCH  16  18
ATOM     18  C   UNL     1       7.163   4.845  14.637  0.00  0.00    +0.000 A 
ATOM     19  C   UNL     1       6.269   3.839  14.297  0.00  0.00    +0.000 A 
ATOM     20  N   UNL     1       6.049   3.465  13.010  0.00  0.00    +0.000 NA
ATOM     21  C   UNL     1       6.762   4.141  12.081  0.00  0.00    +0.000 A 
ATOM     22  C   UNL     1       7.660   5.142  12.417  0.00  0.00    +0.000 A 
ATOM     23  N   UNL     1       7.880   5.524  13.697  0.00  0.00    +0.000 NA
ENDBRANCH  16  18
ENDBRANCH  15  16
ENDBRANCH  14  15
ENDBRANCH   2  14
TORSDOF 5
ENDMDL
MODEL 3
REMARK VINA RESULT:      -6.8      2.742      6.691
REMARK  Name = 
REMARK  5 active torsions:
REMARK  status: ('A' for Active; 'I' for Inactive)
REMARK    1  A    between atoms: C_2  and  C_3
REMARK    2  A    between atoms: C_3  and  O_4
REMARK    3  A    between atoms: O_4  and  C_5
REMARK    4  A    between atoms: C_5  and  C_7
REMARK    5  A    between atoms: N_13  and  C_14
REMARK                            x       y       z     vdW  Elec       q    Type
REMARK                         _______ _______ _______ _____ _____    ______ ____
ROOT
ATOM      1  O   UNL     1       7.971   4.426  16.743  0.00  0.00    +0.000 OA
ATOM      2  C   UNL     1       7.470   5.529  16.539  0.00  0.00    +0.000 C 
ATOM      3  N   UNL     1       6.760   5.881  15.399  0.00  0.00    +0.000 N 
ATOM      4  H   UNL     1       6.865   6.859  15.139  0.00  0.00    +0.000 HD
ENDROOT
BRANCH   3   5
ATOM      5  C   UNL     1       6.553   4.965  14.333  0.00  0.00    +0.000 A 
ATOM      6  C   UNL     1       7.355   4.942  13.175  0.00  0.00    +0.000 A 
ATOM      7 CL   UNL     1       8.816   5.863  13.032  0.00  0.00    +0.000 Cl
ATOM      8  C   UNL     1       7.075   4.049  12.135  0.00  0.00    +0.000 A 
ATOM      9  C   UNL     1       6.010   3.161  12.253  0.00  0.00    +0.000 A 
ATOM     10 CL   UNL     1       5.666   2.069  10.969  0.00  0.00    +0.000 Cl
ATOM     11  C   UNL     1       5.238   3.130  13.411  0.00  0.00    +0.000 A 
ATOM     12  C   UNL     1       5.522   4.018  14.450  0.00  0.00    +0.000 A 
ATOM     13 CL   UNL     1       4.531   3.954  15.871  0.00  0.00    +0.000 Cl
ENDBRANCH   3   5
BRANCH   2  14
ATOM     14  C   UNL     1       7.561   6.656  17.565  0.00  0.00    +0.000 C 
BRANCH  14  15
ATOM     15  O   UNL     1       6.510   6.638  18.535  0.00  0.00    +0.000 OA
BRANCH  15  16
ATOM     16  C   UNL     1       6.531   5.586  19.394  0.00  0.00    +0.000 C 
ATOM     17  O   UNL     1       7.456   5.286  20.132  0.00  0.00    +0.000 OA
BRANCH  16  18
ATOM     18  C   UNL     1       5.249   4.838  19.335  0.00  0.00    +0.000 A 
ATOM     19  C   UNL     1       4.067   5.548  19.180  0.00  0.00    +0.000 A 
ATOM     20  N   UNL     1       2.856   4.936  19.104  0.00  0.00    +0.000 NA
ATOM     21  C   UNL     1       2.882   3.587  19.189  0.00  0.00    +0.000 A 
ATOM     22  C   UNL     1       4.062   2.876  19.349  0.00  0.00    +0.000 A 
ATOM     23  N   UNL     1       5.272   3.479  19.420  0.00  0.00    +0.000 NA
ENDBRANCH  16  18
ENDBRANCH  15  16
ENDBRANCH  14  15
ENDBRANCH   2  14
TORSDOF 5
ENDMDL
MODEL 4
REMARK VINA RESULT:      -6.8      0.904      1.225
REMARK  Name = 
REMARK  5 active torsions:
REMARK  status: ('A' for Active; 'I' for Inactive)
REMARK    1  A    between atoms: C_2  and  C_3
REMARK    2  A    between atoms: C_3  and  O_4
REMARK    3  A    between atoms: O_4  and  C_5
REMARK    4  A    between atoms: C_5  and  C_7
REMARK    5  A    between atoms: N_13  and  C_14
REMARK                            x       y       z     vdW  Elec       q    Type
REMARK                         _______ _______ _______ _____ _____    ______ ____
ROOT
ATOM      1  O   UNL     1       6.039   5.711  19.126  0.00  0.00    +0.000 OA
ATOM      2  C   UNL     1       5.364   6.106  18.178  0.00  0.00    +0.000 C 
ATOM      3  N   UNL     1       4.011   5.849  18.004  0.00  0.00    +0.000 N 
ATOM      4  H   UNL     1       3.733   5.768  17.030  0.00  0.00    +0.000 HD
ENDROOT
BRANCH   3   5
ATOM      5  C   UNL     1       3.271   5.075  18.938  0.00  0.00    +0.000 A 
ATOM      6  C   UNL     1       2.485   5.649  19.957  0.00  0.00    +0.000 A 
ATOM      7 CL   UNL     1       2.148   7.347  20.032  0.00  0.00    +0.000 Cl
ATOM      8  C   UNL     1       1.815   4.838  20.879  0.00  0.00    +0.000 A 
ATOM      9  C   UNL     1       1.907   3.453  20.777  0.00  0.00    +0.000 A 
ATOM     10 CL   UNL     1       1.088   2.460  21.918  0.00  0.00    +0.000 Cl
ATOM     11  C   UNL     1       2.635   2.864  19.747  0.00  0.00    +0.000 A 
ATOM     12  C   UNL     1       3.298   3.676  18.824  0.00  0.00    +0.000 A 
ATOM     13 CL   UNL     1       4.202   2.904  17.562  0.00  0.00    +0.000 Cl
ENDBRANCH   3   5
BRANCH   2  14
ATOM     14  C   UNL     1       5.962   6.969  17.069  0.00  0.00    +0.000 C 
BRANCH  14  15
ATOM     15  O   UNL     1       5.938   6.348  15.782  0.00  0.00    +0.000 OA
BRANCH  15  16
ATOM     16  C   UNL     1       6.853   5.360  15.596  0.00  0.00    +0.000 C 
ATOM     17  O   UNL     1       7.704   5.018  16.401  0.00  0.00    +0.000 OA
BRANCH  16  18
ATOM     18  C   UNL     1       6.670   4.722  14.269  0.00  0.00    +0.000 A 
ATOM     19  C   UNL     1       7.616   4.952  13.280  0.00  0.00    +0.000 A 
ATOM     20  N   UNL     1       7.527   4.393  12.044  0.00  0.00    +0.000 NA
ATOM     21  C   UNL     1       6.452   3.598  11.844  0.00  0.00    +0.000 A 
ATOM     22  C   UNL     1       5.503   3.370  12.829  0.00  0.00    +0.000 A 
ATOM     23  N   UNL     1       5.589   3.919  14.063  0.00  0.00    +0.000 NA
ENDBRANCH  16  18
ENDBRANCH  15  16
ENDBRANCH  14  15
ENDBRANCH   2  14
TORSDOF 5
ENDMDL
MODEL 5
REMARK VINA RESULT:      -6.8      1.781      2.616
REMARK  Name = 
REMARK  5 active torsions:
REMARK  status: ('A' for Active; 'I' for Inactive)
REMARK    1  A    between atoms: C_2  and  C_3
REMARK    2  A    between atoms: C_3  and  O_4
REMARK    3  A    between atoms: O_4  and  C_5
REMARK    4  A    between atoms: C_5  and  C_7
REMARK    5  A    between atoms: N_13  and  C_14
REMARK                            x       y       z     vdW  Elec       q    Type
REMARK                         _______ _______ _______ _____ _____    ______ ____
ROOT
ATOM      1  O   UNL     1       6.377   5.350  19.806  0.00  0.00    +0.000 OA
ATOM      2  C   UNL     1       6.628   4.651  18.828  0.00  0.00    +0.000 C 
ATOM      3  N   UNL     1       5.724   3.799  18.206  0.00  0.00    +0.000 N 
ATOM      4  H   UNL     1       6.154   2.969  17.807  0.00  0.00    +0.000 HD
ENDROOT
BRANCH   3   5
ATOM      5  C   UNL     1       4.389   3.657  18.671  0.00  0.00    +0.000 A 
ATOM      6  C   UNL     1       3.997   2.655  19.581  0.00  0.00    +0.000 A 
ATOM      7 CL   UNL     1       5.139   1.646  20.408  0.00  0.00    +0.000 Cl
ATOM      8  C   UNL     1       2.659   2.532  19.968  0.00  0.00    +0.000 A 
ATOM      9  C   UNL     1       1.709   3.418  19.468  0.00  0.00    +0.000 A 
ATOM     10 CL   UNL     1       0.063   3.257  19.941  0.00  0.00    +0.000 Cl
ATOM     11  C   UNL     1       2.083   4.448  18.610  0.00  0.00    +0.000 A 
ATOM     12  C   UNL     1       3.421   4.573  18.229  0.00  0.00    +0.000 A 
ATOM     13 CL   UNL     1       3.844   5.863  17.151  0.00  0.00    +0.000 Cl
ENDBRANCH   3   5
BRANCH   2  14
ATOM     14  C   UNL     1       8.001   4.666  18.159  0.00  0.00    +0.000 C 
BRANCH  14  15
ATOM     15  O   UNL     1       7.965   4.354  16.765  0.00  0.00    +0.000 OA
BRANCH  15  16
ATOM     16  C   UNL     1       7.462   5.330  15.964  0.00  0.00    +0.000 C 
ATOM     17  O   UNL     1       7.458   6.524  16.214  0.00  0.00    +0.000 OA
BRANCH  16  18
ATOM     18  C   UNL     1       6.921   4.749  14.710  0.00  0.00    +0.000 A 
ATOM     19  C   UNL     1       7.624   4.935  13.528  0.00  0.00    +0.000 A 
ATOM     20  N   UNL     1       7.202   4.424  12.342  0.00  0.00    +0.000 NA
ATOM     21  C   UNL     1       6.048   3.721  12.392  0.00  0.00    +0.000 A 
ATOM     22  C   UNL     1       5.340   3.539  13.571  0.00  0.00    +0.000 A 
ATOM     23  N   UNL     1       5.758   4.041  14.756  0.00  0.00    +0.000 NA
ENDBRANCH  16  18
ENDBRANCH  15  16
ENDBRANCH  14  15
ENDBRANCH   2  14
TORSDOF 5
ENDMDL
MODEL 6
REMARK VINA RESULT:      -6.8      1.395      1.442
REMARK  Name = 
REMARK  5 active torsions:
REMARK  status: ('A' for Active; 'I' for Inactive)
REMARK    1  A    between atoms: C_2  and  C_3
REMARK    2  A    between atoms: C_3  and  O_4
REMARK    3  A    between atoms: O_4  and  C_5
REMARK    4  A    between atoms: C_5  and  C_7
REMARK    5  A    between atoms: N_13  and  C_14
REMARK                            x       y       z     vdW  Elec       q    Type
REMARK                         _______ _______ _______ _____ _____    ______ ____
ROOT
ATOM      1  O   UNL     1       3.982   6.900  18.146  0.00  0.00    +0.000 OA
ATOM      2  C   UNL     1       4.284   6.084  17.279  0.00  0.00    +0.000 C 
ATOM      3  N   UNL     1       3.969   4.731  17.315  0.00  0.00    +0.000 N 
ATOM      4  H   UNL     1       4.666   4.139  16.871  0.00  0.00    +0.000 HD
ENDROOT
BRANCH   3   5
ATOM      5  C   UNL     1       3.252   4.159  18.399  0.00  0.00    +0.000 A 
ATOM      6  C   UNL     1       1.846   4.068  18.426  0.00  0.00    +0.000 A 
ATOM      7 CL   UNL     1       0.862   4.421  17.044  0.00  0.00    +0.000 Cl
ATOM      8  C   UNL     1       1.190   3.538  19.542  0.00  0.00    +0.000 A 
ATOM      9  C   UNL     1       1.930   3.078  20.627  0.00  0.00    +0.000 A 
ATOM     10 CL   UNL     1       1.118   2.435  21.999  0.00  0.00    +0.000 Cl
ATOM     11  C   UNL     1       3.322   3.111  20.600  0.00  0.00    +0.000 A 
ATOM     12  C   UNL     1       3.975   3.635  19.483  0.00  0.00    +0.000 A 
ATOM     13 CL   UNL     1       5.709   3.666  19.493  0.00  0.00    +0.000 Cl
ENDBRANCH   3   5
BRANCH   2  14
ATOM     14  C   UNL     1       5.043   6.493  16.019  0.00  0.00    +0.000 C 
BRANCH  14  15
ATOM     15  O   UNL     1       6.462   6.532  16.190  0.00  0.00    +0.000 OA
BRANCH  15  16
ATOM     16  C   UNL     1       7.098   5.341  16.038  0.00  0.00    +0.000 C 
ATOM     17  O   UNL     1       7.626   4.697  16.930  0.00  0.00    +0.000 OA
BRANCH  16  18
ATOM     18  C   UNL     1       7.055   4.903  14.621  0.00  0.00    +0.000 A 
ATOM     19  C   UNL     1       6.205   3.864  14.266  0.00  0.00    +0.000 A 
ATOM     20  N   UNL     1       6.098   3.414  12.989  0.00  0.00    +0.000 NA
ATOM     21  C   UNL     1       6.879   4.049  12.085  0.00  0.00    +0.000 A 
ATOM     22  C   UNL     1       7.733   5.083  12.437  0.00  0.00    +0.000 A 
ATOM     23  N   UNL     1       7.840   5.539  13.706  0.00  0.00    +0.000 NA
ENDBRANCH  16  18
ENDBRANCH  15  16
ENDBRANCH  14  15
ENDBRANCH   2  14
TORSDOF 5
ENDMDL
MODEL 7
REMARK VINA RESULT:      -6.8      3.019      4.729
REMARK  Name = 
REMARK  5 active torsions:
REMARK  status: ('A' for Active; 'I' for Inactive)
REMARK    1  A    between atoms: C_2  and  C_3
REMARK    2  A    between atoms: C_3  and  O_4
REMARK    3  A    between atoms: O_4  and  C_5
REMARK    4  A    between atoms: C_5  and  C_7
REMARK    5  A    between atoms: N_13  and  C_14
REMARK                            x       y       z     vdW  Elec       q    Type
REMARK                         _______ _______ _______ _____ _____    ______ ____
ROOT
ATOM      1  O   UNL     1       1.629   5.175  18.699  0.00  0.00    +0.000 OA
ATOM      2  C   UNL     1       2.532   5.437  19.489  0.00  0.00    +0.000 C 
ATOM      3  N   UNL     1       2.821   6.705  19.974  0.00  0.00    +0.000 N 
ATOM      4  H   UNL     1       3.809   6.856  20.160  0.00  0.00    +0.000 HD
ENDROOT
BRANCH   3   5
ATOM      5  C   UNL     1       2.072   7.846  19.578  0.00  0.00    +0.000 A 
ATOM      6  C   UNL     1       1.169   8.505  20.434  0.00  0.00    +0.000 A 
ATOM      7 CL   UNL     1       1.052   8.145  22.125  0.00  0.00    +0.000 Cl
ATOM      8  C   UNL     1       0.422   9.596  19.975  0.00  0.00    +0.000 A 
ATOM      9  C   UNL     1       0.587  10.046  18.669  0.00  0.00    +0.000 A 
ATOM     10 CL   UNL     1      -0.339  11.382  18.106  0.00  0.00    +0.000 Cl
ATOM     11  C   UNL     1       1.513   9.443  17.822  0.00  0.00    +0.000 A 
ATOM     12  C   UNL     1       2.261   8.359  18.284  0.00  0.00    +0.000 A 
ATOM     13 CL   UNL     1       3.397   7.629  17.195  0.00  0.00    +0.000 Cl
ENDBRANCH   3   5
BRANCH   2  14
ATOM     14  C   UNL     1       3.446   4.352  20.054  0.00  0.00    +0.000 C 
BRANCH  14  15
ATOM     15  O   UNL     1       4.351   3.804  19.092  0.00  0.00    +0.000 OA
BRANCH  15  16
ATOM     16  C   UNL     1       5.512   4.490  18.930  0.00  0.00    +0.000 C 
ATOM     17  O   UNL     1       6.162   5.011  19.822  0.00  0.00    +0.000 OA
BRANCH  16  18
ATOM     18  C   UNL     1       5.910   4.512  17.500  0.00  0.00    +0.000 A 
ATOM     19  C   UNL     1       7.254   4.644  17.181  0.00  0.00    +0.000 A 
ATOM     20  N   UNL     1       7.700   4.659  15.898  0.00  0.00    +0.000 NA
ATOM     21  C   UNL     1       6.742   4.537  14.951  0.00  0.00    +0.000 A 
ATOM     22  C   UNL     1       5.397   4.411  15.267  0.00  0.00    +0.000 A 
ATOM     23  N   UNL     1       4.948   4.390  16.543  0.00  0.00    +0.000 NA
ENDBRANCH  16  18
ENDBRANCH  15  16
ENDBRANCH  14  15
ENDBRANCH   2  14
TORSDOF 5
ENDMDL
MODEL 8
REMARK VINA RESULT:      -6.7      2.852      4.211
REMARK  Name = 
REMARK  5 active torsions:
REMARK  status: ('A' for Active; 'I' for Inactive)
REMARK    1  A    between atoms: C_2  and  C_3
REMARK    2  A    between atoms: C_3  and  O_4
REMARK    3  A    between atoms: O_4  and  C_5
REMARK    4  A    between atoms: C_5  and  C_7
REMARK    5  A    between atoms: N_13  and  C_14
REMARK                            x       y       z     vdW  Elec       q    Type
REMARK                         _______ _______ _______ _____ _____    ______ ____
ROOT
ATOM      1  O   UNL     1       1.583   4.175  17.232  0.00  0.00    +0.000 OA
ATOM      2  C   UNL     1       2.650   3.886  17.767  0.00  0.00    +0.000 C 
ATOM      3  N   UNL     1       3.218   4.573  18.832  0.00  0.00    +0.000 N 
ATOM      4  H   UNL     1       4.234   4.575  18.821  0.00  0.00    +0.000 HD
ENDROOT
BRANCH   3   5
ATOM      5  C   UNL     1       2.591   5.711  19.407  0.00  0.00    +0.000 A 
ATOM      6  C   UNL     1       2.776   7.018  18.916  0.00  0.00    +0.000 A 
ATOM      7 CL   UNL     1       3.590   7.348  17.422  0.00  0.00    +0.000 Cl
ATOM      8  C   UNL     1       2.171   8.108  19.551  0.00  0.00    +0.000 A 
ATOM      9  C   UNL     1       1.364   7.899  20.665  0.00  0.00    +0.000 A 
ATOM     10 CL   UNL     1       0.629   9.242  21.448  0.00  0.00    +0.000 Cl
ATOM     11  C   UNL     1       1.125   6.611  21.136  0.00  0.00    +0.000 A 
ATOM     12  C   UNL     1       1.725   5.523  20.497  0.00  0.00    +0.000 A 
ATOM     13 CL   UNL     1       1.410   3.936  21.120  0.00  0.00    +0.000 Cl
ENDBRANCH   3   5
BRANCH   2  14
ATOM     14  C   UNL     1       3.479   2.687  17.312  0.00  0.00    +0.000 C 
BRANCH  14  15
ATOM     15  O   UNL     1       4.885   2.940  17.274  0.00  0.00    +0.000 OA
BRANCH  15  16
ATOM     16  C   UNL     1       5.273   3.936  16.435  0.00  0.00    +0.000 C 
ATOM     17  O   UNL     1       4.935   4.056  15.269  0.00  0.00    +0.000 OA
BRANCH  16  18
ATOM     18  C   UNL     1       6.167   4.891  17.136  0.00  0.00    +0.000 A 
ATOM     19  C   UNL     1       6.786   5.893  16.402  0.00  0.00    +0.000 A 
ATOM     20  N   UNL     1       7.607   6.813  16.972  0.00  0.00    +0.000 NA
ATOM     21  C   UNL     1       7.781   6.685  18.307  0.00  0.00    +0.000 A 
ATOM     22  C   UNL     1       7.168   5.682  19.043  0.00  0.00    +0.000 A 
ATOM     23  N   UNL     1       6.345   4.766  18.482  0.00  0.00    +0.000 NA
ENDBRANCH  16  18
ENDBRANCH  15  16
ENDBRANCH  14  15
ENDBRANCH   2  14
TORSDOF 5
ENDMDL
MODEL 9
REMARK VINA RESULT:      -6.7      2.714      4.146
REMARK  Name = 
REMARK  5 active torsions:
REMARK  status: ('A' for Active; 'I' for Inactive)
REMARK    1  A    between atoms: C_2  and  C_3
REMARK    2  A    between atoms: C_3  and  O_4
REMARK    3  A    between atoms: O_4  and  C_5
REMARK    4  A    between atoms: C_5  and  C_7
REMARK    5  A    between atoms: N_13  and  C_14
REMARK                            x       y       z     vdW  Elec       q    Type
REMARK                         _______ _______ _______ _____ _____    ______ ____
ROOT
ATOM      1  O   UNL     1       1.887   4.420  17.419  0.00  0.00    +0.000 OA
ATOM      2  C   UNL     1       3.074   4.570  17.697  0.00  0.00    +0.000 C 
ATOM      3  N   UNL     1       3.563   5.465  18.641  0.00  0.00    +0.000 N 
ATOM      4  H   UNL     1       4.478   5.843  18.409  0.00  0.00    +0.000 HD
ENDROOT
BRANCH   3   5
ATOM      5  C   UNL     1       2.699   6.314  19.384  0.00  0.00    +0.000 A 
ATOM      6  C   UNL     1       2.032   5.896  20.552  0.00  0.00    +0.000 A 
ATOM      7 CL   UNL     1       2.377   4.389  21.336  0.00  0.00    +0.000 Cl
ATOM      8  C   UNL     1       1.156   6.760  21.217  0.00  0.00    +0.000 A 
ATOM      9  C   UNL     1       0.956   8.050  20.734  0.00  0.00    +0.000 A 
ATOM     10 CL   UNL     1      -0.129   9.106  21.550  0.00  0.00    +0.000 Cl
ATOM     11  C   UNL     1       1.645   8.501  19.612  0.00  0.00    +0.000 A 
ATOM     12  C   UNL     1       2.524   7.639  18.952  0.00  0.00    +0.000 A 
ATOM     13 CL   UNL     1       3.355   8.237  17.553  0.00  0.00    +0.000 Cl
ENDBRANCH   3   5
BRANCH   2  14
ATOM     14  C   UNL     1       4.168   3.744  17.026  0.00  0.00    +0.000 C 
BRANCH  14  15
ATOM     15  O   UNL     1       4.620   4.289  15.784  0.00  0.00    +0.000 OA
BRANCH  15  16
ATOM     16  C   UNL     1       5.968   4.299  15.610  0.00  0.00    +0.000 C 
ATOM     17  O   UNL     1       6.576   3.713  14.729  0.00  0.00    +0.000 OA
BRANCH  16  18
ATOM     18  C   UNL     1       6.621   5.146  16.639  0.00  0.00    +0.000 A 
ATOM     19  C   UNL     1       7.308   4.530  17.675  0.00  0.00    +0.000 A 
ATOM     20  N   UNL     1       7.944   5.235  18.647  0.00  0.00    +0.000 NA
ATOM     21  C   UNL     1       7.860   6.580  18.536  0.00  0.00    +0.000 A 
ATOM     22  C   UNL     1       7.169   7.198  17.504  0.00  0.00    +0.000 A 
ATOM     23  N   UNL     1       6.539   6.502  16.530  0.00  0.00    +0.000 NA
ENDBRANCH  16  18
ENDBRANCH  15  16
ENDBRANCH  14  15
ENDBRANCH   2  14
TORSDOF 5
ENDMDL
