MODEL 1
REMARK VINA RESULT:      -8.9      0.000      0.000
REMARK  Name = 
REMARK  6 active torsions:
REMARK  status: ('A' for Active; 'I' for Inactive)
REMARK    1  A    between atoms: C_1  and  C_2
REMARK    2  A    between atoms: C_2  and  N_3
REMARK    3  A    between atoms: C_7  and  N_8
REMARK    4  A    between atoms: C_11  and  C_12
REMARK    5  A    between atoms: C_15  and  N_16
REMARK    6  A    between atoms: C_19  and  C_20
REMARK                            x       y       z     vdW  Elec       q    Type
REMARK                         _______ _______ _______ _____ _____    ______ ____
ROOT
ATOM      1  N   UNL     1       5.467   3.890  17.829  0.00  0.00    +0.000 N 
ATOM      2  C   UNL     1       4.409   4.476  18.455  0.00  0.00    +0.000 A 
ATOM      3  N   UNL     1       3.891   5.650  18.179  0.00  0.00    +0.000 NA
ATOM      4  C   UNL     1       2.913   5.994  19.095  0.00  0.00    +0.000 A 
ATOM      5  C   UNL     1       2.661   5.030  20.050  0.00  0.00    +0.000 A 
ATOM      6  S   UNL     1       3.681   3.677  19.802  0.00  0.00    +0.000 S 
ATOM      7  H   UNL     1       5.829   3.076  18.312  0.00  0.00    +0.000 HD
ENDROOT
BRANCH   4   8
ATOM      8  C   UNL     1       2.282   7.309  19.060  0.00  0.00    +0.000 A 
ATOM      9  C   UNL     1       2.308   8.059  17.875  0.00  0.00    +0.000 A 
ATOM     10  C   UNL     1       1.751   9.344  17.816  0.00  0.00    +0.000 A 
ATOM     11  C   UNL     1       1.176   9.903  18.963  0.00  0.00    +0.000 A 
ATOM     12  C   UNL     1       1.141   9.152  20.139  0.00  0.00    +0.000 A 
ATOM     13  F   UNL     1       0.544   9.612  21.249  0.00  0.00    +0.000 F 
ATOM     14  C   UNL     1       1.670   7.863  20.188  0.00  0.00    +0.000 A 
BRANCH  11  15
ATOM     15  N   UNL     1       0.627  11.208  18.928  0.00  0.00    +0.000 N 
ATOM     16  C   UNL     1      -0.683  11.559  18.686  0.00  0.00    +0.000 A 
ATOM     17  N   UNL     1      -0.861  12.862  18.673  0.00  0.00    +0.000 NA
ATOM     18  C   UNL     1       0.377  13.398  18.917  0.00  0.00    +0.000 A 
ATOM     19  C   UNL     1       0.581  14.862  18.895  0.00  0.00    +0.000 C 
ATOM     20  C   UNL     1       1.301  12.396  19.125  0.00  0.00    +0.000 A 
ENDBRANCH  11  15
ENDBRANCH   4   8
BRANCH   1  25
ATOM     21  N   UNL     1       7.031   5.391  16.766  0.00  0.00    +0.000 N 
ATOM     22  N   UNL     1       7.527   5.708  15.549  0.00  0.00    +0.000 NA
ATOM     23  C   UNL     1       6.915   4.855  14.726  0.00  0.00    +0.000 A 
ATOM     24  C   UNL     1       6.033   4.000  15.401  0.00  0.00    +0.000 A 
ATOM     25  C   UNL     1       6.109   4.364  16.730  0.00  0.00    +0.000 A 
BRANCH  21  27
ATOM     26  C   UNL     1       7.664   7.635  17.590  0.00  0.00    +0.000 C 
ATOM     27  C   UNL     1       7.489   6.160  17.908  0.00  0.00    +0.000 C 
ENDBRANCH  21  27
ENDBRANCH   1  25
TORSDOF 4
ENDMDL
MODEL 2
REMARK VINA RESULT:      -8.8      1.369      1.798
REMARK  Name = 
REMARK  6 active torsions:
REMARK  status: ('A' for Active; 'I' for Inactive)
REMARK    1  A    between atoms: C_1  and  C_2
REMARK    2  A    between atoms: C_2  and  N_3
REMARK    3  A    between atoms: C_7  and  N_8
REMARK    4  A    between atoms: C_11  and  C_12
REMARK    5  A    between atoms: C_15  and  N_16
REMARK    6  A    between atoms: C_19  and  C_20
REMARK                            x       y       z     vdW  Elec       q    Type
REMARK                         _______ _______ _______ _____ _____    ______ ____
ROOT
ATOM      1  N   UNL     1       5.269   3.429  17.393  0.00  0.00    +0.000 N 
ATOM      2  C   UNL     1       4.256   3.958  18.133  0.00  0.00    +0.000 A 
ATOM      3  N   UNL     1       3.816   5.194  18.081  0.00  0.00    +0.000 NA
ATOM      4  C   UNL     1       2.867   5.429  19.061  0.00  0.00    +0.000 A 
ATOM      5  C   UNL     1       2.557   4.326  19.830  0.00  0.00    +0.000 A 
ATOM      6  S   UNL     1       3.484   2.977  19.326  0.00  0.00    +0.000 S 
ATOM      7  H   UNL     1       5.579   2.518  17.716  0.00  0.00    +0.000 HD
ENDROOT
BRANCH   4   8
ATOM      8  C   UNL     1       2.326   6.766  19.275  0.00  0.00    +0.000 A 
ATOM      9  C   UNL     1       1.790   7.105  20.525  0.00  0.00    +0.000 A 
ATOM     10  C   UNL     1       1.222   8.365  20.755  0.00  0.00    +0.000 A 
ATOM     11  C   UNL     1       1.166   9.301  19.715  0.00  0.00    +0.000 A 
ATOM     12  C   UNL     1       1.710   8.966  18.473  0.00  0.00    +0.000 A 
ATOM     13  F   UNL     1       1.743   9.846  17.462  0.00  0.00    +0.000 F 
ATOM     14  C   UNL     1       2.300   7.722  18.255  0.00  0.00    +0.000 A 
BRANCH  11  15
ATOM     15  N   UNL     1       0.578  10.572  19.922  0.00  0.00    +0.000 N 
ATOM     16  C   UNL     1       1.202  11.725  20.344  0.00  0.00    +0.000 A 
ATOM     17  N   UNL     1       0.364  12.728  20.487  0.00  0.00    +0.000 NA
ATOM     18  C   UNL     1      -0.864  12.224  20.146  0.00  0.00    +0.000 A 
ATOM     19  C   UNL     1      -2.080  13.057  20.265  0.00  0.00    +0.000 C 
ATOM     20  C   UNL     1      -0.749  10.909  19.748  0.00  0.00    +0.000 A 
ENDBRANCH  11  15
ENDBRANCH   4   8
BRANCH   1  25
ATOM     21  N   UNL     1       7.028   4.871  16.585  0.00  0.00    +0.000 N 
ATOM     22  N   UNL     1       7.517   5.398  15.440  0.00  0.00    +0.000 NA
ATOM     23  C   UNL     1       6.726   4.889  14.495  0.00  0.00    +0.000 A 
ATOM     24  C   UNL     1       5.737   4.048  15.021  0.00  0.00    +0.000 A 
ATOM     25  C   UNL     1       5.936   4.051  16.386  0.00  0.00    +0.000 A 
BRANCH  21  27
ATOM     26  C   UNL     1       7.576   6.735  18.116  0.00  0.00    +0.000 C 
ATOM     27  C   UNL     1       7.668   5.245  17.833  0.00  0.00    +0.000 C 
ENDBRANCH  21  27
ENDBRANCH   1  25
TORSDOF 4
ENDMDL
MODEL 3
REMARK VINA RESULT:      -8.8      0.895      1.112
REMARK  Name = 
REMARK  6 active torsions:
REMARK  status: ('A' for Active; 'I' for Inactive)
REMARK    1  A    between atoms: C_1  and  C_2
REMARK    2  A    between atoms: C_2  and  N_3
REMARK    3  A    between atoms: C_7  and  N_8
REMARK    4  A    between atoms: C_11  and  C_12
REMARK    5  A    between atoms: C_15  and  N_16
REMARK    6  A    between atoms: C_19  and  C_20
REMARK                            x       y       z     vdW  Elec       q    Type
REMARK                         _______ _______ _______ _____ _____    ______ ____
ROOT
ATOM      1  N   UNL     1       5.618   3.691  17.672  0.00  0.00    +0.000 N 
ATOM      2  C   UNL     1       4.576   4.192  18.392  0.00  0.00    +0.000 A 
ATOM      3  N   UNL     1       4.004   5.362  18.225  0.00  0.00    +0.000 NA
ATOM      4  C   UNL     1       3.066   5.605  19.213  0.00  0.00    +0.000 A 
ATOM      5  C   UNL     1       2.901   4.570  20.110  0.00  0.00    +0.000 A 
ATOM      6  S   UNL     1       3.952   3.277  19.716  0.00  0.00    +0.000 S 
ATOM      7  H   UNL     1       6.034   2.860  18.077  0.00  0.00    +0.000 HD
ENDROOT
BRANCH   4   8
ATOM      8  C   UNL     1       2.390   6.894  19.303  0.00  0.00    +0.000 A 
ATOM      9  C   UNL     1       2.354   7.739  18.184  0.00  0.00    +0.000 A 
ATOM     10  C   UNL     1       1.752   9.002  18.245  0.00  0.00    +0.000 A 
ATOM     11  C   UNL     1       1.191   9.445  19.449  0.00  0.00    +0.000 A 
ATOM     12  C   UNL     1       1.217   8.599  20.560  0.00  0.00    +0.000 A 
ATOM     13  F   UNL     1       0.637   8.946  21.718  0.00  0.00    +0.000 F 
ATOM     14  C   UNL     1       1.792   7.331  20.488  0.00  0.00    +0.000 A 
BRANCH  11  15
ATOM     15  N   UNL     1       0.596  10.727  19.536  0.00  0.00    +0.000 N 
ATOM     16  C   UNL     1       1.225  11.949  19.449  0.00  0.00    +0.000 A 
ATOM     17  N   UNL     1       0.396  12.956  19.622  0.00  0.00    +0.000 NA
ATOM     18  C   UNL     1      -0.831  12.381  19.829  0.00  0.00    +0.000 A 
ATOM     19  C   UNL     1      -2.010  13.216  20.144  0.00  0.00    +0.000 C 
ATOM     20  C   UNL     1      -0.740  11.008  19.733  0.00  0.00    +0.000 A 
ENDBRANCH  11  15
ENDBRANCH   4   8
BRANCH   1  25
ATOM     21  N   UNL     1       7.043   5.340  16.633  0.00  0.00    +0.000 N 
ATOM     22  N   UNL     1       7.466   5.753  15.417  0.00  0.00    +0.000 NA
ATOM     23  C   UNL     1       6.869   4.911  14.572  0.00  0.00    +0.000 A 
ATOM     24  C   UNL     1       6.069   3.969  15.233  0.00  0.00    +0.000 A 
ATOM     25  C   UNL     1       6.183   4.263  16.576  0.00  0.00    +0.000 A 
BRANCH  21  27
ATOM     26  C   UNL     1       7.578   7.570  17.559  0.00  0.00    +0.000 C 
ATOM     27  C   UNL     1       7.507   6.072  17.798  0.00  0.00    +0.000 C 
ENDBRANCH  21  27
ENDBRANCH   1  25
TORSDOF 4
ENDMDL
MODEL 4
REMARK VINA RESULT:      -8.5      1.113      1.478
REMARK  Name = 
REMARK  6 active torsions:
REMARK  status: ('A' for Active; 'I' for Inactive)
REMARK    1  A    between atoms: C_1  and  C_2
REMARK    2  A    between atoms: C_2  and  N_3
REMARK    3  A    between atoms: C_7  and  N_8
REMARK    4  A    between atoms: C_11  and  C_12
REMARK    5  A    between atoms: C_15  and  N_16
REMARK    6  A    between atoms: C_19  and  C_20
REMARK                            x       y       z     vdW  Elec       q    Type
REMARK                         _______ _______ _______ _____ _____    ______ ____
ROOT
ATOM      1  N   UNL     1       5.101   3.499  17.724  0.00  0.00    +0.000 N 
ATOM      2  C   UNL     1       4.108   4.099  18.437  0.00  0.00    +0.000 A 
ATOM      3  N   UNL     1       3.688   5.336  18.300  0.00  0.00    +0.000 NA
ATOM      4  C   UNL     1       2.759   5.659  19.274  0.00  0.00    +0.000 A 
ATOM      5  C   UNL     1       2.444   4.622  20.128  0.00  0.00    +0.000 A 
ATOM      6  S   UNL     1       3.340   3.223  19.711  0.00  0.00    +0.000 S 
ATOM      7  H   UNL     1       5.401   2.610  18.108  0.00  0.00    +0.000 HD
ENDROOT
BRANCH   4   8
ATOM      8  C   UNL     1       2.243   7.018  19.396  0.00  0.00    +0.000 A 
ATOM      9  C   UNL     1       1.663   7.433  20.604  0.00  0.00    +0.000 A 
ATOM     10  C   UNL     1       1.119   8.716  20.745  0.00  0.00    +0.000 A 
ATOM     11  C   UNL     1       1.131   9.598  19.657  0.00  0.00    +0.000 A 
ATOM     12  C   UNL     1       1.718   9.187  18.459  0.00  0.00    +0.000 A 
ATOM     13  F   UNL     1       1.816  10.013  17.407  0.00  0.00    +0.000 F 
ATOM     14  C   UNL     1       2.285   7.920  18.330  0.00  0.00    +0.000 A 
BRANCH  11  15
ATOM     15  N   UNL     1       0.566  10.891  19.774  0.00  0.00    +0.000 N 
ATOM     16  C   UNL     1      -0.766  11.233  19.700  0.00  0.00    +0.000 A 
ATOM     17  N   UNL     1      -0.959  12.530  19.798  0.00  0.00    +0.000 NA
ATOM     18  C   UNL     1       0.291  13.072  19.943  0.00  0.00    +0.000 A 
ATOM     19  C   UNL     1       0.475  14.538  20.002  0.00  0.00    +0.000 C 
ATOM     20  C   UNL     1       1.244  12.075  19.979  0.00  0.00    +0.000 A 
ENDBRANCH  11  15
ENDBRANCH   4   8
BRANCH   1  25
ATOM     21  N   UNL     1       7.003   4.629  16.758  0.00  0.00    +0.000 N 
ATOM     22  N   UNL     1       7.458   5.109  15.579  0.00  0.00    +0.000 NA
ATOM     23  C   UNL     1       6.489   4.799  14.716  0.00  0.00    +0.000 A 
ATOM     24  C   UNL     1       5.421   4.131  15.331  0.00  0.00    +0.000 A 
ATOM     25  C   UNL     1       5.762   4.034  16.664  0.00  0.00    +0.000 A 
BRANCH  21  27
ATOM     26  C   UNL     1       7.624   6.179  18.584  0.00  0.00    +0.000 C 
ATOM     27  C   UNL     1       7.832   4.821  17.934  0.00  0.00    +0.000 C 
ENDBRANCH  21  27
ENDBRANCH   1  25
TORSDOF 4
ENDMDL
MODEL 5
REMARK VINA RESULT:      -7.6      3.160      9.167
REMARK  Name = 
REMARK  6 active torsions:
REMARK  status: ('A' for Active; 'I' for Inactive)
REMARK    1  A    between atoms: C_1  and  C_2
REMARK    2  A    between atoms: C_2  and  N_3
REMARK    3  A    between atoms: C_7  and  N_8
REMARK    4  A    between atoms: C_11  and  C_12
REMARK    5  A    between atoms: C_15  and  N_16
REMARK    6  A    between atoms: C_19  and  C_20
REMARK                            x       y       z     vdW  Elec       q    Type
REMARK                         _______ _______ _______ _____ _____    ______ ____
ROOT
ATOM      1  N   UNL     1      -2.022  12.092  18.295  0.00  0.00    +0.000 N 
ATOM      2  C   UNL     1      -0.868  11.598  18.823  0.00  0.00    +0.000 A 
ATOM      3  N   UNL     1      -0.319  10.437  18.547  0.00  0.00    +0.000 NA
ATOM      4  C   UNL     1       0.774  10.196  19.360  0.00  0.00    +0.000 A 
ATOM      5  C   UNL     1       1.077  11.224  20.230  0.00  0.00    +0.000 A 
ATOM      6  S   UNL     1      -0.040  12.507  20.034  0.00  0.00    +0.000 S 
ATOM      7  H   UNL     1      -2.373  12.913  18.775  0.00  0.00    +0.000 HD
ENDROOT
BRANCH   4   8
ATOM      8  C   UNL     1       1.470   8.915  19.319  0.00  0.00    +0.000 A 
ATOM      9  C   UNL     1       2.205   8.561  18.178  0.00  0.00    +0.000 A 
ATOM     10  C   UNL     1       2.852   7.322  18.085  0.00  0.00    +0.000 A 
ATOM     11  C   UNL     1       2.748   6.405  19.137  0.00  0.00    +0.000 A 
ATOM     12  C   UNL     1       2.025   6.762  20.278  0.00  0.00    +0.000 A 
ATOM     13  F   UNL     1       1.948   5.950  21.342  0.00  0.00    +0.000 F 
ATOM     14  C   UNL     1       1.407   8.007  20.380  0.00  0.00    +0.000 A 
BRANCH  11  15
ATOM     15  N   UNL     1       3.376   5.139  19.053  0.00  0.00    +0.000 N 
ATOM     16  C   UNL     1       4.721   4.862  19.168  0.00  0.00    +0.000 A 
ATOM     17  N   UNL     1       4.990   3.587  18.990  0.00  0.00    +0.000 NA
ATOM     18  C   UNL     1       3.779   2.993  18.749  0.00  0.00    +0.000 A 
ATOM     19  C   UNL     1       3.698   1.554  18.419  0.00  0.00    +0.000 C 
ATOM     20  C   UNL     1       2.763   3.923  18.830  0.00  0.00    +0.000 A 
ENDBRANCH  11  15
ENDBRANCH   4   8
BRANCH   1  25
ATOM     21  N   UNL     1      -4.135  11.463  17.312  0.00  0.00    +0.000 N 
ATOM     22  N   UNL     1      -4.651  10.835  16.231  0.00  0.00    +0.000 NA
ATOM     23  C   UNL     1      -3.575  10.504  15.515  0.00  0.00    +0.000 A 
ATOM     24  C   UNL     1      -2.381  10.909  16.127  0.00  0.00    +0.000 A 
ATOM     25  C   UNL     1      -2.757  11.525  17.303  0.00  0.00    +0.000 A 
BRANCH  21  27
ATOM     26  C   UNL     1      -6.094  10.906  18.717  0.00  0.00    +0.000 C 
ATOM     27  C   UNL     1      -5.059  11.946  18.321  0.00  0.00    +0.000 C 
ENDBRANCH  21  27
ENDBRANCH   1  25
TORSDOF 4
ENDMDL
MODEL 6
REMARK VINA RESULT:      -7.5      1.629      2.573
REMARK  Name = 
REMARK  6 active torsions:
REMARK  status: ('A' for Active; 'I' for Inactive)
REMARK    1  A    between atoms: C_1  and  C_2
REMARK    2  A    between atoms: C_2  and  N_3
REMARK    3  A    between atoms: C_7  and  N_8
REMARK    4  A    between atoms: C_11  and  C_12
REMARK    5  A    between atoms: C_15  and  N_16
REMARK    6  A    between atoms: C_19  and  C_20
REMARK                            x       y       z     vdW  Elec       q    Type
REMARK                         _______ _______ _______ _____ _____    ______ ____
ROOT
ATOM      1  N   UNL     1       4.976   4.161  19.213  0.00  0.00    +0.000 N 
ATOM      2  C   UNL     1       3.786   4.719  19.571  0.00  0.00    +0.000 A 
ATOM      3  N   UNL     1       3.453   5.984  19.460  0.00  0.00    +0.000 NA
ATOM      4  C   UNL     1       2.222   6.229  20.042  0.00  0.00    +0.000 A 
ATOM      5  C   UNL     1       1.600   5.110  20.557  0.00  0.00    +0.000 A 
ATOM      6  S   UNL     1       2.586   3.730  20.320  0.00  0.00    +0.000 S 
ATOM      7  H   UNL     1       5.104   3.215  19.553  0.00  0.00    +0.000 HD
ENDROOT
BRANCH   4   8
ATOM      8  C   UNL     1       1.701   7.588  20.148  0.00  0.00    +0.000 A 
ATOM      9  C   UNL     1       1.098   8.008  21.343  0.00  0.00    +0.000 A 
ATOM     10  C   UNL     1       0.548   9.290  21.467  0.00  0.00    +0.000 A 
ATOM     11  C   UNL     1       0.578  10.166  20.376  0.00  0.00    +0.000 A 
ATOM     12  C   UNL     1       1.188   9.752  19.190  0.00  0.00    +0.000 A 
ATOM     13  F   UNL     1       1.303  10.572  18.136  0.00  0.00    +0.000 F 
ATOM     14  C   UNL     1       1.760   8.485  19.078  0.00  0.00    +0.000 A 
BRANCH  11  15
ATOM     15  N   UNL     1       0.009  11.459  20.476  0.00  0.00    +0.000 N 
ATOM     16  C   UNL     1       0.670  12.653  20.663  0.00  0.00    +0.000 A 
ATOM     17  N   UNL     1      -0.153  13.674  20.765  0.00  0.00    +0.000 NA
ATOM     18  C   UNL     1      -1.409  13.140  20.639  0.00  0.00    +0.000 A 
ATOM     19  C   UNL     1      -2.608  13.992  20.784  0.00  0.00    +0.000 C 
ATOM     20  C   UNL     1      -1.332  11.781  20.412  0.00  0.00    +0.000 A 
ENDBRANCH  11  15
ENDBRANCH   4   8
BRANCH   1  25
ATOM     21  N   UNL     1       6.217   4.694  17.212  0.00  0.00    +0.000 N 
ATOM     22  N   UNL     1       7.301   5.388  16.796  0.00  0.00    +0.000 NA
ATOM     23  C   UNL     1       7.766   5.947  17.914  0.00  0.00    +0.000 A 
ATOM     24  C   UNL     1       6.996   5.616  19.038  0.00  0.00    +0.000 A 
ATOM     25  C   UNL     1       5.994   4.791  18.570  0.00  0.00    +0.000 A 
BRANCH  21  27
ATOM     26  C   UNL     1       6.111   3.990  14.843  0.00  0.00    +0.000 C 
ATOM     27  C   UNL     1       5.473   3.939  16.221  0.00  0.00    +0.000 C 
ENDBRANCH  21  27
ENDBRANCH   1  25
TORSDOF 4
ENDMDL
MODEL 7
REMARK VINA RESULT:      -7.5      1.936      2.802
REMARK  Name = 
REMARK  6 active torsions:
REMARK  status: ('A' for Active; 'I' for Inactive)
REMARK    1  A    between atoms: C_1  and  C_2
REMARK    2  A    between atoms: C_2  and  N_3
REMARK    3  A    between atoms: C_7  and  N_8
REMARK    4  A    between atoms: C_11  and  C_12
REMARK    5  A    between atoms: C_15  and  N_16
REMARK    6  A    between atoms: C_19  and  C_20
REMARK                            x       y       z     vdW  Elec       q    Type
REMARK                         _______ _______ _______ _____ _____    ______ ____
ROOT
ATOM      1  N   UNL     1       4.929   3.407  16.741  0.00  0.00    +0.000 N 
ATOM      2  C   UNL     1       3.820   3.928  17.335  0.00  0.00    +0.000 A 
ATOM      3  N   UNL     1       3.626   5.186  17.657  0.00  0.00    +0.000 NA
ATOM      4  C   UNL     1       2.447   5.345  18.365  0.00  0.00    +0.000 A 
ATOM      5  C   UNL     1       1.720   4.184  18.531  0.00  0.00    +0.000 A 
ATOM      6  S   UNL     1       2.539   2.869  17.801  0.00  0.00    +0.000 S 
ATOM      7  H   UNL     1       4.960   2.393  16.751  0.00  0.00    +0.000 HD
ENDROOT
BRANCH   4   8
ATOM      8  C   UNL     1       2.084   6.638  18.935  0.00  0.00    +0.000 A 
ATOM      9  C   UNL     1       1.824   6.742  20.309  0.00  0.00    +0.000 A 
ATOM     10  C   UNL     1       1.431   7.957  20.885  0.00  0.00    +0.000 A 
ATOM     11  C   UNL     1       1.272   9.088  20.075  0.00  0.00    +0.000 A 
ATOM     12  C   UNL     1       1.542   8.987  18.709  0.00  0.00    +0.000 A 
ATOM     13  F   UNL     1       1.469  10.053  17.899  0.00  0.00    +0.000 F 
ATOM     14  C   UNL     1       1.961   7.783  18.143  0.00  0.00    +0.000 A 
BRANCH  11  15
ATOM     15  N   UNL     1       0.855  10.320  20.635  0.00  0.00    +0.000 N 
ATOM     16  C   UNL     1       1.499  11.535  20.558  0.00  0.00    +0.000 A 
ATOM     17  N   UNL     1       0.876  12.479  21.230  0.00  0.00    +0.000 NA
ATOM     18  C   UNL     1      -0.224  11.869  21.774  0.00  0.00    +0.000 A 
ATOM     19  C   UNL     1      -1.129  12.613  22.675  0.00  0.00    +0.000 C 
ATOM     20  C   UNL     1      -0.283  10.548  21.382  0.00  0.00    +0.000 A 
ENDBRANCH  11  15
ENDBRANCH   4   8
BRANCH   1  25
ATOM     21  N   UNL     1       6.190   4.395  14.936  0.00  0.00    +0.000 N 
ATOM     22  N   UNL     1       7.326   5.089  14.699  0.00  0.00    +0.000 NA
ATOM     23  C   UNL     1       7.851   5.260  15.914  0.00  0.00    +0.000 A 
ATOM     24  C   UNL     1       7.068   4.680  16.921  0.00  0.00    +0.000 A 
ATOM     25  C   UNL     1       5.992   4.111  16.271  0.00  0.00    +0.000 A 
BRANCH  21  27
ATOM     26  C   UNL     1       6.194   3.530  12.618  0.00  0.00    +0.000 C 
ATOM     27  C   UNL     1       5.371   4.024  13.797  0.00  0.00    +0.000 C 
ENDBRANCH  21  27
ENDBRANCH   1  25
TORSDOF 4
ENDMDL
MODEL 8
REMARK VINA RESULT:      -7.5      3.233      9.120
REMARK  Name = 
REMARK  6 active torsions:
REMARK  status: ('A' for Active; 'I' for Inactive)
REMARK    1  A    between atoms: C_1  and  C_2
REMARK    2  A    between atoms: C_2  and  N_3
REMARK    3  A    between atoms: C_7  and  N_8
REMARK    4  A    between atoms: C_11  and  C_12
REMARK    5  A    between atoms: C_15  and  N_16
REMARK    6  A    between atoms: C_19  and  C_20
REMARK                            x       y       z     vdW  Elec       q    Type
REMARK                         _______ _______ _______ _____ _____    ______ ____
ROOT
ATOM      1  N   UNL     1      -2.164  12.610  18.591  0.00  0.00    +0.000 N 
ATOM      2  C   UNL     1      -0.889  12.134  18.646  0.00  0.00    +0.000 A 
ATOM      3  N   UNL     1      -0.523  10.875  18.571  0.00  0.00    +0.000 NA
ATOM      4  C   UNL     1       0.834  10.735  18.797  0.00  0.00    +0.000 A 
ATOM      5  C   UNL     1       1.506  11.923  18.997  0.00  0.00    +0.000 A 
ATOM      6  S   UNL     1       0.411  13.238  18.916  0.00  0.00    +0.000 S 
ATOM      7  H   UNL     1      -2.248  13.585  18.857  0.00  0.00    +0.000 HD
ENDROOT
BRANCH   4   8
ATOM      8  C   UNL     1       1.447   9.414  18.884  0.00  0.00    +0.000 A 
ATOM      9  C   UNL     1       2.170   8.911  17.793  0.00  0.00    +0.000 A 
ATOM     10  C   UNL     1       2.736   7.630  17.824  0.00  0.00    +0.000 A 
ATOM     11  C   UNL     1       2.562   6.822  18.954  0.00  0.00    +0.000 A 
ATOM     12  C   UNL     1       1.851   7.327  20.045  0.00  0.00    +0.000 A 
ATOM     13  F   UNL     1       1.709   6.622  21.177  0.00  0.00    +0.000 F 
ATOM     14  C   UNL     1       1.313   8.613  20.022  0.00  0.00    +0.000 A 
BRANCH  11  15
ATOM     15  N   UNL     1       3.108   5.516  18.996  0.00  0.00    +0.000 N 
ATOM     16  C   UNL     1       4.377   5.152  19.387  0.00  0.00    +0.000 A 
ATOM     17  N   UNL     1       4.591   3.860  19.263  0.00  0.00    +0.000 NA
ATOM     18  C   UNL     1       3.421   3.346  18.771  0.00  0.00    +0.000 A 
ATOM     19  C   UNL     1       3.315   1.913  18.423  0.00  0.00    +0.000 C 
ATOM     20  C   UNL     1       2.475   4.342  18.643  0.00  0.00    +0.000 A 
ENDBRANCH  11  15
ENDBRANCH   4   8
BRANCH   1  25
ATOM     21  N   UNL     1      -3.503  11.215  17.147  0.00  0.00    +0.000 N 
ATOM     22  N   UNL     1      -4.692  10.573  17.107  0.00  0.00    +0.000 NA
ATOM     23  C   UNL     1      -5.229  10.828  18.301  0.00  0.00    +0.000 A 
ATOM     24  C   UNL     1      -4.400  11.627  19.100  0.00  0.00    +0.000 A 
ATOM     25  C   UNL     1      -3.281  11.882  18.334  0.00  0.00    +0.000 A 
BRANCH  21  27
ATOM     26  C   UNL     1      -3.237  10.266  14.878  0.00  0.00    +0.000 C 
ATOM     27  C   UNL     1      -2.657  11.150  15.969  0.00  0.00    +0.000 C 
ENDBRANCH  21  27
ENDBRANCH   1  25
TORSDOF 4
ENDMDL
MODEL 9
REMARK VINA RESULT:      -7.5      1.365      2.168
REMARK  Name = 
REMARK  6 active torsions:
REMARK  status: ('A' for Active; 'I' for Inactive)
REMARK    1  A    between atoms: C_1  and  C_2
REMARK    2  A    between atoms: C_2  and  N_3
REMARK    3  A    between atoms: C_7  and  N_8
REMARK    4  A    between atoms: C_11  and  C_12
REMARK    5  A    between atoms: C_15  and  N_16
REMARK    6  A    between atoms: C_19  and  C_20
REMARK                            x       y       z     vdW  Elec       q    Type
REMARK                         _______ _______ _______ _____ _____    ______ ____
ROOT
ATOM      1  N   UNL     1       5.328   4.362  18.599  0.00  0.00    +0.000 N 
ATOM      2  C   UNL     1       4.138   4.790  19.105  0.00  0.00    +0.000 A 
ATOM      3  N   UNL     1       3.655   6.009  19.036  0.00  0.00    +0.000 NA
ATOM      4  C   UNL     1       2.488   6.126  19.769  0.00  0.00    +0.000 A 
ATOM      5  C   UNL     1       2.063   4.953  20.358  0.00  0.00    +0.000 A 
ATOM      6  S   UNL     1       3.158   3.686  19.999  0.00  0.00    +0.000 S 
ATOM      7  H   UNL     1       5.601   3.440  18.921  0.00  0.00    +0.000 HD
ENDROOT
BRANCH   4   8
ATOM      8  C   UNL     1       1.837   7.421  19.940  0.00  0.00    +0.000 A 
ATOM      9  C   UNL     1       1.855   8.350  18.889  0.00  0.00    +0.000 A 
ATOM     10  C   UNL     1       1.278   9.619  19.032  0.00  0.00    +0.000 A 
ATOM     11  C   UNL     1       0.690   9.980  20.249  0.00  0.00    +0.000 A 
ATOM     12  C   UNL     1       0.662   9.051  21.291  0.00  0.00    +0.000 A 
ATOM     13  F   UNL     1       0.054   9.320  22.455  0.00  0.00    +0.000 F 
ATOM     14  C   UNL     1       1.211   7.778  21.137  0.00  0.00    +0.000 A 
BRANCH  11  15
ATOM     15  N   UNL     1       0.120  11.266  20.419  0.00  0.00    +0.000 N 
ATOM     16  C   UNL     1       0.769  12.429  20.771  0.00  0.00    +0.000 A 
ATOM     17  N   UNL     1      -0.055  13.447  20.896  0.00  0.00    +0.000 NA
ATOM     18  C   UNL     1      -1.297  12.942  20.615  0.00  0.00    +0.000 A 
ATOM     19  C   UNL     1      -2.501  13.793  20.736  0.00  0.00    +0.000 C 
ATOM     20  C   UNL     1      -1.208  11.609  20.271  0.00  0.00    +0.000 A 
ENDBRANCH  11  15
ENDBRANCH   4   8
BRANCH   1  25
ATOM     21  N   UNL     1       6.408   4.843  16.495  0.00  0.00    +0.000 N 
ATOM     22  N   UNL     1       7.314   5.681  15.941  0.00  0.00    +0.000 NA
ATOM     23  C   UNL     1       7.658   6.485  16.949  0.00  0.00    +0.000 A 
ATOM     24  C   UNL     1       6.987   6.168  18.138  0.00  0.00    +0.000 A 
ATOM     25  C   UNL     1       6.182   5.090  17.833  0.00  0.00    +0.000 A 
BRANCH  21  27
ATOM     26  C   UNL     1       5.847   4.181  14.178  0.00  0.00    +0.000 C 
ATOM     27  C   UNL     1       5.835   3.810  15.651  0.00  0.00    +0.000 C 
ENDBRANCH  21  27
ENDBRANCH   1  25
TORSDOF 4
ENDMDL
