MODEL 1
REMARK VINA RESULT:      -7.2      0.000      0.000
REMARK  Name = 
REMARK  5 active torsions:
REMARK  status: ('A' for Active; 'I' for Inactive)
REMARK    1  A    between atoms: C_1  and  C_2
REMARK    2  A    between atoms: C_5  and  C_6
REMARK    3  A    between atoms: C_5  and  C_7
REMARK    4  A    between atoms: C_12  and  C_13
REMARK    5  A    between atoms: C_13  and  O_14
REMARK                            x       y       z     vdW  Elec       q    Type
REMARK                         _______ _______ _______ _____ _____    ______ ____
ROOT
ATOM      1  C   UNL     1       6.067   3.999  13.898  0.00  0.00    +0.000 C 
ATOM      2  C   UNL     1       5.932   4.196  15.401  0.00  0.00    +0.000 C 
ATOM      3  C   UNL     1       7.059   4.662  15.981  0.00  0.00    +0.000 C 
ATOM      4  C   UNL     1       7.468   4.573  17.414  0.00  0.00    +0.000 C 
ATOM      5  C   UNL     1       7.082   5.751  18.346  0.00  0.00    +0.000 C 
ATOM      6  C   UNL     1       8.065   5.727  19.519  0.00  0.00    +0.000 C 
ATOM      7  C   UNL     1       7.149   7.101  17.608  0.00  0.00    +0.000 C 
ATOM      8  C   UNL     1       5.694   5.466  18.830  0.00  0.00    +0.000 C 
ATOM      9  C   UNL     1       4.657   6.332  18.668  0.00  0.00    +0.000 C 
ATOM     10  C   UNL     1       3.249   5.890  18.607  0.00  0.00    +0.000 C 
ATOM     11  O   UNL     1       2.386   6.588  18.091  0.00  0.00    +0.000 OA
ATOM     12  C   UNL     1       2.932   4.631  19.274  0.00  0.00    +0.000 C 
ATOM     13  C   UNL     1       3.145   3.444  18.660  0.00  0.00    +0.000 C 
ATOM     14  C   UNL     1       3.741   2.967  17.306  0.00  0.00    +0.000 C 
ATOM     15  C   UNL     1       4.627   3.666  16.101  0.00  0.00    +0.000 C 
ENDROOT
BRANCH  12  16
ATOM     16  C   UNL     1       2.467   4.943  20.680  0.00  0.00    +0.000 C 
BRANCH  16  17
ATOM     17  O   UNL     1       1.884   6.229  20.802  0.00  0.00    +0.000 OA
ATOM     18  H   UNL     1       1.093   6.224  20.237  0.00  0.00    +0.000 HD
ENDBRANCH  16  17
ENDBRANCH  12  16
TORSDOF 2
ENDMDL
MODEL 2
REMARK VINA RESULT:      -6.9      2.420      3.905
REMARK  Name = 
REMARK  5 active torsions:
REMARK  status: ('A' for Active; 'I' for Inactive)
REMARK    1  A    between atoms: C_1  and  C_2
REMARK    2  A    between atoms: C_5  and  C_6
REMARK    3  A    between atoms: C_5  and  C_7
REMARK    4  A    between atoms: C_12  and  C_13
REMARK    5  A    between atoms: C_13  and  O_14
REMARK                            x       y       z     vdW  Elec       q    Type
REMARK                         _______ _______ _______ _____ _____    ______ ____
ROOT
ATOM      1  C   UNL     1       2.334   8.557  18.246  0.00  0.00    +0.000 C 
ATOM      2  C   UNL     1       3.007   7.253  17.841  0.00  0.00    +0.000 C 
ATOM      3  C   UNL     1       4.177   7.434  17.194  0.00  0.00    +0.000 C 
ATOM      4  C   UNL     1       4.891   6.488  16.286  0.00  0.00    +0.000 C 
ATOM      5  C   UNL     1       5.946   5.543  16.919  0.00  0.00    +0.000 C 
ATOM      6  C   UNL     1       6.906   5.138  15.798  0.00  0.00    +0.000 C 
ATOM      7  C   UNL     1       6.708   6.232  18.066  0.00  0.00    +0.000 C 
ATOM      8  C   UNL     1       5.194   4.345  17.411  0.00  0.00    +0.000 C 
ATOM      9  C   UNL     1       5.240   3.917  18.702  0.00  0.00    +0.000 C 
ATOM     10  C   UNL     1       4.145   3.149  19.329  0.00  0.00    +0.000 C 
ATOM     11  O   UNL     1       4.015   3.105  20.545  0.00  0.00    +0.000 OA
ATOM     12  C   UNL     1       3.292   2.378  18.429  0.00  0.00    +0.000 C 
ATOM     13  C   UNL     1       2.266   2.963  17.770  0.00  0.00    +0.000 C 
ATOM     14  C   UNL     1       1.683   4.398  17.638  0.00  0.00    +0.000 C 
ATOM     15  C   UNL     1       2.199   5.917  18.032  0.00  0.00    +0.000 C 
ENDROOT
BRANCH  12  16
ATOM     16  C   UNL     1       3.839   0.969  18.349  0.00  0.00    +0.000 C 
BRANCH  16  17
ATOM     17  O   UNL     1       4.797   0.684  19.354  0.00  0.00    +0.000 OA
ATOM     18  H   UNL     1       5.356  -0.030  19.002  0.00  0.00    +0.000 HD
ENDBRANCH  16  17
ENDBRANCH  12  16
TORSDOF 2
ENDMDL
MODEL 3
REMARK VINA RESULT:      -6.5      2.242      4.832
REMARK  Name = 
REMARK  5 active torsions:
REMARK  status: ('A' for Active; 'I' for Inactive)
REMARK    1  A    between atoms: C_1  and  C_2
REMARK    2  A    between atoms: C_5  and  C_6
REMARK    3  A    between atoms: C_5  and  C_7
REMARK    4  A    between atoms: C_12  and  C_13
REMARK    5  A    between atoms: C_13  and  O_14
REMARK                            x       y       z     vdW  Elec       q    Type
REMARK                         _______ _______ _______ _____ _____    ______ ____
ROOT
ATOM      1  C   UNL     1       1.670   1.787  18.567  0.00  0.00    +0.000 C 
ATOM      2  C   UNL     1       2.355   3.105  18.233  0.00  0.00    +0.000 C 
ATOM      3  C   UNL     1       1.547   4.176  18.375  0.00  0.00    +0.000 C 
ATOM      4  C   UNL     1       1.683   5.528  17.755  0.00  0.00    +0.000 C 
ATOM      5  C   UNL     1       2.451   6.612  18.556  0.00  0.00    +0.000 C 
ATOM      6  C   UNL     1       1.964   7.969  18.044  0.00  0.00    +0.000 C 
ATOM      7  C   UNL     1       2.200   6.480  20.070  0.00  0.00    +0.000 C 
ATOM      8  C   UNL     1       3.900   6.427  18.230  0.00  0.00    +0.000 C 
ATOM      9  C   UNL     1       4.856   6.221  19.176  0.00  0.00    +0.000 C 
ATOM     10  C   UNL     1       6.117   5.504  18.896  0.00  0.00    +0.000 C 
ATOM     11  O   UNL     1       6.772   4.996  19.797  0.00  0.00    +0.000 OA
ATOM     12  C   UNL     1       6.580   5.517  17.512  0.00  0.00    +0.000 C 
ATOM     13  C   UNL     1       6.089   4.642  16.604  0.00  0.00    +0.000 C 
ATOM     14  C   UNL     1       5.013   3.520  16.589  0.00  0.00    +0.000 C 
ATOM     15  C   UNL     1       3.791   3.049  17.596  0.00  0.00    +0.000 C 
ENDROOT
BRANCH  12  16
ATOM     16  C   UNL     1       7.543   6.672  17.345  0.00  0.00    +0.000 C 
BRANCH  16  17
ATOM     17  O   UNL     1       8.172   7.054  18.557  0.00  0.00    +0.000 OA
ATOM     18  H   UNL     1       7.934   6.376  19.212  0.00  0.00    +0.000 HD
ENDBRANCH  16  17
ENDBRANCH  12  16
TORSDOF 2
ENDMDL
MODEL 4
REMARK VINA RESULT:      -6.1      2.360      5.060
REMARK  Name = 
REMARK  5 active torsions:
REMARK  status: ('A' for Active; 'I' for Inactive)
REMARK    1  A    between atoms: C_1  and  C_2
REMARK    2  A    between atoms: C_5  and  C_6
REMARK    3  A    between atoms: C_5  and  C_7
REMARK    4  A    between atoms: C_12  and  C_13
REMARK    5  A    between atoms: C_13  and  O_14
REMARK                            x       y       z     vdW  Elec       q    Type
REMARK                         _______ _______ _______ _____ _____    ______ ____
ROOT
ATOM      1  C   UNL     1       1.267   1.931  19.244  0.00  0.00    +0.000 C 
ATOM      2  C   UNL     1       2.015   3.098  18.614  0.00  0.00    +0.000 C 
ATOM      3  C   UNL     1       1.366   4.275  18.736  0.00  0.00    +0.000 C 
ATOM      4  C   UNL     1       1.529   5.512  17.916  0.00  0.00    +0.000 C 
ATOM      5  C   UNL     1       2.545   6.575  18.412  0.00  0.00    +0.000 C 
ATOM      6  C   UNL     1       2.119   7.912  17.801  0.00  0.00    +0.000 C 
ATOM      7  C   UNL     1       2.567   6.662  19.950  0.00  0.00    +0.000 C 
ATOM      8  C   UNL     1       3.880   6.164  17.874  0.00  0.00    +0.000 C 
ATOM      9  C   UNL     1       4.967   5.951  18.664  0.00  0.00    +0.000 C 
ATOM     10  C   UNL     1       6.070   5.046  18.279  0.00  0.00    +0.000 C 
ATOM     11  O   UNL     1       6.822   4.569  19.119  0.00  0.00    +0.000 OA
ATOM     12  C   UNL     1       6.266   4.830  16.849  0.00  0.00    +0.000 C 
ATOM     13  C   UNL     1       5.524   3.924  16.172  0.00  0.00    +0.000 C 
ATOM     14  C   UNL     1       4.351   2.958  16.501  0.00  0.00    +0.000 C 
ATOM     15  C   UNL     1       3.294   2.777  17.757  0.00  0.00    +0.000 C 
ENDROOT
BRANCH  12  16
ATOM     16  C   UNL     1       7.300   5.820  16.358  0.00  0.00    +0.000 C 
BRANCH  16  17
ATOM     17  O   UNL     1       7.751   5.550  15.042  0.00  0.00    +0.000 OA
ATOM     18  H   UNL     1       7.548   4.614  14.872  0.00  0.00    +0.000 HD
ENDBRANCH  16  17
ENDBRANCH  12  16
TORSDOF 2
ENDMDL
MODEL 5
REMARK VINA RESULT:      -6.1      2.605      4.609
REMARK  Name = 
REMARK  5 active torsions:
REMARK  status: ('A' for Active; 'I' for Inactive)
REMARK    1  A    between atoms: C_1  and  C_2
REMARK    2  A    between atoms: C_5  and  C_6
REMARK    3  A    between atoms: C_5  and  C_7
REMARK    4  A    between atoms: C_12  and  C_13
REMARK    5  A    between atoms: C_13  and  O_14
REMARK                            x       y       z     vdW  Elec       q    Type
REMARK                         _______ _______ _______ _____ _____    ______ ____
ROOT
ATOM      1  C   UNL     1       1.777   8.032  20.473  0.00  0.00    +0.000 C 
ATOM      2  C   UNL     1       2.331   6.970  19.534  0.00  0.00    +0.000 C 
ATOM      3  C   UNL     1       3.093   7.479  18.543  0.00  0.00    +0.000 C 
ATOM      4  C   UNL     1       3.437   6.862  17.228  0.00  0.00    +0.000 C 
ATOM      5  C   UNL     1       4.743   6.029  17.144  0.00  0.00    +0.000 C 
ATOM      6  C   UNL     1       5.169   6.019  15.674  0.00  0.00    +0.000 C 
ATOM      7  C   UNL     1       5.853   6.627  18.028  0.00  0.00    +0.000 C 
ATOM      8  C   UNL     1       4.386   4.644  17.587  0.00  0.00    +0.000 C 
ATOM      9  C   UNL     1       5.015   4.004  18.610  0.00  0.00    +0.000 C 
ATOM     10  C   UNL     1       4.366   2.946  19.411  0.00  0.00    +0.000 C 
ATOM     11  O   UNL     1       4.770   2.659  20.530  0.00  0.00    +0.000 OA
ATOM     12  C   UNL     1       3.286   2.207  18.762  0.00  0.00    +0.000 C 
ATOM     13  C   UNL     1       2.028   2.703  18.723  0.00  0.00    +0.000 C 
ATOM     14  C   UNL     1       1.316   4.005  19.183  0.00  0.00    +0.000 C 
ATOM     15  C   UNL     1       1.808   5.496  19.697  0.00  0.00    +0.000 C 
ENDROOT
BRANCH  12  16
ATOM     16  C   UNL     1       3.875   0.962  18.134  0.00  0.00    +0.000 C 
BRANCH  16  17
ATOM     17  O   UNL     1       4.733   0.249  19.008  0.00  0.00    +0.000 OA
ATOM     18  H   UNL     1       4.323   0.293  19.888  0.00  0.00    +0.000 HD
ENDBRANCH  16  17
ENDBRANCH  12  16
TORSDOF 2
ENDMDL
MODEL 6
REMARK VINA RESULT:      -5.8      2.484      5.322
REMARK  Name = 
REMARK  5 active torsions:
REMARK  status: ('A' for Active; 'I' for Inactive)
REMARK    1  A    between atoms: C_1  and  C_2
REMARK    2  A    between atoms: C_5  and  C_6
REMARK    3  A    between atoms: C_5  and  C_7
REMARK    4  A    between atoms: C_12  and  C_13
REMARK    5  A    between atoms: C_13  and  O_14
REMARK                            x       y       z     vdW  Elec       q    Type
REMARK                         _______ _______ _______ _____ _____    ______ ____
ROOT
ATOM      1  C   UNL     1       1.509   8.861  17.800  0.00  0.00    +0.000 C 
ATOM      2  C   UNL     1       2.473   7.706  18.026  0.00  0.00    +0.000 C 
ATOM      3  C   UNL     1       1.974   6.745  18.833  0.00  0.00    +0.000 C 
ATOM      4  C   UNL     1       2.719   5.720  19.623  0.00  0.00    +0.000 C 
ATOM      5  C   UNL     1       2.976   4.344  18.953  0.00  0.00    +0.000 C 
ATOM      6  C   UNL     1       3.188   3.334  20.084  0.00  0.00    +0.000 C 
ATOM      7  C   UNL     1       1.795   3.920  18.060  0.00  0.00    +0.000 C 
ATOM      8  C   UNL     1       4.233   4.495  18.154  0.00  0.00    +0.000 C 
ATOM      9  C   UNL     1       4.303   4.234  16.820  0.00  0.00    +0.000 C 
ATOM     10  C   UNL     1       5.292   4.875  15.931  0.00  0.00    +0.000 C 
ATOM     11  O   UNL     1       5.111   4.940  14.722  0.00  0.00    +0.000 OA
ATOM     12  C   UNL     1       6.527   5.339  16.557  0.00  0.00    +0.000 C 
ATOM     13  C   UNL     1       6.582   6.535  17.187  0.00  0.00    +0.000 C 
ATOM     14  C   UNL     1       5.585   7.680  17.519  0.00  0.00    +0.000 C 
ATOM     15  C   UNL     1       3.943   7.856  17.488  0.00  0.00    +0.000 C 
ENDROOT
BRANCH  12  16
ATOM     16  C   UNL     1       7.562   4.243  16.432  0.00  0.00    +0.000 C 
BRANCH  16  17
ATOM     17  O   UNL     1       8.270   4.004  17.637  0.00  0.00    +0.000 OA
ATOM     18  H   UNL     1       9.099   3.563  17.382  0.00  0.00    +0.000 HD
ENDBRANCH  16  17
ENDBRANCH  12  16
TORSDOF 2
ENDMDL
MODEL 7
REMARK VINA RESULT:      -5.6      2.405      3.595
REMARK  Name = 
REMARK  5 active torsions:
REMARK  status: ('A' for Active; 'I' for Inactive)
REMARK    1  A    between atoms: C_1  and  C_2
REMARK    2  A    between atoms: C_5  and  C_6
REMARK    3  A    between atoms: C_5  and  C_7
REMARK    4  A    between atoms: C_12  and  C_13
REMARK    5  A    between atoms: C_13  and  O_14
REMARK                            x       y       z     vdW  Elec       q    Type
REMARK                         _______ _______ _______ _____ _____    ______ ____
ROOT
ATOM      1  C   UNL     1       5.610   5.431  15.248  0.00  0.00    +0.000 C 
ATOM      2  C   UNL     1       4.845   5.410  16.563  0.00  0.00    +0.000 C 
ATOM      3  C   UNL     1       4.354   6.617  16.914  0.00  0.00    +0.000 C 
ATOM      4  C   UNL     1       3.953   7.095  18.271  0.00  0.00    +0.000 C 
ATOM      5  C   UNL     1       2.469   6.913  18.687  0.00  0.00    +0.000 C 
ATOM      6  C   UNL     1       2.184   7.952  19.774  0.00  0.00    +0.000 C 
ATOM      7  C   UNL     1       1.519   7.104  17.490  0.00  0.00    +0.000 C 
ATOM      8  C   UNL     1       2.358   5.531  19.252  0.00  0.00    +0.000 C 
ATOM      9  C   UNL     1       1.483   4.602  18.779  0.00  0.00    +0.000 C 
ATOM     10  C   UNL     1       1.718   3.149  18.900  0.00  0.00    +0.000 C 
ATOM     11  O   UNL     1       1.154   2.351  18.163  0.00  0.00    +0.000 OA
ATOM     12  C   UNL     1       2.577   2.717  19.999  0.00  0.00    +0.000 C 
ATOM     13  C   UNL     1       3.925   2.745  19.882  0.00  0.00    +0.000 C 
ATOM     14  C   UNL     1       4.953   3.197  18.807  0.00  0.00    +0.000 C 
ATOM     15  C   UNL     1       4.888   4.092  17.421  0.00  0.00    +0.000 C 
ENDROOT
BRANCH  12  16
ATOM     16  C   UNL     1       1.698   2.378  21.183  0.00  0.00    +0.000 C 
BRANCH  16  17
ATOM     17  O   UNL     1       2.025   3.112  22.350  0.00  0.00    +0.000 OA
ATOM     18  H   UNL     1       1.264   3.690  22.530  0.00  0.00    +0.000 HD
ENDBRANCH  16  17
ENDBRANCH  12  16
TORSDOF 2
ENDMDL
MODEL 8
REMARK VINA RESULT:      -5.6      2.007      3.894
REMARK  Name = 
REMARK  5 active torsions:
REMARK  status: ('A' for Active; 'I' for Inactive)
REMARK    1  A    between atoms: C_1  and  C_2
REMARK    2  A    between atoms: C_5  and  C_6
REMARK    3  A    between atoms: C_5  and  C_7
REMARK    4  A    between atoms: C_12  and  C_13
REMARK    5  A    between atoms: C_13  and  O_14
REMARK                            x       y       z     vdW  Elec       q    Type
REMARK                         _______ _______ _______ _____ _____    ______ ____
ROOT
ATOM      1  C   UNL     1       8.230   6.045  19.382  0.00  0.00    +0.000 C 
ATOM      2  C   UNL     1       6.968   5.695  18.605  0.00  0.00    +0.000 C 
ATOM      3  C   UNL     1       7.133   5.752  17.267  0.00  0.00    +0.000 C 
ATOM      4  C   UNL     1       6.090   5.910  16.211  0.00  0.00    +0.000 C 
ATOM      5  C   UNL     1       5.491   4.619  15.594  0.00  0.00    +0.000 C 
ATOM      6  C   UNL     1       4.945   4.999  14.215  0.00  0.00    +0.000 C 
ATOM      7  C   UNL     1       6.549   3.507  15.471  0.00  0.00    +0.000 C 
ATOM      8  C   UNL     1       4.370   4.203  16.496  0.00  0.00    +0.000 C 
ATOM      9  C   UNL     1       4.299   2.975  17.077  0.00  0.00    +0.000 C 
ATOM     10  C   UNL     1       3.578   2.730  18.343  0.00  0.00    +0.000 C 
ATOM     11  O   UNL     1       3.833   1.757  19.040  0.00  0.00    +0.000 OA
ATOM     12  C   UNL     1       2.494   3.653  18.664  0.00  0.00    +0.000 C 
ATOM     13  C   UNL     1       2.745   4.849  19.245  0.00  0.00    +0.000 C 
ATOM     14  C   UNL     1       4.006   5.645  19.685  0.00  0.00    +0.000 C 
ATOM     15  C   UNL     1       5.630   5.519  19.413  0.00  0.00    +0.000 C 
ENDROOT
BRANCH  12  16
ATOM     16  C   UNL     1       1.199   3.059  18.153  0.00  0.00    +0.000 C 
BRANCH  16  17
ATOM     17  O   UNL     1       1.039   1.693  18.495  0.00  0.00    +0.000 OA
ATOM     18  H   UNL     1       1.466   1.183  17.786  0.00  0.00    +0.000 HD
ENDBRANCH  16  17
ENDBRANCH  12  16
TORSDOF 2
ENDMDL
MODEL 9
REMARK VINA RESULT:      -5.6      2.325      5.254
REMARK  Name = 
REMARK  5 active torsions:
REMARK  status: ('A' for Active; 'I' for Inactive)
REMARK    1  A    between atoms: C_1  and  C_2
REMARK    2  A    between atoms: C_5  and  C_6
REMARK    3  A    between atoms: C_5  and  C_7
REMARK    4  A    between atoms: C_12  and  C_13
REMARK    5  A    between atoms: C_13  and  O_14
REMARK                            x       y       z     vdW  Elec       q    Type
REMARK                         _______ _______ _______ _____ _____    ______ ____
ROOT
ATOM      1  C   UNL     1       1.571   2.533  21.510  0.00  0.00    +0.000 C 
ATOM      2  C   UNL     1       2.054   3.330  20.307  0.00  0.00    +0.000 C 
ATOM      3  C   UNL     1       1.439   4.525  20.176  0.00  0.00    +0.000 C 
ATOM      4  C   UNL     1       1.305   5.369  18.952  0.00  0.00    +0.000 C 
ATOM      5  C   UNL     1       2.391   6.448  18.701  0.00  0.00    +0.000 C 
ATOM      6  C   UNL     1       1.759   7.511  17.800  0.00  0.00    +0.000 C 
ATOM      7  C   UNL     1       2.880   7.075  20.020  0.00  0.00    +0.000 C 
ATOM      8  C   UNL     1       3.509   5.760  17.981  0.00  0.00    +0.000 C 
ATOM      9  C   UNL     1       4.792   5.750  18.434  0.00  0.00    +0.000 C 
ATOM     10  C   UNL     1       5.750   4.677  18.099  0.00  0.00    +0.000 C 
ATOM     11  O   UNL     1       6.738   4.469  18.792  0.00  0.00    +0.000 OA
ATOM     12  C   UNL     1       5.505   3.950  16.858  0.00  0.00    +0.000 C 
ATOM     13  C   UNL     1       4.619   2.929  16.811  0.00  0.00    +0.000 C 
ATOM     14  C   UNL     1       3.633   2.248  17.801  0.00  0.00    +0.000 C 
ATOM     15  C   UNL     1       3.017   2.617  19.289  0.00  0.00    +0.000 C 
ENDROOT
BRANCH  12  16
ATOM     16  C   UNL     1       6.308   4.608  15.756  0.00  0.00    +0.000 C 
BRANCH  16  17
ATOM     17  O   UNL     1       7.612   4.985  16.165  0.00  0.00    +0.000 OA
ATOM     18  H   UNL     1       8.228   4.478  15.610  0.00  0.00    +0.000 HD
ENDBRANCH  16  17
ENDBRANCH  12  16
TORSDOF 2
ENDMDL
