MODEL 1
REMARK VINA RESULT:      -6.4      0.000      0.000
REMARK  Name = 
REMARK  7 active torsions:
REMARK  status: ('A' for Active; 'I' for Inactive)
REMARK    1  A    between atoms: C_1  and  C_2
REMARK    2  A    between atoms: C_2  and  C_3
REMARK    3  A    between atoms: C_2  and  C_4
REMARK    4  A    between atoms: C_4  and  C_5
REMARK    5  A    between atoms: C_13  and  C_14
REMARK    6  A    between atoms: C_20  and  C_21
REMARK    7  A    between atoms: C_20  and  C_22
REMARK                            x       y       z     vdW  Elec       q    Type
REMARK                         _______ _______ _______ _____ _____    ______ ____
ROOT
ATOM      1  C   UNL     1       2.643   5.606  20.019  0.00  0.00    +0.000 A 
ATOM      2  N   UNL     1       2.039   6.700  20.574  0.00  0.00    +0.000 NA
ATOM      3  C   UNL     1       1.962   7.877  19.896  0.00  0.00    +0.000 A 
ATOM      4  N   UNL     1       1.232   8.942  20.448  0.00  0.00    +0.000 N 
ATOM      5  C   UNL     1       0.890   8.893  21.875  0.00  0.00    +0.000 C 
ATOM      6  C   UNL     1      -0.633   8.977  21.928  0.00  0.00    +0.000 C 
ATOM      7  C   UNL     1      -0.977   9.811  20.711  0.00  0.00    +0.000 C 
ATOM      8  C   UNL     1       0.041   9.348  19.673  0.00  0.00    +0.000 C 
ATOM      9  C   UNL     1       2.603   8.013  18.656  0.00  0.00    +0.000 A 
ATOM     10  C   UNL     1       3.231   6.894  18.074  0.00  0.00    +0.000 A 
ATOM     11  C   UNL     1       3.183   5.646  18.728  0.00  0.00    +0.000 A 
ATOM     12  C   UNL     1       3.704   4.413  18.029  0.00  0.00    +0.000 C 
ATOM     13  O   UNL     1       4.151   4.616  16.685  0.00  0.00    +0.000 OA
ATOM     14  C   UNL     1       4.893   5.826  16.494  0.00  0.00    +0.000 C 
ATOM     15  C   UNL     1       5.366   5.821  15.033  0.00  0.00    +0.000 C 
ATOM     16  C   UNL     1       6.141   5.896  17.393  0.00  0.00    +0.000 C 
ATOM     17  C   UNL     1       3.930   7.001  16.731  0.00  0.00    +0.000 C 
ENDROOT
BRANCH   9  18
ATOM     18  C   UNL     1       2.643   9.282  17.988  0.00  0.00    +0.000 C 
ATOM     19  N   UNL     1       2.685  10.338  17.501  0.00  0.00    +0.000 NA
ENDBRANCH   9  18
BRANCH   1  20
ATOM     20  C   UNL     1       2.583   4.341  20.863  0.00  0.00    +0.000 C 
BRANCH  20  22
ATOM     21  C   UNL     1       0.792   2.990  19.599  0.00  0.00    +0.000 C 
ATOM     22  C   UNL     1       1.261   3.531  20.948  0.00  0.00    +0.000 C 
ATOM     23  C   UNL     1       1.427   2.366  21.937  0.00  0.00    +0.000 C 
ENDBRANCH  20  22
ENDBRANCH   1  20
TORSDOF 3
ENDMDL
MODEL 2
REMARK VINA RESULT:      -6.2      4.507      7.374
REMARK  Name = 
REMARK  7 active torsions:
REMARK  status: ('A' for Active; 'I' for Inactive)
REMARK    1  A    between atoms: C_1  and  C_2
REMARK    2  A    between atoms: C_2  and  C_3
REMARK    3  A    between atoms: C_2  and  C_4
REMARK    4  A    between atoms: C_4  and  C_5
REMARK    5  A    between atoms: C_13  and  C_14
REMARK    6  A    between atoms: C_20  and  C_21
REMARK    7  A    between atoms: C_20  and  C_22
REMARK                            x       y       z     vdW  Elec       q    Type
REMARK                         _______ _______ _______ _____ _____    ______ ____
ROOT
ATOM      1  C   UNL     1      -1.629  11.774  20.626  0.00  0.00    +0.000 A 
ATOM      2  N   UNL     1      -2.834  12.129  20.084  0.00  0.00    +0.000 NA
ATOM      3  C   UNL     1      -3.215  11.666  18.863  0.00  0.00    +0.000 A 
ATOM      4  N   UNL     1      -4.506  11.954  18.392  0.00  0.00    +0.000 N 
ATOM      5  C   UNL     1      -5.267  13.031  19.041  0.00  0.00    +0.000 C 
ATOM      6  C   UNL     1      -6.549  12.373  19.542  0.00  0.00    +0.000 C 
ATOM      7  C   UNL     1      -6.790  11.268  18.534  0.00  0.00    +0.000 C 
ATOM      8  C   UNL     1      -5.381  10.776  18.214  0.00  0.00    +0.000 C 
ATOM      9  C   UNL     1      -2.324  10.906  18.093  0.00  0.00    +0.000 A 
ATOM     10  C   UNL     1      -1.078  10.537  18.639  0.00  0.00    +0.000 A 
ATOM     11  C   UNL     1      -0.754  10.909  19.959  0.00  0.00    +0.000 A 
ATOM     12  C   UNL     1       0.501  10.371  20.603  0.00  0.00    +0.000 C 
ATOM     13  O   UNL     1       1.243   9.438  19.811  0.00  0.00    +0.000 OA
ATOM     14  C   UNL     1       1.330   9.790  18.425  0.00  0.00    +0.000 C 
ATOM     15  C   UNL     1       2.233   8.739  17.764  0.00  0.00    +0.000 C 
ATOM     16  C   UNL     1       1.979  11.170  18.212  0.00  0.00    +0.000 C 
ATOM     17  C   UNL     1      -0.089   9.710  17.837  0.00  0.00    +0.000 C 
ENDROOT
BRANCH   9  18
ATOM     18  C   UNL     1      -2.659  10.521  16.753  0.00  0.00    +0.000 C 
ATOM     19  N   UNL     1      -2.971  10.255  15.663  0.00  0.00    +0.000 NA
ENDBRANCH   9  18
BRANCH   1  20
ATOM     20  C   UNL     1      -1.374  12.304  22.031  0.00  0.00    +0.000 C 
BRANCH  20  22
ATOM     21  C   UNL     1      -3.382  12.278  23.643  0.00  0.00    +0.000 C 
ATOM     22  C   UNL     1      -2.474  13.127  22.756  0.00  0.00    +0.000 C 
ATOM     23  C   UNL     1      -1.823  14.234  23.600  0.00  0.00    +0.000 C 
ENDBRANCH  20  22
ENDBRANCH   1  20
TORSDOF 3
ENDMDL
MODEL 3
REMARK VINA RESULT:      -6.1      3.595      7.794
REMARK  Name = 
REMARK  7 active torsions:
REMARK  status: ('A' for Active; 'I' for Inactive)
REMARK    1  A    between atoms: C_1  and  C_2
REMARK    2  A    between atoms: C_2  and  C_3
REMARK    3  A    between atoms: C_2  and  C_4
REMARK    4  A    between atoms: C_4  and  C_5
REMARK    5  A    between atoms: C_13  and  C_14
REMARK    6  A    between atoms: C_20  and  C_21
REMARK    7  A    between atoms: C_20  and  C_22
REMARK                            x       y       z     vdW  Elec       q    Type
REMARK                         _______ _______ _______ _____ _____    ______ ____
ROOT
ATOM      1  C   UNL     1      -0.749  10.774  18.696  0.00  0.00    +0.000 A 
ATOM      2  N   UNL     1       0.292   9.888  18.637  0.00  0.00    +0.000 NA
ATOM      3  C   UNL     1       0.909   9.458  19.770  0.00  0.00    +0.000 A 
ATOM      4  N   UNL     1       1.893   8.460  19.680  0.00  0.00    +0.000 N 
ATOM      5  C   UNL     1       2.486   8.175  18.367  0.00  0.00    +0.000 C 
ATOM      6  C   UNL     1       2.212   6.696  18.113  0.00  0.00    +0.000 C 
ATOM      7  C   UNL     1       2.210   6.099  19.506  0.00  0.00    +0.000 C 
ATOM      8  C   UNL     1       1.552   7.187  20.350  0.00  0.00    +0.000 C 
ATOM      9  C   UNL     1       0.555  10.006  21.011  0.00  0.00    +0.000 A 
ATOM     10  C   UNL     1      -0.513  10.923  21.084  0.00  0.00    +0.000 A 
ATOM     11  C   UNL     1      -1.232  11.254  19.918  0.00  0.00    +0.000 A 
ATOM     12  C   UNL     1      -2.480  12.098  20.021  0.00  0.00    +0.000 C 
ATOM     13  O   UNL     1      -2.878  12.440  21.353  0.00  0.00    +0.000 OA
ATOM     14  C   UNL     1      -1.789  12.792  22.214  0.00  0.00    +0.000 C 
ATOM     15  C   UNL     1      -2.412  13.217  23.552  0.00  0.00    +0.000 C 
ATOM     16  C   UNL     1      -0.977  13.983  21.673  0.00  0.00    +0.000 C 
ATOM     17  C   UNL     1      -0.929  11.533  22.411  0.00  0.00    +0.000 C 
ENDROOT
BRANCH   9  18
ATOM     18  C   UNL     1       1.283   9.662  22.198  0.00  0.00    +0.000 C 
ATOM     19  N   UNL     1       1.919   9.361  23.126  0.00  0.00    +0.000 NA
ENDBRANCH   9  18
BRANCH   1  20
ATOM     20  C   UNL     1      -1.390  11.103  17.354  0.00  0.00    +0.000 C 
BRANCH  20  22
ATOM     21  C   UNL     1      -3.442   9.558  17.532  0.00  0.00    +0.000 C 
ATOM     22  C   UNL     1      -2.295  10.054  16.654  0.00  0.00    +0.000 C 
ATOM     23  C   UNL     1      -2.864  10.643  15.353  0.00  0.00    +0.000 C 
ENDBRANCH  20  22
ENDBRANCH   1  20
TORSDOF 3
ENDMDL
MODEL 4
REMARK VINA RESULT:      -5.9      5.004      7.899
REMARK  Name = 
REMARK  7 active torsions:
REMARK  status: ('A' for Active; 'I' for Inactive)
REMARK    1  A    between atoms: C_1  and  C_2
REMARK    2  A    between atoms: C_2  and  C_3
REMARK    3  A    between atoms: C_2  and  C_4
REMARK    4  A    between atoms: C_4  and  C_5
REMARK    5  A    between atoms: C_13  and  C_14
REMARK    6  A    between atoms: C_20  and  C_21
REMARK    7  A    between atoms: C_20  and  C_22
REMARK                            x       y       z     vdW  Elec       q    Type
REMARK                         _______ _______ _______ _____ _____    ______ ____
ROOT
ATOM      1  C   UNL     1      -1.897  12.123  21.324  0.00  0.00    +0.000 A 
ATOM      2  N   UNL     1      -3.122  12.555  20.893  0.00  0.00    +0.000 NA
ATOM      3  C   UNL     1      -3.571  12.251  19.646  0.00  0.00    +0.000 A 
ATOM      4  N   UNL     1      -4.879  12.609  19.280  0.00  0.00    +0.000 N 
ATOM      5  C   UNL     1      -5.588  13.604  20.095  0.00  0.00    +0.000 C 
ATOM      6  C   UNL     1      -6.855  12.903  20.577  0.00  0.00    +0.000 C 
ATOM      7  C   UNL     1      -7.164  11.934  19.455  0.00  0.00    +0.000 C 
ATOM      8  C   UNL     1      -5.781  11.471  19.003  0.00  0.00    +0.000 C 
ATOM      9  C   UNL     1      -2.732  11.583  18.742  0.00  0.00    +0.000 A 
ATOM     10  C   UNL     1      -1.466  11.137  19.173  0.00  0.00    +0.000 A 
ATOM     11  C   UNL     1      -1.071  11.339  20.511  0.00  0.00    +0.000 A 
ATOM     12  C   UNL     1       0.206  10.712  21.019  0.00  0.00    +0.000 C 
ATOM     13  O   UNL     1       0.891   9.878  20.080  0.00  0.00    +0.000 OA
ATOM     14  C   UNL     1       0.915  10.398  18.745  0.00  0.00    +0.000 C 
ATOM     15  C   UNL     1       1.766   9.428  17.914  0.00  0.00    +0.000 C 
ATOM     16  C   UNL     1       1.575  11.787  18.671  0.00  0.00    +0.000 C 
ATOM     17  C   UNL     1      -0.533  10.406  18.226  0.00  0.00    +0.000 C 
ENDROOT
BRANCH   9  18
ATOM     18  C   UNL     1      -3.139  11.372  17.384  0.00  0.00    +0.000 C 
ATOM     19  N   UNL     1      -3.495  11.146  16.299  0.00  0.00    +0.000 NA
ENDBRANCH   9  18
BRANCH   1  20
ATOM     20  C   UNL     1      -1.564  12.472  22.768  0.00  0.00    +0.000 C 
BRANCH  20  22
ATOM     21  C   UNL     1      -0.491  14.626  21.851  0.00  0.00    +0.000 C 
ATOM     22  C   UNL     1      -0.830  13.802  23.091  0.00  0.00    +0.000 C 
ATOM     23  C   UNL     1      -1.682  14.647  24.051  0.00  0.00    +0.000 C 
ENDBRANCH  20  22
ENDBRANCH   1  20
TORSDOF 3
ENDMDL
MODEL 5
REMARK VINA RESULT:      -5.8      1.790      4.609
REMARK  Name = 
REMARK  7 active torsions:
REMARK  status: ('A' for Active; 'I' for Inactive)
REMARK    1  A    between atoms: C_1  and  C_2
REMARK    2  A    between atoms: C_2  and  C_3
REMARK    3  A    between atoms: C_2  and  C_4
REMARK    4  A    between atoms: C_4  and  C_5
REMARK    5  A    between atoms: C_13  and  C_14
REMARK    6  A    between atoms: C_20  and  C_21
REMARK    7  A    between atoms: C_20  and  C_22
REMARK                            x       y       z     vdW  Elec       q    Type
REMARK                         _______ _______ _______ _____ _____    ______ ____
ROOT
ATOM      1  C   UNL     1       3.008   7.497  18.151  0.00  0.00    +0.000 A 
ATOM      2  N   UNL     1       2.364   8.696  18.288  0.00  0.00    +0.000 NA
ATOM      3  C   UNL     1       1.532   8.928  19.338  0.00  0.00    +0.000 A 
ATOM      4  N   UNL     1       0.983  10.209  19.510  0.00  0.00    +0.000 N 
ATOM      5  C   UNL     1       1.017  11.145  18.379  0.00  0.00    +0.000 C 
ATOM      6  C   UNL     1       1.781  12.365  18.887  0.00  0.00    +0.000 C 
ATOM      7  C   UNL     1       1.451  12.390  20.365  0.00  0.00    +0.000 C 
ATOM      8  C   UNL     1       1.412  10.911  20.739  0.00  0.00    +0.000 C 
ATOM      9  C   UNL     1       1.235   7.895  20.238  0.00  0.00    +0.000 A 
ATOM     10  C   UNL     1       1.889   6.653  20.106  0.00  0.00    +0.000 A 
ATOM     11  C   UNL     1       2.852   6.474  19.093  0.00  0.00    +0.000 A 
ATOM     12  C   UNL     1       3.676   5.208  19.057  0.00  0.00    +0.000 C 
ATOM     13  O   UNL     1       3.445   4.298  20.138  0.00  0.00    +0.000 OA
ATOM     14  C   UNL     1       2.066   4.160  20.500  0.00  0.00    +0.000 C 
ATOM     15  C   UNL     1       2.008   3.085  21.595  0.00  0.00    +0.000 C 
ATOM     16  C   UNL     1       1.198   3.681  19.322  0.00  0.00    +0.000 C 
ATOM     17  C   UNL     1       1.598   5.512  21.064  0.00  0.00    +0.000 C 
ENDROOT
BRANCH   9  18
ATOM     18  C   UNL     1       0.261   8.082  21.273  0.00  0.00    +0.000 C 
ATOM     19  N   UNL     1      -0.573   8.243  22.069  0.00  0.00    +0.000 NA
ENDBRANCH   9  18
BRANCH   1  20
ATOM     20  C   UNL     1       3.966   7.412  16.971  0.00  0.00    +0.000 C 
BRANCH  20  22
ATOM     21  C   UNL     1       5.372   5.640  15.740  0.00  0.00    +0.000 C 
ATOM     22  C   UNL     1       5.175   6.438  17.027  0.00  0.00    +0.000 C 
ATOM     23  C   UNL     1       6.459   7.221  17.346  0.00  0.00    +0.000 C 
ENDBRANCH  20  22
ENDBRANCH   1  20
TORSDOF 3
ENDMDL
MODEL 6
REMARK VINA RESULT:      -5.8      4.364      7.674
REMARK  Name = 
REMARK  7 active torsions:
REMARK  status: ('A' for Active; 'I' for Inactive)
REMARK    1  A    between atoms: C_1  and  C_2
REMARK    2  A    between atoms: C_2  and  C_3
REMARK    3  A    between atoms: C_2  and  C_4
REMARK    4  A    between atoms: C_4  and  C_5
REMARK    5  A    between atoms: C_13  and  C_14
REMARK    6  A    between atoms: C_20  and  C_21
REMARK    7  A    between atoms: C_20  and  C_22
REMARK                            x       y       z     vdW  Elec       q    Type
REMARK                         _______ _______ _______ _____ _____    ______ ____
ROOT
ATOM      1  C   UNL     1       0.009  10.500  18.719  0.00  0.00    +0.000 A 
ATOM      2  N   UNL     1      -0.958  10.142  17.820  0.00  0.00    +0.000 NA
ATOM      3  C   UNL     1      -2.222  10.634  17.919  0.00  0.00    +0.000 A 
ATOM      4  N   UNL     1      -3.156  10.339  16.912  0.00  0.00    +0.000 N 
ATOM      5  C   UNL     1      -2.868   9.232  15.991  0.00  0.00    +0.000 C 
ATOM      6  C   UNL     1      -2.879   9.853  14.598  0.00  0.00    +0.000 C 
ATOM      7  C   UNL     1      -3.879  10.983  14.729  0.00  0.00    +0.000 C 
ATOM      8  C   UNL     1      -3.629  11.508  16.140  0.00  0.00    +0.000 C 
ATOM      9  C   UNL     1      -2.579  11.432  19.016  0.00  0.00    +0.000 A 
ATOM     10  C   UNL     1      -1.592  11.804  19.951  0.00  0.00    +0.000 A 
ATOM     11  C   UNL     1      -0.256  11.398  19.758  0.00  0.00    +0.000 A 
ATOM     12  C   UNL     1       0.829  11.937  20.660  0.00  0.00    +0.000 C 
ATOM     13  O   UNL     1       0.398  12.906  21.622  0.00  0.00    +0.000 OA
ATOM     14  C   UNL     1      -0.857  12.597  22.238  0.00  0.00    +0.000 C 
ATOM     15  C   UNL     1      -1.102  13.682  23.296  0.00  0.00    +0.000 C 
ATOM     16  C   UNL     1      -0.837  11.234  22.956  0.00  0.00    +0.000 C 
ATOM     17  C   UNL     1      -1.939  12.671  21.148  0.00  0.00    +0.000 C 
ENDROOT
BRANCH   9  18
ATOM     18  C   UNL     1      -3.937  11.851  19.206  0.00  0.00    +0.000 C 
ATOM     19  N   UNL     1      -5.020  12.231  19.402  0.00  0.00    +0.000 NA
ENDBRANCH   9  18
BRANCH   1  20
ATOM     20  C   UNL     1       1.393   9.932  18.434  0.00  0.00    +0.000 C 
BRANCH  20  22
ATOM     21  C   UNL     1       2.934   7.929  17.942  0.00  0.00    +0.000 C 
ATOM     22  C   UNL     1       1.660   8.415  18.629  0.00  0.00    +0.000 C 
ATOM     23  C   UNL     1       1.731   8.089  20.130  0.00  0.00    +0.000 C 
ENDBRANCH  20  22
ENDBRANCH   1  20
TORSDOF 3
ENDMDL
MODEL 7
REMARK VINA RESULT:      -5.8      2.173      5.198
REMARK  Name = 
REMARK  7 active torsions:
REMARK  status: ('A' for Active; 'I' for Inactive)
REMARK    1  A    between atoms: C_1  and  C_2
REMARK    2  A    between atoms: C_2  and  C_3
REMARK    3  A    between atoms: C_2  and  C_4
REMARK    4  A    between atoms: C_4  and  C_5
REMARK    5  A    between atoms: C_13  and  C_14
REMARK    6  A    between atoms: C_20  and  C_21
REMARK    7  A    between atoms: C_20  and  C_22
REMARK                            x       y       z     vdW  Elec       q    Type
REMARK                         _______ _______ _______ _____ _____    ______ ____
ROOT
ATOM      1  C   UNL     1       3.411   6.304  17.810  0.00  0.00    +0.000 A 
ATOM      2  N   UNL     1       2.653   5.453  18.567  0.00  0.00    +0.000 NA
ATOM      3  C   UNL     1       2.908   4.117  18.586  0.00  0.00    +0.000 A 
ATOM      4  N   UNL     1       2.187   3.292  19.465  0.00  0.00    +0.000 N 
ATOM      5  C   UNL     1       0.950   3.812  20.060  0.00  0.00    +0.000 C 
ATOM      6  C   UNL     1       1.165   3.740  21.568  0.00  0.00    +0.000 C 
ATOM      7  C   UNL     1       2.082   2.545  21.731  0.00  0.00    +0.000 C 
ATOM      8  C   UNL     1       2.999   2.642  20.515  0.00  0.00    +0.000 C 
ATOM      9  C   UNL     1       3.887   3.579  17.738  0.00  0.00    +0.000 A 
ATOM     10  C   UNL     1       4.672   4.445  16.951  0.00  0.00    +0.000 A 
ATOM     11  C   UNL     1       4.487   5.839  17.046  0.00  0.00    +0.000 A 
ATOM     12  C   UNL     1       5.440   6.772  16.336  0.00  0.00    +0.000 C 
ATOM     13  O   UNL     1       6.530   6.135  15.662  0.00  0.00    +0.000 OA
ATOM     14  C   UNL     1       6.166   4.935  14.969  0.00  0.00    +0.000 C 
ATOM     15  C   UNL     1       7.428   4.456  14.236  0.00  0.00    +0.000 C 
ATOM     16  C   UNL     1       5.072   5.179  13.913  0.00  0.00    +0.000 C 
ATOM     17  C   UNL     1       5.745   3.900  16.025  0.00  0.00    +0.000 C 
ENDROOT
BRANCH   9  18
ATOM     18  C   UNL     1       4.079   2.161  17.649  0.00  0.00    +0.000 C 
ATOM     19  N   UNL     1       4.214   1.005  17.634  0.00  0.00    +0.000 NA
ENDBRANCH   9  18
BRANCH   1  20
ATOM     20  C   UNL     1       3.058   7.778  17.951  0.00  0.00    +0.000 C 
BRANCH  20  22
ATOM     21  C   UNL     1       1.729   8.266  20.102  0.00  0.00    +0.000 C 
ATOM     22  C   UNL     1       1.697   8.189  18.577  0.00  0.00    +0.000 C 
ATOM     23  C   UNL     1       1.250   9.544  18.004  0.00  0.00    +0.000 C 
ENDBRANCH  20  22
ENDBRANCH   1  20
TORSDOF 3
ENDMDL
MODEL 8
REMARK VINA RESULT:      -5.8      6.351      9.993
REMARK  Name = 
REMARK  7 active torsions:
REMARK  status: ('A' for Active; 'I' for Inactive)
REMARK    1  A    between atoms: C_1  and  C_2
REMARK    2  A    between atoms: C_2  and  C_3
REMARK    3  A    between atoms: C_2  and  C_4
REMARK    4  A    between atoms: C_4  and  C_5
REMARK    5  A    between atoms: C_13  and  C_14
REMARK    6  A    between atoms: C_20  and  C_21
REMARK    7  A    between atoms: C_20  and  C_22
REMARK                            x       y       z     vdW  Elec       q    Type
REMARK                         _______ _______ _______ _____ _____    ______ ____
ROOT
ATOM      1  C   UNL     1      -2.103  12.310  20.316  0.00  0.00    +0.000 A 
ATOM      2  N   UNL     1      -2.412  11.476  19.276  0.00  0.00    +0.000 NA
ATOM      3  C   UNL     1      -3.661  11.461  18.739  0.00  0.00    +0.000 A 
ATOM      4  N   UNL     1      -3.910  10.679  17.599  0.00  0.00    +0.000 N 
ATOM      5  C   UNL     1      -2.943   9.634  17.240  0.00  0.00    +0.000 C 
ATOM      6  C   UNL     1      -2.483   9.976  15.827  0.00  0.00    +0.000 C 
ATOM      7  C   UNL     1      -3.697  10.649  15.220  0.00  0.00    +0.000 C 
ATOM      8  C   UNL     1      -4.275  11.444  16.387  0.00  0.00    +0.000 C 
ATOM      9  C   UNL     1      -4.683  12.226  19.320  0.00  0.00    +0.000 A 
ATOM     10  C   UNL     1      -4.378  13.087  20.394  0.00  0.00    +0.000 A 
ATOM     11  C   UNL     1      -3.049  13.193  20.850  0.00  0.00    +0.000 A 
ATOM     12  C   UNL     1      -2.690  14.238  21.880  0.00  0.00    +0.000 C 
ATOM     13  O   UNL     1      -3.759  15.109  22.263  0.00  0.00    +0.000 OA
ATOM     14  C   UNL     1      -5.020  14.448  22.427  0.00  0.00    +0.000 C 
ATOM     15  C   UNL     1      -6.007  15.511  22.928  0.00  0.00    +0.000 C 
ATOM     16  C   UNL     1      -4.959  13.326  23.481  0.00  0.00    +0.000 C 
ATOM     17  C   UNL     1      -5.456  13.934  21.045  0.00  0.00    +0.000 C 
ENDROOT
BRANCH   9  18
ATOM     18  C   UNL     1      -6.033  12.122  18.849  0.00  0.00    +0.000 C 
ATOM     19  N   UNL     1      -7.121  11.978  18.460  0.00  0.00    +0.000 NA
ENDBRANCH   9  18
BRANCH   1  20
ATOM     20  C   UNL     1      -0.647  12.273  20.759  0.00  0.00    +0.000 C 
BRANCH  20  22
ATOM     21  C   UNL     1      -1.190  11.038  22.953  0.00  0.00    +0.000 C 
ATOM     22  C   UNL     1      -0.189  11.232  21.816  0.00  0.00    +0.000 C 
ATOM     23  C   UNL     1       0.077   9.880  21.133  0.00  0.00    +0.000 C 
ENDBRANCH  20  22
ENDBRANCH   1  20
TORSDOF 3
ENDMDL
MODEL 9
REMARK VINA RESULT:      -5.8      6.280     10.186
REMARK  Name = 
REMARK  7 active torsions:
REMARK  status: ('A' for Active; 'I' for Inactive)
REMARK    1  A    between atoms: C_1  and  C_2
REMARK    2  A    between atoms: C_2  and  C_3
REMARK    3  A    between atoms: C_2  and  C_4
REMARK    4  A    between atoms: C_4  and  C_5
REMARK    5  A    between atoms: C_13  and  C_14
REMARK    6  A    between atoms: C_20  and  C_21
REMARK    7  A    between atoms: C_20  and  C_22
REMARK                            x       y       z     vdW  Elec       q    Type
REMARK                         _______ _______ _______ _____ _____    ______ ____
ROOT
ATOM      1  C   UNL     1      -4.398  12.752  20.840  0.00  0.00    +0.000 A 
ATOM      2  N   UNL     1      -3.555  12.363  19.835  0.00  0.00    +0.000 NA
ATOM      3  C   UNL     1      -2.206  12.396  20.002  0.00  0.00    +0.000 A 
ATOM      4  N   UNL     1      -1.376  11.879  18.994  0.00  0.00    +0.000 N 
ATOM      5  C   UNL     1      -1.946  11.661  17.658  0.00  0.00    +0.000 C 
ATOM      6  C   UNL     1      -1.740  10.178  17.369  0.00  0.00    +0.000 C 
ATOM      7  C   UNL     1      -0.467   9.850  18.121  0.00  0.00    +0.000 C 
ATOM      8  C   UNL     1      -0.583  10.694  19.387  0.00  0.00    +0.000 C 
ATOM      9  C   UNL     1      -1.658  12.937  21.174  0.00  0.00    +0.000 A 
ATOM     10  C   UNL     1      -2.516  13.344  22.216  0.00  0.00    +0.000 A 
ATOM     11  C   UNL     1      -3.909  13.175  22.081  0.00  0.00    +0.000 A 
ATOM     12  C   UNL     1      -4.815  13.449  23.258  0.00  0.00    +0.000 C 
ATOM     13  O   UNL     1      -4.146  13.800  24.474  0.00  0.00    +0.000 OA
ATOM     14  C   UNL     1      -3.037  14.688  24.295  0.00  0.00    +0.000 C 
ATOM     15  C   UNL     1      -2.516  15.024  25.699  0.00  0.00    +0.000 C 
ATOM     16  C   UNL     1      -3.448  16.008  23.616  0.00  0.00    +0.000 C 
ATOM     17  C   UNL     1      -1.960  13.929  23.501  0.00  0.00    +0.000 C 
ENDROOT
BRANCH   9  18
ATOM     18  C   UNL     1      -0.240  13.100  21.313  0.00  0.00    +0.000 C 
ATOM     19  N   UNL     1       0.918  13.204  21.370  0.00  0.00    +0.000 NA
ENDBRANCH   9  18
BRANCH   1  20
ATOM     20  C   UNL     1      -5.881  12.586  20.536  0.00  0.00    +0.000 C 
BRANCH  20  22
ATOM     21  C   UNL     1      -7.357  10.488  20.309  0.00  0.00    +0.000 C 
ATOM     22  C   UNL     1      -6.356  11.419  19.628  0.00  0.00    +0.000 C 
ATOM     23  C   UNL     1      -6.976  11.983  18.339  0.00  0.00    +0.000 C 
ENDBRANCH  20  22
ENDBRANCH   1  20
TORSDOF 3
ENDMDL
