MODEL 1
REMARK VINA RESULT:      -6.4      0.000      0.000
REMARK  Name = 
REMARK  1 active torsions:
REMARK  status: ('A' for Active; 'I' for Inactive)
REMARK    1  A    between atoms: C_1  and  C_2
REMARK                            x       y       z     vdW  Elec       q    Type
REMARK                         _______ _______ _______ _____ _____    ______ ____
ROOT
ATOM      1  C   UNL     1       3.568   2.338  18.421  0.00  0.00    +0.000 C 
ATOM      2  C   UNL     1       4.464   3.506  18.247  0.00  0.00    +0.000 A 
ATOM      3  N   UNL     1       4.453   4.370  17.250  0.00  0.00    +0.000 NA
ATOM      4  C   UNL     1       5.487   5.243  17.500  0.00  0.00    +0.000 A 
ATOM      5  C   UNL     1       6.121   4.899  18.673  0.00  0.00    +0.000 A 
ATOM      6  N   UNL     1       5.456   3.808  19.152  0.00  0.00    +0.000 N 
ATOM      7  C   UNL     1       7.250   5.581  19.215  0.00  0.00    +0.000 C 
ATOM      8  O   UNL     1       7.802   5.286  20.267  0.00  0.00    +0.000 OA
ATOM      9  C   UNL     1       7.742   6.718  18.381  0.00  0.00    +0.000 C 
ATOM     10  C   UNL     1       7.128   7.063  17.236  0.00  0.00    +0.000 C 
ATOM     11  C   UNL     1       5.917   6.369  16.684  0.00  0.00    +0.000 C 
ATOM     12  O   UNL     1       5.391   6.756  15.648  0.00  0.00    +0.000 OA
ATOM     13  H   UNL     1       5.673   3.303  20.002  0.00  0.00    +0.000 HD
ENDROOT
TORSDOF 0
ENDMDL
MODEL 2
REMARK VINA RESULT:      -6.2      0.264      2.803
REMARK  Name = 
REMARK  1 active torsions:
REMARK  status: ('A' for Active; 'I' for Inactive)
REMARK    1  A    between atoms: C_1  and  C_2
REMARK                            x       y       z     vdW  Elec       q    Type
REMARK                         _______ _______ _______ _____ _____    ______ ____
ROOT
ATOM      1  C   UNL     1       3.214   2.810  18.606  0.00  0.00    +0.000 C 
ATOM      2  C   UNL     1       4.333   3.771  18.457  0.00  0.00    +0.000 A 
ATOM      3  N   UNL     1       5.328   3.964  19.302  0.00  0.00    +0.000 NA
ATOM      4  C   UNL     1       6.086   4.977  18.762  0.00  0.00    +0.000 A 
ATOM      5  C   UNL     1       5.539   5.390  17.568  0.00  0.00    +0.000 A 
ATOM      6  N   UNL     1       4.438   4.609  17.371  0.00  0.00    +0.000 N 
ATOM      7  C   UNL     1       6.061   6.440  16.757  0.00  0.00    +0.000 C 
ATOM      8  O   UNL     1       5.585   6.795  15.686  0.00  0.00    +0.000 OA
ATOM      9  C   UNL     1       7.269   7.113  17.321  0.00  0.00    +0.000 C 
ATOM     10  C   UNL     1       7.812   6.714  18.485  0.00  0.00    +0.000 C 
ATOM     11  C   UNL     1       7.286   5.584  19.320  0.00  0.00    +0.000 C 
ATOM     12  O   UNL     1       7.848   5.256  20.357  0.00  0.00    +0.000 OA
ATOM     13  H   UNL     1       3.804   4.659  16.583  0.00  0.00    +0.000 HD
ENDROOT
TORSDOF 0
ENDMDL
MODEL 3
REMARK VINA RESULT:      -6.1      3.017      4.953
REMARK  Name = 
REMARK  1 active torsions:
REMARK  status: ('A' for Active; 'I' for Inactive)
REMARK    1  A    between atoms: C_1  and  C_2
REMARK                            x       y       z     vdW  Elec       q    Type
REMARK                         _______ _______ _______ _____ _____    ______ ____
ROOT
ATOM      1  C   UNL     1       6.876   5.533  18.920  0.00  0.00    +0.000 C 
ATOM      2  C   UNL     1       5.543   4.912  19.108  0.00  0.00    +0.000 A 
ATOM      3  N   UNL     1       4.469   5.483  19.620  0.00  0.00    +0.000 NA
ATOM      4  C   UNL     1       3.496   4.510  19.632  0.00  0.00    +0.000 A 
ATOM      5  C   UNL     1       3.996   3.339  19.108  0.00  0.00    +0.000 A 
ATOM      6  N   UNL     1       5.288   3.605  18.761  0.00  0.00    +0.000 N 
ATOM      7  C   UNL     1       3.260   2.123  18.994  0.00  0.00    +0.000 C 
ATOM      8  O   UNL     1       3.699   1.087  18.511  0.00  0.00    +0.000 OA
ATOM      9  C   UNL     1       1.867   2.192  19.529  0.00  0.00    +0.000 C 
ATOM     10  C   UNL     1       1.371   3.333  20.040  0.00  0.00    +0.000 C 
ATOM     11  C   UNL     1       2.132   4.623  20.126  0.00  0.00    +0.000 C 
ATOM     12  O   UNL     1       1.606   5.633  20.578  0.00  0.00    +0.000 OA
ATOM     13  H   UNL     1       5.942   2.951  18.348  0.00  0.00    +0.000 HD
ENDROOT
TORSDOF 0
ENDMDL
MODEL 4
REMARK VINA RESULT:      -6.0      2.521      4.351
REMARK  Name = 
REMARK  1 active torsions:
REMARK  status: ('A' for Active; 'I' for Inactive)
REMARK    1  A    between atoms: C_1  and  C_2
REMARK                            x       y       z     vdW  Elec       q    Type
REMARK                         _______ _______ _______ _____ _____    ______ ____
ROOT
ATOM      1  C   UNL     1       6.640   4.927  16.623  0.00  0.00    +0.000 C 
ATOM      2  C   UNL     1       5.479   4.357  17.348  0.00  0.00    +0.000 A 
ATOM      3  N   UNL     1       4.206   4.477  17.023  0.00  0.00    +0.000 NA
ATOM      4  C   UNL     1       3.504   3.822  18.009  0.00  0.00    +0.000 A 
ATOM      5  C   UNL     1       4.375   3.293  18.935  0.00  0.00    +0.000 A 
ATOM      6  N   UNL     1       5.627   3.620  18.501  0.00  0.00    +0.000 N 
ATOM      7  C   UNL     1       3.980   2.571  20.099  0.00  0.00    +0.000 C 
ATOM      8  O   UNL     1       4.756   2.085  20.913  0.00  0.00    +0.000 OA
ATOM      9  C   UNL     1       2.502   2.447  20.277  0.00  0.00    +0.000 C 
ATOM     10  C   UNL     1       1.645   2.958  19.376  0.00  0.00    +0.000 C 
ATOM     11  C   UNL     1       2.060   3.685  18.130  0.00  0.00    +0.000 C 
ATOM     12  O   UNL     1       1.224   4.100  17.338  0.00  0.00    +0.000 OA
ATOM     13  H   UNL     1       6.497   3.383  18.959  0.00  0.00    +0.000 HD
ENDROOT
TORSDOF 0
ENDMDL
MODEL 5
REMARK VINA RESULT:      -6.0      2.903      5.578
REMARK  Name = 
REMARK  1 active torsions:
REMARK  status: ('A' for Active; 'I' for Inactive)
REMARK    1  A    between atoms: C_1  and  C_2
REMARK                            x       y       z     vdW  Elec       q    Type
REMARK                         _______ _______ _______ _____ _____    ______ ____
ROOT
ATOM      1  C   UNL     1       6.410   4.595  17.972  0.00  0.00    +0.000 C 
ATOM      2  C   UNL     1       5.091   4.195  18.518  0.00  0.00    +0.000 A 
ATOM      3  N   UNL     1       4.856   3.638  19.691  0.00  0.00    +0.000 NA
ATOM      4  C   UNL     1       3.500   3.411  19.732  0.00  0.00    +0.000 A 
ATOM      5  C   UNL     1       2.913   3.850  18.566  0.00  0.00    +0.000 A 
ATOM      6  N   UNL     1       3.924   4.362  17.808  0.00  0.00    +0.000 N 
ATOM      7  C   UNL     1       1.522   3.745  18.270  0.00  0.00    +0.000 C 
ATOM      8  O   UNL     1       0.998   4.152  17.241  0.00  0.00    +0.000 OA
ATOM      9  C   UNL     1       0.713   3.074  19.331  0.00  0.00    +0.000 C 
ATOM     10  C   UNL     1       1.278   2.645  20.474  0.00  0.00    +0.000 C 
ATOM     11  C   UNL     1       2.735   2.789  20.803  0.00  0.00    +0.000 C 
ATOM     12  O   UNL     1       3.176   2.400  21.877  0.00  0.00    +0.000 OA
ATOM     13  H   UNL     1       3.832   4.766  16.885  0.00  0.00    +0.000 HD
ENDROOT
TORSDOF 0
ENDMDL
MODEL 6
REMARK VINA RESULT:      -5.9      2.868      4.767
REMARK  Name = 
REMARK  1 active torsions:
REMARK  status: ('A' for Active; 'I' for Inactive)
REMARK    1  A    between atoms: C_1  and  C_2
REMARK                            x       y       z     vdW  Elec       q    Type
REMARK                         _______ _______ _______ _____ _____    ______ ____
ROOT
ATOM      1  C   UNL     1       6.552   4.690  18.190  0.00  0.00    +0.000 C 
ATOM      2  C   UNL     1       5.182   4.251  18.549  0.00  0.00    +0.000 A 
ATOM      3  N   UNL     1       4.092   4.382  17.817  0.00  0.00    +0.000 NA
ATOM      4  C   UNL     1       3.066   3.871  18.579  0.00  0.00    +0.000 A 
ATOM      5  C   UNL     1       3.554   3.419  19.784  0.00  0.00    +0.000 A 
ATOM      6  N   UNL     1       4.899   3.646  19.752  0.00  0.00    +0.000 N 
ATOM      7  C   UNL     1       2.756   2.851  20.820  0.00  0.00    +0.000 C 
ATOM      8  O   UNL     1       3.193   2.432  21.884  0.00  0.00    +0.000 OA
ATOM      9  C   UNL     1       1.294   2.805  20.518  0.00  0.00    +0.000 C 
ATOM     10  C   UNL     1       0.809   3.242  19.342  0.00  0.00    +0.000 C 
ATOM     11  C   UNL     1       1.653   3.805  18.236  0.00  0.00    +0.000 C 
ATOM     12  O   UNL     1       1.146   4.158  17.178  0.00  0.00    +0.000 OA
ATOM     13  H   UNL     1       5.558   3.430  20.490  0.00  0.00    +0.000 HD
ENDROOT
TORSDOF 0
ENDMDL
MODEL 7
REMARK VINA RESULT:      -5.9      1.551      1.602
REMARK  Name = 
REMARK  1 active torsions:
REMARK  status: ('A' for Active; 'I' for Inactive)
REMARK    1  A    between atoms: C_1  and  C_2
REMARK                            x       y       z     vdW  Elec       q    Type
REMARK                         _______ _______ _______ _____ _____    ______ ____
ROOT
ATOM      1  C   UNL     1       3.496   2.410  19.954  0.00  0.00    +0.000 C 
ATOM      2  C   UNL     1       4.242   3.485  19.258  0.00  0.00    +0.000 A 
ATOM      3  N   UNL     1       3.762   4.644  18.848  0.00  0.00    +0.000 NA
ATOM      4  C   UNL     1       4.809   5.283  18.224  0.00  0.00    +0.000 A 
ATOM      5  C   UNL     1       5.937   4.494  18.270  0.00  0.00    +0.000 A 
ATOM      6  N   UNL     1       5.576   3.363  18.943  0.00  0.00    +0.000 N 
ATOM      7  C   UNL     1       7.195   4.844  17.696  0.00  0.00    +0.000 C 
ATOM      8  O   UNL     1       8.202   4.151  17.754  0.00  0.00    +0.000 OA
ATOM      9  C   UNL     1       7.205   6.158  16.986  0.00  0.00    +0.000 C 
ATOM     10  C   UNL     1       6.108   6.935  16.938  0.00  0.00    +0.000 C 
ATOM     11  C   UNL     1       4.795   6.585  17.574  0.00  0.00    +0.000 C 
ATOM     12  O   UNL     1       3.845   7.355  17.516  0.00  0.00    +0.000 OA
ATOM     13  H   UNL     1       6.176   2.574  19.147  0.00  0.00    +0.000 HD
ENDROOT
TORSDOF 0
ENDMDL
MODEL 8
REMARK VINA RESULT:      -5.9      2.520      4.236
REMARK  Name = 
REMARK  1 active torsions:
REMARK  status: ('A' for Active; 'I' for Inactive)
REMARK    1  A    between atoms: C_1  and  C_2
REMARK                            x       y       z     vdW  Elec       q    Type
REMARK                         _______ _______ _______ _____ _____    ______ ____
ROOT
ATOM      1  C   UNL     1       7.545   5.351  18.846  0.00  0.00    +0.000 C 
ATOM      2  C   UNL     1       6.130   4.990  18.590  0.00  0.00    +0.000 A 
ATOM      3  N   UNL     1       5.118   5.822  18.431  0.00  0.00    +0.000 NA
ATOM      4  C   UNL     1       4.005   5.030  18.264  0.00  0.00    +0.000 A 
ATOM      5  C   UNL     1       4.361   3.701  18.314  0.00  0.00    +0.000 A 
ATOM      6  N   UNL     1       5.712   3.682  18.503  0.00  0.00    +0.000 N 
ATOM      7  C   UNL     1       3.448   2.612  18.199  0.00  0.00    +0.000 C 
ATOM      8  O   UNL     1       3.767   1.430  18.225  0.00  0.00    +0.000 OA
ATOM      9  C   UNL     1       2.019   3.019  18.047  0.00  0.00    +0.000 C 
ATOM     10  C   UNL     1       1.663   4.314  17.995  0.00  0.00    +0.000 C 
ATOM     11  C   UNL     1       2.627   5.461  18.077  0.00  0.00    +0.000 C 
ATOM     12  O   UNL     1       2.235   6.618  17.993  0.00  0.00    +0.000 OA
ATOM     13  H   UNL     1       6.291   2.856  18.588  0.00  0.00    +0.000 HD
ENDROOT
TORSDOF 0
ENDMDL
MODEL 9
REMARK VINA RESULT:      -5.8      3.279      5.099
REMARK  Name = 
REMARK  1 active torsions:
REMARK  status: ('A' for Active; 'I' for Inactive)
REMARK    1  A    between atoms: C_1  and  C_2
REMARK                            x       y       z     vdW  Elec       q    Type
REMARK                         _______ _______ _______ _____ _____    ______ ____
ROOT
ATOM      1  C   UNL     1       6.590   5.595  18.833  0.00  0.00    +0.000 C 
ATOM      2  C   UNL     1       5.279   4.963  19.117  0.00  0.00    +0.000 A 
ATOM      3  N   UNL     1       4.913   3.731  18.818  0.00  0.00    +0.000 NA
ATOM      4  C   UNL     1       3.607   3.617  19.235  0.00  0.00    +0.000 A 
ATOM      5  C   UNL     1       3.189   4.800  19.802  0.00  0.00    +0.000 A 
ATOM      6  N   UNL     1       4.259   5.644  19.741  0.00  0.00    +0.000 N 
ATOM      7  C   UNL     1       1.880   5.034  20.318  0.00  0.00    +0.000 C 
ATOM      8  O   UNL     1       1.514   6.080  20.839  0.00  0.00    +0.000 OA
ATOM      9  C   UNL     1       0.943   3.880  20.170  0.00  0.00    +0.000 C 
ATOM     10  C   UNL     1       1.344   2.720  19.620  0.00  0.00    +0.000 C 
ATOM     11  C   UNL     1       2.732   2.461  19.112  0.00  0.00    +0.000 C 
ATOM     12  O   UNL     1       3.036   1.369  18.648  0.00  0.00    +0.000 OA
ATOM     13  H   UNL     1       4.284   6.600  20.072  0.00  0.00    +0.000 HD
ENDROOT
TORSDOF 0
ENDMDL
