MODEL 1
REMARK VINA RESULT:      -7.4      0.000      0.000
REMARK  Name = 
REMARK  5 active torsions:
REMARK  status: ('A' for Active; 'I' for Inactive)
REMARK    1  A    between atoms: C_1  and  O_2
REMARK    2  A    between atoms: O_2  and  C_3
REMARK    3  A    between atoms: C_6  and  C_7
REMARK    4  A    between atoms: N_8  and  C_9
REMARK    5  A    between atoms: N_19  and  C_20
REMARK                            x       y       z     vdW  Elec       q    Type
REMARK                         _______ _______ _______ _____ _____    ______ ____
ROOT
ATOM      1  C   UNL     1      -3.372  12.839  20.196  0.00  0.00    +0.000 C 
ATOM      2  N   UNL     1      -3.950  12.746  21.595  0.00  0.00    +0.000 N 
ATOM      3  C   UNL     1      -3.154  12.350  22.751  0.00  0.00    +0.000 C 
ATOM      4  C   UNL     1      -5.311  12.863  21.920  0.00  0.00    +0.000 A 
ATOM      5  C   UNL     1      -5.672  13.609  23.070  0.00  0.00    +0.000 A 
ATOM      6  C   UNL     1      -6.947  13.546  23.647  0.00  0.00    +0.000 A 
ATOM      7  C   UNL     1      -7.915  12.726  23.093  0.00  0.00    +0.000 A 
ATOM      8  C   UNL     1      -7.625  12.041  21.921  0.00  0.00    +0.000 A 
ATOM      9  C   UNL     1      -6.355  12.150  21.310  0.00  0.00    +0.000 A 
ATOM     10  C   UNL     1      -6.270  11.585  19.955  0.00  0.00    +0.000 C 
ATOM     11  O   UNL     1      -7.048  10.728  19.554  0.00  0.00    +0.000 OA
ATOM     12  N   UNL     1      -5.451  12.289  19.105  0.00  0.00    +0.000 N 
ATOM     13  N   UNL     1      -4.055  11.915  19.222  0.00  0.00    +0.000 N 
ATOM     14  H   UNL     1      -5.768  12.239  18.142  0.00  0.00    +0.000 HD
ENDROOT
BRANCH   1  18
ATOM     15  C   UNL     1       1.006  12.797  19.858  0.00  0.00    +0.000 A 
ATOM     16  C   UNL     1       0.285  13.943  19.529  0.00  0.00    +0.000 A 
ATOM     17  C   UNL     1      -1.096  14.017  19.757  0.00  0.00    +0.000 A 
ATOM     18  C   UNL     1      -1.826  12.897  20.185  0.00  0.00    +0.000 A 
ATOM     19  C   UNL     1      -1.068  11.773  20.590  0.00  0.00    +0.000 A 
ATOM     20  C   UNL     1       0.332  11.732  20.449  0.00  0.00    +0.000 A 
BRANCH  15  22
ATOM     21  C   UNL     1       2.670  13.210  18.201  0.00  0.00    +0.000 C 
ATOM     22  O   UNL     1       2.333  12.847  19.533  0.00  0.00    +0.000 OA
ENDBRANCH  15  22
ENDBRANCH   1  18
BRANCH  13  23
ATOM     23  C   UNL     1      -3.599  11.274  18.059  0.00  0.00    +0.000 A 
ATOM     24  C   UNL     1      -2.578  10.322  17.992  0.00  0.00    +0.000 A 
ATOM     25  C   UNL     1      -2.205   9.689  16.789  0.00  0.00    +0.000 A 
ATOM     26  C   UNL     1      -2.818  10.020  15.587  0.00  0.00    +0.000 A 
ATOM     27  C   UNL     1      -3.820  10.971  15.589  0.00  0.00    +0.000 A 
ATOM     28  C   UNL     1      -4.209  11.558  16.799  0.00  0.00    +0.000 A 
ENDBRANCH  13  23
TORSDOF 3
ENDMDL
MODEL 2
REMARK VINA RESULT:      -7.3      0.666      1.137
REMARK  Name = 
REMARK  5 active torsions:
REMARK  status: ('A' for Active; 'I' for Inactive)
REMARK    1  A    between atoms: C_1  and  O_2
REMARK    2  A    between atoms: O_2  and  C_3
REMARK    3  A    between atoms: C_6  and  C_7
REMARK    4  A    between atoms: N_8  and  C_9
REMARK    5  A    between atoms: N_19  and  C_20
REMARK                            x       y       z     vdW  Elec       q    Type
REMARK                         _______ _______ _______ _____ _____    ______ ____
ROOT
ATOM      1  C   UNL     1      -3.267  12.798  20.232  0.00  0.00    +0.000 C 
ATOM      2  N   UNL     1      -3.901  12.710  21.607  0.00  0.00    +0.000 N 
ATOM      3  C   UNL     1      -3.165  12.265  22.785  0.00  0.00    +0.000 C 
ATOM      4  C   UNL     1      -5.266  12.880  21.884  0.00  0.00    +0.000 A 
ATOM      5  C   UNL     1      -5.639  13.625  23.031  0.00  0.00    +0.000 A 
ATOM      6  C   UNL     1      -6.936  13.608  23.560  0.00  0.00    +0.000 A 
ATOM      7  C   UNL     1      -7.917  12.837  22.958  0.00  0.00    +0.000 A 
ATOM      8  C   UNL     1      -7.611  12.156  21.787  0.00  0.00    +0.000 A 
ATOM      9  C   UNL     1      -6.316  12.220  21.225  0.00  0.00    +0.000 A 
ATOM     10  C   UNL     1      -6.204  11.671  19.865  0.00  0.00    +0.000 C 
ATOM     11  O   UNL     1      -7.002  10.853  19.423  0.00  0.00    +0.000 OA
ATOM     12  N   UNL     1      -5.325  12.351  19.057  0.00  0.00    +0.000 N 
ATOM     13  N   UNL     1      -3.952  11.917  19.219  0.00  0.00    +0.000 N 
ATOM     14  H   UNL     1      -5.608  12.328  18.083  0.00  0.00    +0.000 HD
ENDROOT
BRANCH   1  18
ATOM     15  C   UNL     1       1.098  12.992  20.665  0.00  0.00    +0.000 A 
ATOM     16  C   UNL     1       0.409  11.827  20.994  0.00  0.00    +0.000 A 
ATOM     17  C   UNL     1      -0.963  11.703  20.737  0.00  0.00    +0.000 A 
ATOM     18  C   UNL     1      -1.721  12.791  20.278  0.00  0.00    +0.000 A 
ATOM     19  C   UNL     1      -0.992  13.935  19.874  0.00  0.00    +0.000 A 
ATOM     20  C   UNL     1       0.402  14.025  20.044  0.00  0.00    +0.000 A 
BRANCH  15  22
ATOM     21  C   UNL     1       3.154  14.189  20.811  0.00  0.00    +0.000 C 
ATOM     22  O   UNL     1       2.418  12.992  21.019  0.00  0.00    +0.000 OA
ENDBRANCH  15  22
ENDBRANCH   1  18
BRANCH  13  23
ATOM     23  C   UNL     1      -3.480  11.273  18.065  0.00  0.00    +0.000 A 
ATOM     24  C   UNL     1      -2.401  10.387  18.000  0.00  0.00    +0.000 A 
ATOM     25  C   UNL     1      -2.013   9.745  16.807  0.00  0.00    +0.000 A 
ATOM     26  C   UNL     1      -2.671  10.001  15.610  0.00  0.00    +0.000 A 
ATOM     27  C   UNL     1      -3.731  10.887  15.609  0.00  0.00    +0.000 A 
ATOM     28  C   UNL     1      -4.132  11.482  16.811  0.00  0.00    +0.000 A 
ENDBRANCH  13  23
TORSDOF 3
ENDMDL
MODEL 3
REMARK VINA RESULT:      -6.7      2.414      3.318
REMARK  Name = 
REMARK  5 active torsions:
REMARK  status: ('A' for Active; 'I' for Inactive)
REMARK    1  A    between atoms: C_1  and  O_2
REMARK    2  A    between atoms: O_2  and  C_3
REMARK    3  A    between atoms: C_6  and  C_7
REMARK    4  A    between atoms: N_8  and  C_9
REMARK    5  A    between atoms: N_19  and  C_20
REMARK                            x       y       z     vdW  Elec       q    Type
REMARK                         _______ _______ _______ _____ _____    ______ ____
ROOT
ATOM      1  C   UNL     1      -0.932  11.922  20.014  0.00  0.00    +0.000 C 
ATOM      2  N   UNL     1      -1.060  11.998  21.522  0.00  0.00    +0.000 N 
ATOM      3  C   UNL     1      -0.466  11.008  22.414  0.00  0.00    +0.000 C 
ATOM      4  C   UNL     1      -1.875  12.901  22.224  0.00  0.00    +0.000 A 
ATOM      5  C   UNL     1      -1.360  13.510  23.395  0.00  0.00    +0.000 A 
ATOM      6  C   UNL     1      -2.169  14.183  24.320  0.00  0.00    +0.000 A 
ATOM      7  C   UNL     1      -3.535  14.270  24.108  0.00  0.00    +0.000 A 
ATOM      8  C   UNL     1      -4.066  13.755  22.932  0.00  0.00    +0.000 A 
ATOM      9  C   UNL     1      -3.238  13.125  21.975  0.00  0.00    +0.000 A 
ATOM     10  C   UNL     1      -3.882  12.861  20.680  0.00  0.00    +0.000 C 
ATOM     11  O   UNL     1      -5.098  12.774  20.560  0.00  0.00    +0.000 OA
ATOM     12  N   UNL     1      -3.046  13.005  19.598  0.00  0.00    +0.000 N 
ATOM     13  N   UNL     1      -2.266  11.816  19.321  0.00  0.00    +0.000 N 
ATOM     14  H   UNL     1      -3.543  13.323  18.773  0.00  0.00    +0.000 HD
ENDROOT
BRANCH   1  18
ATOM     15  C   UNL     1       2.055   9.093  18.478  0.00  0.00    +0.000 A 
ATOM     16  C   UNL     1       2.069  10.424  18.068  0.00  0.00    +0.000 A 
ATOM     17  C   UNL     1       1.210  11.367  18.647  0.00  0.00    +0.000 A 
ATOM     18  C   UNL     1       0.208  10.983  19.551  0.00  0.00    +0.000 A 
ATOM     19  C   UNL     1       0.262   9.648  20.016  0.00  0.00    +0.000 A 
ATOM     20  C   UNL     1       1.190   8.721  19.502  0.00  0.00    +0.000 A 
BRANCH  15  22
ATOM     21  C   UNL     1       3.036   6.934  18.239  0.00  0.00    +0.000 C 
ATOM     22  O   UNL     1       2.910   8.277  17.792  0.00  0.00    +0.000 OA
ENDBRANCH  15  22
ENDBRANCH   1  18
BRANCH  13  23
ATOM     23  C   UNL     1      -2.647  11.227  18.105  0.00  0.00    +0.000 A 
ATOM     24  C   UNL     1      -1.972  10.198  17.442  0.00  0.00    +0.000 A 
ATOM     25  C   UNL     1      -2.443   9.628  16.242  0.00  0.00    +0.000 A 
ATOM     26  C   UNL     1      -3.599  10.099  15.632  0.00  0.00    +0.000 A 
ATOM     27  C   UNL     1      -4.297  11.130  16.230  0.00  0.00    +0.000 A 
ATOM     28  C   UNL     1      -3.839  11.655  17.445  0.00  0.00    +0.000 A 
ENDBRANCH  13  23
TORSDOF 3
ENDMDL
MODEL 4
REMARK VINA RESULT:      -6.6      2.397      5.610
REMARK  Name = 
REMARK  5 active torsions:
REMARK  status: ('A' for Active; 'I' for Inactive)
REMARK    1  A    between atoms: C_1  and  O_2
REMARK    2  A    between atoms: O_2  and  C_3
REMARK    3  A    between atoms: C_6  and  C_7
REMARK    4  A    between atoms: N_8  and  C_9
REMARK    5  A    between atoms: N_19  and  C_20
REMARK                            x       y       z     vdW  Elec       q    Type
REMARK                         _______ _______ _______ _____ _____    ______ ____
ROOT
ATOM      1  C   UNL     1      -3.724  12.376  20.303  0.00  0.00    +0.000 C 
ATOM      2  N   UNL     1      -2.742  12.059  19.192  0.00  0.00    +0.000 N 
ATOM      3  C   UNL     1      -1.425  12.680  19.105  0.00  0.00    +0.000 C 
ATOM      4  C   UNL     1      -3.023  11.283  18.057  0.00  0.00    +0.000 A 
ATOM      5  C   UNL     1      -2.048  10.356  17.610  0.00  0.00    +0.000 A 
ATOM      6  C   UNL     1      -2.093   9.755  16.345  0.00  0.00    +0.000 A 
ATOM      7  C   UNL     1      -3.123  10.064  15.472  0.00  0.00    +0.000 A 
ATOM      8  C   UNL     1      -4.140  10.906  15.902  0.00  0.00    +0.000 A 
ATOM      9  C   UNL     1      -4.119  11.466  17.199  0.00  0.00    +0.000 A 
ATOM     10  C   UNL     1      -5.370  12.122  17.610  0.00  0.00    +0.000 C 
ATOM     11  O   UNL     1      -6.186  12.539  16.797  0.00  0.00    +0.000 OA
ATOM     12  N   UNL     1      -5.672  11.969  18.942  0.00  0.00    +0.000 N 
ATOM     13  N   UNL     1      -5.019  12.948  19.788  0.00  0.00    +0.000 N 
ATOM     14  H   UNL     1      -6.673  11.948  19.105  0.00  0.00    +0.000 HD
ENDROOT
BRANCH   1  18
ATOM     15  C   UNL     1      -1.509  14.262  23.592  0.00  0.00    +0.000 A 
ATOM     16  C   UNL     1      -2.253  15.039  22.708  0.00  0.00    +0.000 A 
ATOM     17  C   UNL     1      -3.071  14.446  21.736  0.00  0.00    +0.000 A 
ATOM     18  C   UNL     1      -3.058  13.059  21.522  0.00  0.00    +0.000 A 
ATOM     19  C   UNL     1      -2.362  12.283  22.479  0.00  0.00    +0.000 A 
ATOM     20  C   UNL     1      -1.616  12.877  23.514  0.00  0.00    +0.000 A 
BRANCH  15  22
ATOM     21  C   UNL     1      -0.381  16.305  24.080  0.00  0.00    +0.000 C 
ATOM     22  O   UNL     1      -0.719  14.975  24.450  0.00  0.00    +0.000 OA
ENDBRANCH  15  22
ENDBRANCH   1  18
BRANCH  13  23
ATOM     23  C   UNL     1      -5.949  13.829  20.362  0.00  0.00    +0.000 A 
ATOM     24  C   UNL     1      -6.736  13.576  21.489  0.00  0.00    +0.000 A 
ATOM     25  C   UNL     1      -7.619  14.531  22.032  0.00  0.00    +0.000 A 
ATOM     26  C   UNL     1      -7.781  15.775  21.435  0.00  0.00    +0.000 A 
ATOM     27  C   UNL     1      -7.046  16.074  20.304  0.00  0.00    +0.000 A 
ATOM     28  C   UNL     1      -6.141  15.130  19.804  0.00  0.00    +0.000 A 
ENDBRANCH  13  23
TORSDOF 3
ENDMDL
MODEL 5
REMARK VINA RESULT:      -6.6      2.011      2.798
REMARK  Name = 
REMARK  5 active torsions:
REMARK  status: ('A' for Active; 'I' for Inactive)
REMARK    1  A    between atoms: C_1  and  O_2
REMARK    2  A    between atoms: O_2  and  C_3
REMARK    3  A    between atoms: C_6  and  C_7
REMARK    4  A    between atoms: N_8  and  C_9
REMARK    5  A    between atoms: N_19  and  C_20
REMARK                            x       y       z     vdW  Elec       q    Type
REMARK                         _______ _______ _______ _____ _____    ______ ____
ROOT
ATOM      1  C   UNL     1      -1.551  12.118  20.107  0.00  0.00    +0.000 C 
ATOM      2  N   UNL     1      -1.758  12.121  21.608  0.00  0.00    +0.000 N 
ATOM      3  C   UNL     1      -1.089  11.176  22.497  0.00  0.00    +0.000 C 
ATOM      4  C   UNL     1      -2.709  12.891  22.295  0.00  0.00    +0.000 A 
ATOM      5  C   UNL     1      -2.329  13.514  23.511  0.00  0.00    +0.000 A 
ATOM      6  C   UNL     1      -3.256  14.049  24.414  0.00  0.00    +0.000 A 
ATOM      7  C   UNL     1      -4.611  13.978  24.135  0.00  0.00    +0.000 A 
ATOM      8  C   UNL     1      -5.019  13.447  22.917  0.00  0.00    +0.000 A 
ATOM      9  C   UNL     1      -4.077  12.959  21.984  0.00  0.00    +0.000 A 
ATOM     10  C   UNL     1      -4.622  12.669  20.650  0.00  0.00    +0.000 C 
ATOM     11  O   UNL     1      -5.811  12.440  20.465  0.00  0.00    +0.000 OA
ATOM     12  N   UNL     1      -3.759  12.953  19.618  0.00  0.00    +0.000 N 
ATOM     13  N   UNL     1      -2.827  11.878  19.343  0.00  0.00    +0.000 N 
ATOM     14  H   UNL     1      -4.252  13.240  18.779  0.00  0.00    +0.000 HD
ENDROOT
BRANCH   1  18
ATOM     15  C   UNL     1       1.833   9.746  18.623  0.00  0.00    +0.000 A 
ATOM     16  C   UNL     1       1.735  11.101  18.316  0.00  0.00    +0.000 A 
ATOM     17  C   UNL     1       0.737  11.900  18.889  0.00  0.00    +0.000 A 
ATOM     18  C   UNL     1      -0.284  11.341  19.673  0.00  0.00    +0.000 A 
ATOM     19  C   UNL     1      -0.122   9.985  20.039  0.00  0.00    +0.000 A 
ATOM     20  C   UNL     1       0.937   9.202  19.538  0.00  0.00    +0.000 A 
BRANCH  15  22
ATOM     21  C   UNL     1       2.788   7.660  17.973  0.00  0.00    +0.000 C 
ATOM     22  O   UNL     1       2.821   9.080  17.952  0.00  0.00    +0.000 OA
ENDBRANCH  15  22
ENDBRANCH   1  18
BRANCH  13  23
ATOM     23  C   UNL     1      -3.076  11.294  18.091  0.00  0.00    +0.000 A 
ATOM     24  C   UNL     1      -4.079  11.670  17.193  0.00  0.00    +0.000 A 
ATOM     25  C   UNL     1      -4.240  11.061  15.932  0.00  0.00    +0.000 A 
ATOM     26  C   UNL     1      -3.419  10.012  15.535  0.00  0.00    +0.000 A 
ATOM     27  C   UNL     1      -2.424   9.582  16.391  0.00  0.00    +0.000 A 
ATOM     28  C   UNL     1      -2.250  10.227  17.622  0.00  0.00    +0.000 A 
ENDBRANCH  13  23
TORSDOF 3
ENDMDL
MODEL 6
REMARK VINA RESULT:      -6.6      2.483      5.742
REMARK  Name = 
REMARK  5 active torsions:
REMARK  status: ('A' for Active; 'I' for Inactive)
REMARK    1  A    between atoms: C_1  and  O_2
REMARK    2  A    between atoms: O_2  and  C_3
REMARK    3  A    between atoms: C_6  and  C_7
REMARK    4  A    between atoms: N_8  and  C_9
REMARK    5  A    between atoms: N_19  and  C_20
REMARK                            x       y       z     vdW  Elec       q    Type
REMARK                         _______ _______ _______ _____ _____    ______ ____
ROOT
ATOM      1  C   UNL     1      -3.688  12.625  20.517  0.00  0.00    +0.000 C 
ATOM      2  N   UNL     1      -2.686  12.207  19.459  0.00  0.00    +0.000 N 
ATOM      3  C   UNL     1      -1.352  12.791  19.364  0.00  0.00    +0.000 C 
ATOM      4  C   UNL     1      -2.958  11.360  18.373  0.00  0.00    +0.000 A 
ATOM      5  C   UNL     1      -1.995  10.382  18.018  0.00  0.00    +0.000 A 
ATOM      6  C   UNL     1      -2.024   9.695  16.797  0.00  0.00    +0.000 A 
ATOM      7  C   UNL     1      -3.022   9.966  15.876  0.00  0.00    +0.000 A 
ATOM      8  C   UNL     1      -4.028  10.860  16.220  0.00  0.00    +0.000 A 
ATOM      9  C   UNL     1      -4.027  11.509  17.475  0.00  0.00    +0.000 A 
ATOM     10  C   UNL     1      -5.271  12.221  17.804  0.00  0.00    +0.000 C 
ATOM     11  O   UNL     1      -6.055  12.599  16.943  0.00  0.00    +0.000 OA
ATOM     12  N   UNL     1      -5.611  12.169  19.135  0.00  0.00    +0.000 N 
ATOM     13  N   UNL     1      -4.955  13.189  19.929  0.00  0.00    +0.000 N 
ATOM     14  H   UNL     1      -6.616  12.183  19.272  0.00  0.00    +0.000 HD
ENDROOT
BRANCH   1  18
ATOM     15  C   UNL     1      -1.530  14.564  23.813  0.00  0.00    +0.000 A 
ATOM     16  C   UNL     1      -1.791  15.261  22.636  0.00  0.00    +0.000 A 
ATOM     17  C   UNL     1      -2.592  14.704  21.630  0.00  0.00    +0.000 A 
ATOM     18  C   UNL     1      -3.037  13.375  21.703  0.00  0.00    +0.000 A 
ATOM     19  C   UNL     1      -2.832  12.714  22.937  0.00  0.00    +0.000 A 
ATOM     20  C   UNL     1      -2.107  13.310  23.987  0.00  0.00    +0.000 A 
BRANCH  15  22
ATOM     21  C   UNL     1      -1.241  15.644  25.918  0.00  0.00    +0.000 C 
ATOM     22  O   UNL     1      -0.694  15.207  24.682  0.00  0.00    +0.000 OA
ENDBRANCH  15  22
ENDBRANCH   1  18
BRANCH  13  23
ATOM     23  C   UNL     1      -5.877  14.130  20.414  0.00  0.00    +0.000 A 
ATOM     24  C   UNL     1      -5.894  15.495  20.115  0.00  0.00    +0.000 A 
ATOM     25  C   UNL     1      -6.881  16.371  20.609  0.00  0.00    +0.000 A 
ATOM     26  C   UNL     1      -7.876  15.917  21.465  0.00  0.00    +0.000 A 
ATOM     27  C   UNL     1      -7.897  14.581  21.815  0.00  0.00    +0.000 A 
ATOM     28  C   UNL     1      -6.935  13.715  21.280  0.00  0.00    +0.000 A 
ENDBRANCH  13  23
TORSDOF 3
ENDMDL
MODEL 7
REMARK VINA RESULT:      -6.6      2.569      5.399
REMARK  Name = 
REMARK  5 active torsions:
REMARK  status: ('A' for Active; 'I' for Inactive)
REMARK    1  A    between atoms: C_1  and  O_2
REMARK    2  A    between atoms: O_2  and  C_3
REMARK    3  A    between atoms: C_6  and  C_7
REMARK    4  A    between atoms: N_8  and  C_9
REMARK    5  A    between atoms: N_19  and  C_20
REMARK                            x       y       z     vdW  Elec       q    Type
REMARK                         _______ _______ _______ _____ _____    ______ ____
ROOT
ATOM      1  C   UNL     1      -1.112  12.282  20.553  0.00  0.00    +0.000 C 
ATOM      2  N   UNL     1      -2.400  12.628  21.273  0.00  0.00    +0.000 N 
ATOM      3  C   UNL     1      -3.690  12.686  20.593  0.00  0.00    +0.000 C 
ATOM      4  C   UNL     1      -2.494  13.082  22.597  0.00  0.00    +0.000 A 
ATOM      5  C   UNL     1      -3.529  12.570  23.419  0.00  0.00    +0.000 A 
ATOM      6  C   UNL     1      -3.894  13.157  24.637  0.00  0.00    +0.000 A 
ATOM      7  C   UNL     1      -3.234  14.291  25.082  0.00  0.00    +0.000 A 
ATOM      8  C   UNL     1      -2.162  14.776  24.344  0.00  0.00    +0.000 A 
ATOM      9  C   UNL     1      -1.761  14.148  23.144  0.00  0.00    +0.000 A 
ATOM     10  C   UNL     1      -0.469  14.603  22.609  0.00  0.00    +0.000 C 
ATOM     11  O   UNL     1       0.008  15.696  22.893  0.00  0.00    +0.000 OA
ATOM     12  N   UNL     1       0.273  13.611  22.013  0.00  0.00    +0.000 N 
ATOM     13  N   UNL     1      -0.089  13.386  20.628  0.00  0.00    +0.000 N 
ATOM     14  H   UNL     1       1.270  13.769  22.114  0.00  0.00    +0.000 HD
ENDROOT
BRANCH   1  18
ATOM     15  C   UNL     1      -2.056  10.149  16.833  0.00  0.00    +0.000 A 
ATOM     16  C   UNL     1      -2.418  11.484  16.990  0.00  0.00    +0.000 A 
ATOM     17  C   UNL     1      -2.009  12.217  18.113  0.00  0.00    +0.000 A 
ATOM     18  C   UNL     1      -1.348  11.598  19.185  0.00  0.00    +0.000 A 
ATOM     19  C   UNL     1      -0.919  10.267  18.972  0.00  0.00    +0.000 A 
ATOM     20  C   UNL     1      -1.249   9.559  17.801  0.00  0.00    +0.000 A 
BRANCH  15  22
ATOM     21  C   UNL     1      -3.218  10.377  14.763  0.00  0.00    +0.000 C 
ATOM     22  O   UNL     1      -2.568   9.548  15.717  0.00  0.00    +0.000 OA
ENDBRANCH  15  22
ENDBRANCH   1  18
BRANCH  13  23
ATOM     23  C   UNL     1       0.949  13.764  19.761  0.00  0.00    +0.000 A 
ATOM     24  C   UNL     1       1.912  12.913  19.211  0.00  0.00    +0.000 A 
ATOM     25  C   UNL     1       2.900  13.362  18.312  0.00  0.00    +0.000 A 
ATOM     26  C   UNL     1       2.988  14.703  17.957  0.00  0.00    +0.000 A 
ATOM     27  C   UNL     1       2.076  15.595  18.487  0.00  0.00    +0.000 A 
ATOM     28  C   UNL     1       1.073  15.124  19.344  0.00  0.00    +0.000 A 
ENDBRANCH  13  23
TORSDOF 3
ENDMDL
MODEL 8
REMARK VINA RESULT:      -6.5      2.362      5.764
REMARK  Name = 
REMARK  5 active torsions:
REMARK  status: ('A' for Active; 'I' for Inactive)
REMARK    1  A    between atoms: C_1  and  O_2
REMARK    2  A    between atoms: O_2  and  C_3
REMARK    3  A    between atoms: C_6  and  C_7
REMARK    4  A    between atoms: N_8  and  C_9
REMARK    5  A    between atoms: N_19  and  C_20
REMARK                            x       y       z     vdW  Elec       q    Type
REMARK                         _______ _______ _______ _____ _____    ______ ____
ROOT
ATOM      1  C   UNL     1      -3.287  12.375  20.137  0.00  0.00    +0.000 C 
ATOM      2  N   UNL     1      -2.451  12.040  18.918  0.00  0.00    +0.000 N 
ATOM      3  C   UNL     1      -1.147  12.644  18.668  0.00  0.00    +0.000 C 
ATOM      4  C   UNL     1      -2.877  11.263  17.830  0.00  0.00    +0.000 A 
ATOM      5  C   UNL     1      -1.975  10.321  17.273  0.00  0.00    +0.000 A 
ATOM      6  C   UNL     1      -2.181   9.716  16.027  0.00  0.00    +0.000 A 
ATOM      7  C   UNL     1      -3.305  10.034  15.282  0.00  0.00    +0.000 A 
ATOM      8  C   UNL     1      -4.251  10.891  15.829  0.00  0.00    +0.000 A 
ATOM      9  C   UNL     1      -4.067  11.457  17.110  0.00  0.00    +0.000 A 
ATOM     10  C   UNL     1      -5.251  12.130  17.665  0.00  0.00    +0.000 C 
ATOM     11  O   UNL     1      -6.155  12.555  16.955  0.00  0.00    +0.000 OA
ATOM     12  N   UNL     1      -5.391  11.987  19.025  0.00  0.00    +0.000 N 
ATOM     13  N   UNL     1      -4.628  12.961  19.780  0.00  0.00    +0.000 N 
ATOM     14  H   UNL     1      -6.365  11.980  19.308  0.00  0.00    +0.000 HD
ENDROOT
BRANCH   1  18
ATOM     15  C   UNL     1      -1.290  14.419  23.471  0.00  0.00    +0.000 A 
ATOM     16  C   UNL     1      -1.395  13.030  23.458  0.00  0.00    +0.000 A 
ATOM     17  C   UNL     1      -1.909  12.355  22.343  0.00  0.00    +0.000 A 
ATOM     18  C   UNL     1      -2.470  13.054  21.262  0.00  0.00    +0.000 A 
ATOM     19  C   UNL     1      -2.280  14.456  21.257  0.00  0.00    +0.000 A 
ATOM     20  C   UNL     1      -1.677  15.127  22.337  0.00  0.00    +0.000 A 
BRANCH  15  22
ATOM     21  C   UNL     1      -0.909  16.351  24.814  0.00  0.00    +0.000 C 
ATOM     22  O   UNL     1      -0.819  14.944  24.642  0.00  0.00    +0.000 OA
ENDBRANCH  15  22
ENDBRANCH   1  18
BRANCH  13  23
ATOM     23  C   UNL     1      -5.471  13.856  20.457  0.00  0.00    +0.000 A 
ATOM     24  C   UNL     1      -5.797  15.151  20.044  0.00  0.00    +0.000 A 
ATOM     25  C   UNL     1      -6.688  15.977  20.758  0.00  0.00    +0.000 A 
ATOM     26  C   UNL     1      -7.260  15.549  21.950  0.00  0.00    +0.000 A 
ATOM     27  C   UNL     1      -6.957  14.286  22.420  0.00  0.00    +0.000 A 
ATOM     28  C   UNL     1      -6.105  13.462  21.675  0.00  0.00    +0.000 A 
ENDBRANCH  13  23
TORSDOF 3
ENDMDL
MODEL 9
REMARK VINA RESULT:      -6.3      3.235      4.125
REMARK  Name = 
REMARK  5 active torsions:
REMARK  status: ('A' for Active; 'I' for Inactive)
REMARK    1  A    between atoms: C_1  and  O_2
REMARK    2  A    between atoms: O_2  and  C_3
REMARK    3  A    between atoms: C_6  and  C_7
REMARK    4  A    between atoms: N_8  and  C_9
REMARK    5  A    between atoms: N_19  and  C_20
REMARK                            x       y       z     vdW  Elec       q    Type
REMARK                         _______ _______ _______ _____ _____    ______ ____
ROOT
ATOM      1  C   UNL     1      -1.460  13.957  21.121  0.00  0.00    +0.000 C 
ATOM      2  N   UNL     1      -1.988  15.135  21.915  0.00  0.00    +0.000 N 
ATOM      3  C   UNL     1      -1.121  16.191  22.428  0.00  0.00    +0.000 C 
ATOM      4  C   UNL     1      -3.303  15.274  22.385  0.00  0.00    +0.000 A 
ATOM      5  C   UNL     1      -3.928  16.542  22.288  0.00  0.00    +0.000 A 
ATOM      6  C   UNL     1      -5.103  16.865  22.980  0.00  0.00    +0.000 A 
ATOM      7  C   UNL     1      -5.700  15.925  23.803  0.00  0.00    +0.000 A 
ATOM      8  C   UNL     1      -5.162  14.646  23.862  0.00  0.00    +0.000 A 
ATOM      9  C   UNL     1      -4.008  14.307  23.120  0.00  0.00    +0.000 A 
ATOM     10  C   UNL     1      -3.703  12.869  23.073  0.00  0.00    +0.000 C 
ATOM     11  O   UNL     1      -4.111  12.086  23.923  0.00  0.00    +0.000 OA
ATOM     12  N   UNL     1      -3.180  12.446  21.875  0.00  0.00    +0.000 N 
ATOM     13  N   UNL     1      -1.746  12.634  21.782  0.00  0.00    +0.000 N 
ATOM     14  H   UNL     1      -3.442  11.489  21.663  0.00  0.00    +0.000 HD
ENDROOT
BRANCH   1  18
ATOM     15  C   UNL     1       2.602  14.273  19.482  0.00  0.00    +0.000 A 
ATOM     16  C   UNL     1       1.499  14.602  18.698  0.00  0.00    +0.000 A 
ATOM     17  C   UNL     1       0.209  14.635  19.244  0.00  0.00    +0.000 A 
ATOM     18  C   UNL     1      -0.040  14.198  20.554  0.00  0.00    +0.000 A 
ATOM     19  C   UNL     1       1.098  13.947  21.357  0.00  0.00    +0.000 A 
ATOM     20  C   UNL     1       2.404  14.007  20.833  0.00  0.00    +0.000 A 
BRANCH  15  22
ATOM     21  C   UNL     1       4.040  15.258  17.856  0.00  0.00    +0.000 C 
ATOM     22  O   UNL     1       3.789  14.231  18.805  0.00  0.00    +0.000 OA
ENDBRANCH  15  22
ENDBRANCH   1  18
BRANCH  13  23
ATOM     23  C   UNL     1      -1.070  11.404  21.752  0.00  0.00    +0.000 A 
ATOM     24  C   UNL     1      -0.615  10.743  20.607  0.00  0.00    +0.000 A 
ATOM     25  C   UNL     1       0.096   9.528  20.661  0.00  0.00    +0.000 A 
ATOM     26  C   UNL     1       0.345   8.899  21.875  0.00  0.00    +0.000 A 
ATOM     27  C   UNL     1      -0.100   9.495  23.039  0.00  0.00    +0.000 A 
ATOM     28  C   UNL     1      -0.766  10.724  22.971  0.00  0.00    +0.000 A 
ENDBRANCH  13  23
TORSDOF 3
ENDMDL
