MODEL 1
REMARK VINA RESULT:      -8.8      0.000      0.000
REMARK  Name = 
REMARK  6 active torsions:
REMARK  status: ('A' for Active; 'I' for Inactive)
REMARK    1  A    between atoms: C_2  and  O_3
REMARK    2  A    between atoms: C_2  and  C_4
REMARK    3  A    between atoms: C_7  and  C_8
REMARK    4  A    between atoms: C_9  and  C_10
REMARK    5  A    between atoms: N_20  and  C_21
REMARK    6  A    between atoms: C_25  and  O_26
REMARK                            x       y       z     vdW  Elec       q    Type
REMARK                         _______ _______ _______ _____ _____    ______ ____
ROOT
ATOM      1  C   UNL     1       3.788   6.087  18.140  0.00  0.00    +0.000 A 
ATOM      2  N   UNL     1       4.703   6.578  17.359  0.00  0.00    +0.000 NA
ATOM      3  C   UNL     1       5.365   5.684  16.493  0.00  0.00    +0.000 A 
ATOM      4  C   UNL     1       6.533   6.075  15.839  0.00  0.00    +0.000 A 
ATOM      5  C   UNL     1       7.162   5.212  14.930  0.00  0.00    +0.000 A 
ATOM      6  C   UNL     1       6.619   3.957  14.653  0.00  0.00    +0.000 A 
ATOM      7  C   UNL     1       5.459   3.550  15.303  0.00  0.00    +0.000 A 
ATOM      8  C   UNL     1       4.856   4.413  16.226  0.00  0.00    +0.000 A 
ATOM      9  C   UNL     1       3.707   3.968  17.026  0.00  0.00    +0.000 A 
ATOM     10  O   UNL     1       3.066   2.983  16.667  0.00  0.00    +0.000 OA
ATOM     11  N   UNL     1       3.464   4.731  18.158  0.00  0.00    +0.000 N 
ENDROOT
BRANCH  11  12
ATOM     12  C   UNL     1       2.731   4.141  19.220  0.00  0.00    +0.000 A 
ATOM     13  C   UNL     1       1.328   4.227  19.231  0.00  0.00    +0.000 A 
ATOM     14  C   UNL     1       0.597   3.595  20.238  0.00  0.00    +0.000 A 
ATOM     15  C   UNL     1       1.258   2.839  21.208  0.00  0.00    +0.000 A 
ATOM     16  C   UNL     1       2.647   2.761  21.183  0.00  0.00    +0.000 A 
ATOM     17  C   UNL     1       3.392   3.437  20.224  0.00  0.00    +0.000 A 
BRANCH  16  18
ATOM     18  O   UNL     1       3.333   2.001  22.081  0.00  0.00    +0.000 OA
ATOM     19  H   UNL     1       4.208   2.399  22.226  0.00  0.00    +0.000 HD
ENDBRANCH  16  18
ENDBRANCH  11  12
BRANCH   1  21
ATOM     20  C   UNL     1       2.200   7.991  18.542  0.00  0.00    +0.000 C 
ATOM     21  C   UNL     1       2.928   6.965  19.003  0.00  0.00    +0.000 C 
BRANCH  20  25
ATOM     22  C   UNL     1      -0.126  10.469  21.175  0.00  0.00    +0.000 A 
ATOM     23  C   UNL     1       0.416   9.256  21.610  0.00  0.00    +0.000 A 
ATOM     24  C   UNL     1       1.176   8.472  20.736  0.00  0.00    +0.000 A 
ATOM     25  C   UNL     1       1.401   8.876  19.415  0.00  0.00    +0.000 A 
ATOM     26  C   UNL     1       0.864  10.105  18.993  0.00  0.00    +0.000 A 
ATOM     27  C   UNL     1       0.107  10.900  19.864  0.00  0.00    +0.000 A 
BRANCH  22  29
ATOM     28  O   UNL     1      -1.531  12.280  21.803  0.00  0.00    +0.000 OA
ATOM     29  C   UNL     1      -0.891  11.296  22.143  0.00  0.00    +0.000 C 
BRANCH  29  30
ATOM     30  O   UNL     1      -0.785  10.886  23.418  0.00  0.00    +0.000 OA
ATOM     31  H   UNL     1       0.073  10.491  23.655  0.00  0.00    +0.000 HD
ENDBRANCH  29  30
ENDBRANCH  22  29
ENDBRANCH  20  25
ENDBRANCH   1  21
TORSDOF 6
ENDMDL
MODEL 2
REMARK VINA RESULT:      -8.7      0.244      1.072
REMARK  Name = 
REMARK  6 active torsions:
REMARK  status: ('A' for Active; 'I' for Inactive)
REMARK    1  A    between atoms: C_2  and  O_3
REMARK    2  A    between atoms: C_2  and  C_4
REMARK    3  A    between atoms: C_7  and  C_8
REMARK    4  A    between atoms: C_9  and  C_10
REMARK    5  A    between atoms: N_20  and  C_21
REMARK    6  A    between atoms: C_25  and  O_26
REMARK                            x       y       z     vdW  Elec       q    Type
REMARK                         _______ _______ _______ _____ _____    ______ ____
ROOT
ATOM      1  C   UNL     1       3.802   6.068  18.229  0.00  0.00    +0.000 A 
ATOM      2  N   UNL     1       4.722   6.564  17.456  0.00  0.00    +0.000 NA
ATOM      3  C   UNL     1       5.364   5.682  16.564  0.00  0.00    +0.000 A 
ATOM      4  C   UNL     1       6.536   6.070  15.914  0.00  0.00    +0.000 A 
ATOM      5  C   UNL     1       7.146   5.221  14.980  0.00  0.00    +0.000 A 
ATOM      6  C   UNL     1       6.580   3.983  14.673  0.00  0.00    +0.000 A 
ATOM      7  C   UNL     1       5.417   3.579  15.318  0.00  0.00    +0.000 A 
ATOM      8  C   UNL     1       4.832   4.427  16.266  0.00  0.00    +0.000 A 
ATOM      9  C   UNL     1       3.680   3.981  17.060  0.00  0.00    +0.000 A 
ATOM     10  O   UNL     1       3.021   3.017  16.679  0.00  0.00    +0.000 OA
ATOM     11  N   UNL     1       3.455   4.717  18.213  0.00  0.00    +0.000 N 
ENDROOT
BRANCH  11  12
ATOM     12  C   UNL     1       2.717   4.113  19.263  0.00  0.00    +0.000 A 
ATOM     13  C   UNL     1       1.314   4.180  19.257  0.00  0.00    +0.000 A 
ATOM     14  C   UNL     1       0.578   3.533  20.252  0.00  0.00    +0.000 A 
ATOM     15  C   UNL     1       1.238   2.780  21.226  0.00  0.00    +0.000 A 
ATOM     16  C   UNL     1       2.628   2.720  21.217  0.00  0.00    +0.000 A 
ATOM     17  C   UNL     1       3.375   3.411  20.271  0.00  0.00    +0.000 A 
BRANCH  16  18
ATOM     18  O   UNL     1       3.313   1.963  22.119  0.00  0.00    +0.000 OA
ATOM     19  H   UNL     1       3.185   2.339  23.006  0.00  0.00    +0.000 HD
ENDBRANCH  16  18
ENDBRANCH  11  12
BRANCH   1  21
ATOM     20  C   UNL     1       2.191   7.941  18.679  0.00  0.00    +0.000 C 
ATOM     21  C   UNL     1       2.961   6.937  19.119  0.00  0.00    +0.000 C 
BRANCH  20  25
ATOM     22  C   UNL     1      -0.066  10.594  21.201  0.00  0.00    +0.000 A 
ATOM     23  C   UNL     1       0.280  10.952  19.894  0.00  0.00    +0.000 A 
ATOM     24  C   UNL     1       1.008  10.069  19.091  0.00  0.00    +0.000 A 
ATOM     25  C   UNL     1       1.411   8.819  19.576  0.00  0.00    +0.000 A 
ATOM     26  C   UNL     1       1.044   8.462  20.886  0.00  0.00    +0.000 A 
ATOM     27  C   UNL     1       0.310   9.340  21.696  0.00  0.00    +0.000 A 
BRANCH  22  29
ATOM     28  O   UNL     1      -0.606  11.806  23.172  0.00  0.00    +0.000 OA
ATOM     29  C   UNL     1      -0.875  11.541  22.009  0.00  0.00    +0.000 C 
BRANCH  29  30
ATOM     30  O   UNL     1      -1.940  12.042  21.363  0.00  0.00    +0.000 OA
ATOM     31  H   UNL     1      -2.247  11.517  20.602  0.00  0.00    +0.000 HD
ENDBRANCH  29  30
ENDBRANCH  22  29
ENDBRANCH  20  25
ENDBRANCH   1  21
TORSDOF 6
ENDMDL
MODEL 3
REMARK VINA RESULT:      -7.9      0.907      1.204
REMARK  Name = 
REMARK  6 active torsions:
REMARK  status: ('A' for Active; 'I' for Inactive)
REMARK    1  A    between atoms: C_2  and  O_3
REMARK    2  A    between atoms: C_2  and  C_4
REMARK    3  A    between atoms: C_7  and  C_8
REMARK    4  A    between atoms: C_9  and  C_10
REMARK    5  A    between atoms: N_20  and  C_21
REMARK    6  A    between atoms: C_25  and  O_26
REMARK                            x       y       z     vdW  Elec       q    Type
REMARK                         _______ _______ _______ _____ _____    ______ ____
ROOT
ATOM      1  C   UNL     1       3.824   6.078  18.087  0.00  0.00    +0.000 A 
ATOM      2  N   UNL     1       4.736   6.622  17.338  0.00  0.00    +0.000 NA
ATOM      3  C   UNL     1       5.454   5.774  16.471  0.00  0.00    +0.000 A 
ATOM      4  C   UNL     1       6.621   6.225  15.853  0.00  0.00    +0.000 A 
ATOM      5  C   UNL     1       7.305   5.408  14.943  0.00  0.00    +0.000 A 
ATOM      6  C   UNL     1       6.820   4.138  14.628  0.00  0.00    +0.000 A 
ATOM      7  C   UNL     1       5.663   3.671  15.241  0.00  0.00    +0.000 A 
ATOM      8  C   UNL     1       5.003   4.489  16.165  0.00  0.00    +0.000 A 
ATOM      9  C   UNL     1       3.855   3.982  16.928  0.00  0.00    +0.000 A 
ATOM     10  O   UNL     1       3.263   2.980  16.534  0.00  0.00    +0.000 OA
ATOM     11  N   UNL     1       3.554   4.710  18.069  0.00  0.00    +0.000 N 
ENDROOT
BRANCH  11  12
ATOM     12  C   UNL     1       2.821   4.070  19.101  0.00  0.00    +0.000 A 
ATOM     13  C   UNL     1       3.302   4.102  20.421  0.00  0.00    +0.000 A 
ATOM     14  C   UNL     1       2.555   3.530  21.452  0.00  0.00    +0.000 A 
ATOM     15  C   UNL     1       1.307   2.967  21.177  0.00  0.00    +0.000 A 
ATOM     16  C   UNL     1       0.842   2.945  19.865  0.00  0.00    +0.000 A 
ATOM     17  C   UNL     1       1.603   3.454  18.820  0.00  0.00    +0.000 A 
BRANCH  16  18
ATOM     18  O   UNL     1      -0.387   2.447  19.555  0.00  0.00    +0.000 OA
ATOM     19  H   UNL     1      -0.360   2.083  18.654  0.00  0.00    +0.000 HD
ENDBRANCH  16  18
ENDBRANCH  11  12
BRANCH   1  21
ATOM     20  C   UNL     1       2.289   8.016  18.531  0.00  0.00    +0.000 C 
ATOM     21  C   UNL     1       2.908   6.903  18.946  0.00  0.00    +0.000 C 
BRANCH  20  25
ATOM     22  C   UNL     1      -0.188  10.328  21.179  0.00  0.00    +0.000 A 
ATOM     23  C   UNL     1       0.500   9.198  21.630  0.00  0.00    +0.000 A 
ATOM     24  C   UNL     1       1.306   8.467  20.751  0.00  0.00    +0.000 A 
ATOM     25  C   UNL     1       1.433   8.842  19.408  0.00  0.00    +0.000 A 
ATOM     26  C   UNL     1       0.749   9.990  18.969  0.00  0.00    +0.000 A 
ATOM     27  C   UNL     1      -0.056  10.731  19.845  0.00  0.00    +0.000 A 
BRANCH  22  29
ATOM     28  O   UNL     1      -1.765  11.992  21.805  0.00  0.00    +0.000 OA
ATOM     29  C   UNL     1      -1.000  11.104  22.151  0.00  0.00    +0.000 C 
BRANCH  29  30
ATOM     30  O   UNL     1      -0.789  10.766  23.433  0.00  0.00    +0.000 OA
ATOM     31  H   UNL     1       0.113  10.462  23.637  0.00  0.00    +0.000 HD
ENDBRANCH  29  30
ENDBRANCH  22  29
ENDBRANCH  20  25
ENDBRANCH   1  21
TORSDOF 6
ENDMDL
MODEL 4
REMARK VINA RESULT:      -7.8      0.922      1.659
REMARK  Name = 
REMARK  6 active torsions:
REMARK  status: ('A' for Active; 'I' for Inactive)
REMARK    1  A    between atoms: C_2  and  O_3
REMARK    2  A    between atoms: C_2  and  C_4
REMARK    3  A    between atoms: C_7  and  C_8
REMARK    4  A    between atoms: C_9  and  C_10
REMARK    5  A    between atoms: N_20  and  C_21
REMARK    6  A    between atoms: C_25  and  O_26
REMARK                            x       y       z     vdW  Elec       q    Type
REMARK                         _______ _______ _______ _____ _____    ______ ____
ROOT
ATOM      1  C   UNL     1       4.006   5.895  18.128  0.00  0.00    +0.000 A 
ATOM      2  N   UNL     1       4.911   6.458  17.385  0.00  0.00    +0.000 NA
ATOM      3  C   UNL     1       5.571   5.648  16.439  0.00  0.00    +0.000 A 
ATOM      4  C   UNL     1       6.731   6.101  15.812  0.00  0.00    +0.000 A 
ATOM      5  C   UNL     1       7.357   5.325  14.827  0.00  0.00    +0.000 A 
ATOM      6  C   UNL     1       6.818   4.095  14.445  0.00  0.00    +0.000 A 
ATOM      7  C   UNL     1       5.666   3.626  15.066  0.00  0.00    +0.000 A 
ATOM      8  C   UNL     1       5.066   4.401  16.066  0.00  0.00    +0.000 A 
ATOM      9  C   UNL     1       3.927   3.881  16.833  0.00  0.00    +0.000 A 
ATOM     10  O   UNL     1       3.288   2.927  16.395  0.00  0.00    +0.000 OA
ATOM     11  N   UNL     1       3.689   4.540  18.029  0.00  0.00    +0.000 N 
ENDROOT
BRANCH  11  12
ATOM     12  C   UNL     1       2.969   3.856  19.042  0.00  0.00    +0.000 A 
ATOM     13  C   UNL     1       3.608   3.524  20.249  0.00  0.00    +0.000 A 
ATOM     14  C   UNL     1       2.889   2.908  21.275  0.00  0.00    +0.000 A 
ATOM     15  C   UNL     1       1.523   2.665  21.118  0.00  0.00    +0.000 A 
ATOM     16  C   UNL     1       0.903   3.002  19.918  0.00  0.00    +0.000 A 
ATOM     17  C   UNL     1       1.619   3.557  18.866  0.00  0.00    +0.000 A 
BRANCH  16  18
ATOM     18  O   UNL     1      -0.435   2.825  19.735  0.00  0.00    +0.000 OA
ATOM     19  H   UNL     1      -0.734   2.091  20.297  0.00  0.00    +0.000 HD
ENDBRANCH  16  18
ENDBRANCH  11  12
BRANCH   1  21
ATOM     20  C   UNL     1       2.356   7.701  18.695  0.00  0.00    +0.000 C 
ATOM     21  C   UNL     1       3.149   6.689  19.071  0.00  0.00    +0.000 C 
BRANCH  20  25
ATOM     22  C   UNL     1       0.033  10.136  21.372  0.00  0.00    +0.000 A 
ATOM     23  C   UNL     1       0.236  10.511  20.040  0.00  0.00    +0.000 A 
ATOM     24  C   UNL     1       0.989   9.697  19.188  0.00  0.00    +0.000 A 
ATOM     25  C   UNL     1       1.559   8.504  19.646  0.00  0.00    +0.000 A 
ATOM     26  C   UNL     1       1.335   8.129  20.983  0.00  0.00    +0.000 A 
ATOM     27  C   UNL     1       0.577   8.936  21.843  0.00  0.00    +0.000 A 
BRANCH  22  29
ATOM     28  O   UNL     1      -0.889  10.842  23.445  0.00  0.00    +0.000 OA
ATOM     29  C   UNL     1      -0.807  11.004  22.236  0.00  0.00    +0.000 C 
BRANCH  29  30
ATOM     30  O   UNL     1      -1.491  11.946  21.568  0.00  0.00    +0.000 OA
ATOM     31  H   UNL     1      -2.419  11.722  21.371  0.00  0.00    +0.000 HD
ENDBRANCH  29  30
ENDBRANCH  22  29
ENDBRANCH  20  25
ENDBRANCH   1  21
TORSDOF 6
ENDMDL
MODEL 5
REMARK VINA RESULT:      -7.2      3.643      6.725
REMARK  Name = 
REMARK  6 active torsions:
REMARK  status: ('A' for Active; 'I' for Inactive)
REMARK    1  A    between atoms: C_2  and  O_3
REMARK    2  A    between atoms: C_2  and  C_4
REMARK    3  A    between atoms: C_7  and  C_8
REMARK    4  A    between atoms: C_9  and  C_10
REMARK    5  A    between atoms: N_20  and  C_21
REMARK    6  A    between atoms: C_25  and  O_26
REMARK                            x       y       z     vdW  Elec       q    Type
REMARK                         _______ _______ _______ _____ _____    ______ ____
ROOT
ATOM      1  C   UNL     1       0.823   9.330  20.679  0.00  0.00    +0.000 A 
ATOM      2  N   UNL     1       1.362   8.278  21.220  0.00  0.00    +0.000 NA
ATOM      3  C   UNL     1       1.911   7.311  20.353  0.00  0.00    +0.000 A 
ATOM      4  C   UNL     1       2.247   6.046  20.834  0.00  0.00    +0.000 A 
ATOM      5  C   UNL     1       2.849   5.102  19.991  0.00  0.00    +0.000 A 
ATOM      6  C   UNL     1       3.137   5.419  18.663  0.00  0.00    +0.000 A 
ATOM      7  C   UNL     1       2.801   6.674  18.167  0.00  0.00    +0.000 A 
ATOM      8  C   UNL     1       2.179   7.598  19.014  0.00  0.00    +0.000 A 
ATOM      9  C   UNL     1       1.692   8.882  18.492  0.00  0.00    +0.000 A 
ATOM     10  O   UNL     1       2.113   9.294  17.414  0.00  0.00    +0.000 OA
ATOM     11  N   UNL     1       0.758   9.515  19.298  0.00  0.00    +0.000 N 
ENDROOT
BRANCH  11  12
ATOM     12  C   UNL     1      -0.110  10.465  18.702  0.00  0.00    +0.000 A 
ATOM     13  C   UNL     1      -1.312  10.037  18.114  0.00  0.00    +0.000 A 
ATOM     14  C   UNL     1      -2.203  10.972  17.582  0.00  0.00    +0.000 A 
ATOM     15  C   UNL     1      -1.918  12.336  17.678  0.00  0.00    +0.000 A 
ATOM     16  C   UNL     1      -0.724  12.745  18.266  0.00  0.00    +0.000 A 
ATOM     17  C   UNL     1       0.199  11.823  18.742  0.00  0.00    +0.000 A 
BRANCH  16  18
ATOM     18  O   UNL     1      -0.424  14.064  18.422  0.00  0.00    +0.000 OA
ATOM     19  H   UNL     1       0.468  14.226  18.072  0.00  0.00    +0.000 HD
ENDBRANCH  16  18
ENDBRANCH  11  12
BRANCH   1  21
ATOM     20  C   UNL     1      -0.949  10.665  21.855  0.00  0.00    +0.000 C 
ATOM     21  C   UNL     1       0.331  10.482  21.506  0.00  0.00    +0.000 C 
BRANCH  20  25
ATOM     22  C   UNL     1      -2.440  14.006  24.114  0.00  0.00    +0.000 A 
ATOM     23  C   UNL     1      -3.158  12.810  24.027  0.00  0.00    +0.000 A 
ATOM     24  C   UNL     1      -2.648  11.735  23.292  0.00  0.00    +0.000 A 
ATOM     25  C   UNL     1      -1.421  11.835  22.626  0.00  0.00    +0.000 A 
ATOM     26  C   UNL     1      -0.699  13.037  22.733  0.00  0.00    +0.000 A 
ATOM     27  C   UNL     1      -1.201  14.117  23.472  0.00  0.00    +0.000 A 
BRANCH  22  29
ATOM     28  O   UNL     1      -2.301  15.769  25.702  0.00  0.00    +0.000 OA
ATOM     29  C   UNL     1      -2.992  15.112  24.938  0.00  0.00    +0.000 C 
BRANCH  29  30
ATOM     30  O   UNL     1      -4.315  15.293  24.796  0.00  0.00    +0.000 OA
ATOM     31  H   UNL     1      -4.582  16.192  24.530  0.00  0.00    +0.000 HD
ENDBRANCH  29  30
ENDBRANCH  22  29
ENDBRANCH  20  25
ENDBRANCH   1  21
TORSDOF 6
ENDMDL
MODEL 6
REMARK VINA RESULT:      -7.2      1.326      1.714
REMARK  Name = 
REMARK  6 active torsions:
REMARK  status: ('A' for Active; 'I' for Inactive)
REMARK    1  A    between atoms: C_2  and  O_3
REMARK    2  A    between atoms: C_2  and  C_4
REMARK    3  A    between atoms: C_7  and  C_8
REMARK    4  A    between atoms: C_9  and  C_10
REMARK    5  A    between atoms: N_20  and  C_21
REMARK    6  A    between atoms: C_25  and  O_26
REMARK                            x       y       z     vdW  Elec       q    Type
REMARK                         _______ _______ _______ _____ _____    ______ ____
ROOT
ATOM      1  C   UNL     1       3.585   6.432  17.585  0.00  0.00    +0.000 A 
ATOM      2  N   UNL     1       4.491   6.908  16.783  0.00  0.00    +0.000 NA
ATOM      3  C   UNL     1       5.359   5.986  16.164  0.00  0.00    +0.000 A 
ATOM      4  C   UNL     1       6.515   6.430  15.524  0.00  0.00    +0.000 A 
ATOM      5  C   UNL     1       7.350   5.523  14.855  0.00  0.00    +0.000 A 
ATOM      6  C   UNL     1       7.027   4.167  14.804  0.00  0.00    +0.000 A 
ATOM      7  C   UNL     1       5.881   3.708  15.444  0.00  0.00    +0.000 A 
ATOM      8  C   UNL     1       5.070   4.621  16.128  0.00  0.00    +0.000 A 
ATOM      9  C   UNL     1       3.926   4.156  16.923  0.00  0.00    +0.000 A 
ATOM     10  O   UNL     1       3.475   3.029  16.731  0.00  0.00    +0.000 OA
ATOM     11  N   UNL     1       3.463   5.070  17.857  0.00  0.00    +0.000 N 
ENDROOT
BRANCH  11  12
ATOM     12  C   UNL     1       2.724   4.583  18.965  0.00  0.00    +0.000 A 
ATOM     13  C   UNL     1       3.049   5.014  20.263  0.00  0.00    +0.000 A 
ATOM     14  C   UNL     1       2.285   4.589  21.352  0.00  0.00    +0.000 A 
ATOM     15  C   UNL     1       1.171   3.774  21.145  0.00  0.00    +0.000 A 
ATOM     16  C   UNL     1       0.860   3.357  19.854  0.00  0.00    +0.000 A 
ATOM     17  C   UNL     1       1.647   3.720  18.769  0.00  0.00    +0.000 A 
BRANCH  16  18
ATOM     18  O   UNL     1      -0.242   2.599  19.598  0.00  0.00    +0.000 OA
ATOM     19  H   UNL     1      -0.741   2.482  20.423  0.00  0.00    +0.000 HD
ENDBRANCH  16  18
ENDBRANCH  11  12
BRANCH   1  21
ATOM     20  C   UNL     1       2.230   8.540  17.757  0.00  0.00    +0.000 C 
ATOM     21  C   UNL     1       2.525   7.307  18.191  0.00  0.00    +0.000 C 
BRANCH  20  25
ATOM     22  C   UNL     1      -0.643  11.049  19.743  0.00  0.00    +0.000 A 
ATOM     23  C   UNL     1       0.562  10.697  20.358  0.00  0.00    +0.000 A 
ATOM     24  C   UNL     1       1.483   9.886  19.688  0.00  0.00    +0.000 A 
ATOM     25  C   UNL     1       1.218   9.405  18.400  0.00  0.00    +0.000 A 
ATOM     26  C   UNL     1       0.010   9.778  17.785  0.00  0.00    +0.000 A 
ATOM     27  C   UNL     1      -0.916  10.595  18.447  0.00  0.00    +0.000 A 
BRANCH  22  29
ATOM     28  O   UNL     1      -1.847  11.795  21.650  0.00  0.00    +0.000 OA
ATOM     29  C   UNL     1      -1.578  11.946  20.468  0.00  0.00    +0.000 C 
BRANCH  29  30
ATOM     30  O   UNL     1      -2.123  12.905  19.701  0.00  0.00    +0.000 OA
ATOM     31  H   UNL     1      -2.064  13.807  20.063  0.00  0.00    +0.000 HD
ENDBRANCH  29  30
ENDBRANCH  22  29
ENDBRANCH  20  25
ENDBRANCH   1  21
TORSDOF 6
ENDMDL
MODEL 7
REMARK VINA RESULT:      -7.0      7.115     11.243
REMARK  Name = 
REMARK  6 active torsions:
REMARK  status: ('A' for Active; 'I' for Inactive)
REMARK    1  A    between atoms: C_2  and  O_3
REMARK    2  A    between atoms: C_2  and  C_4
REMARK    3  A    between atoms: C_7  and  C_8
REMARK    4  A    between atoms: C_9  and  C_10
REMARK    5  A    between atoms: N_20  and  C_21
REMARK    6  A    between atoms: C_25  and  O_26
REMARK                            x       y       z     vdW  Elec       q    Type
REMARK                         _______ _______ _______ _____ _____    ______ ____
ROOT
ATOM      1  C   UNL     1      -2.969  13.844  21.434  0.00  0.00    +0.000 A 
ATOM      2  N   UNL     1      -3.892  14.695  21.768  0.00  0.00    +0.000 NA
ATOM      3  C   UNL     1      -3.789  15.298  23.039  0.00  0.00    +0.000 A 
ATOM      4  C   UNL     1      -4.871  15.995  23.576  0.00  0.00    +0.000 A 
ATOM      5  C   UNL     1      -4.754  16.647  24.811  0.00  0.00    +0.000 A 
ATOM      6  C   UNL     1      -3.548  16.625  25.513  0.00  0.00    +0.000 A 
ATOM      7  C   UNL     1      -2.463  15.928  24.994  0.00  0.00    +0.000 A 
ATOM      8  C   UNL     1      -2.602  15.261  23.771  0.00  0.00    +0.000 A 
ATOM      9  C   UNL     1      -1.521  14.410  23.256  0.00  0.00    +0.000 A 
ATOM     10  O   UNL     1      -0.386  14.536  23.708  0.00  0.00    +0.000 OA
ATOM     11  N   UNL     1      -1.915  13.506  22.282  0.00  0.00    +0.000 N 
ENDROOT
BRANCH  11  12
ATOM     12  C   UNL     1      -1.116  12.353  22.073  0.00  0.00    +0.000 A 
ATOM     13  C   UNL     1      -0.132  12.360  21.069  0.00  0.00    +0.000 A 
ATOM     14  C   UNL     1       0.702  11.253  20.899  0.00  0.00    +0.000 A 
ATOM     15  C   UNL     1       0.588  10.158  21.758  0.00  0.00    +0.000 A 
ATOM     16  C   UNL     1      -0.388  10.167  22.749  0.00  0.00    +0.000 A 
ATOM     17  C   UNL     1      -1.266  11.234  22.890  0.00  0.00    +0.000 A 
BRANCH  16  18
ATOM     18  O   UNL     1      -0.507   9.142  23.639  0.00  0.00    +0.000 OA
ATOM     19  H   UNL     1      -0.961   8.400  23.204  0.00  0.00    +0.000 HD
ENDBRANCH  16  18
ENDBRANCH  11  12
BRANCH   1  21
ATOM     20  C   UNL     1      -3.670  12.228  19.643  0.00  0.00    +0.000 C 
ATOM     21  C   UNL     1      -2.904  13.246  20.058  0.00  0.00    +0.000 C 
BRANCH  20  25
ATOM     22  C   UNL     1      -3.460  10.494  15.714  0.00  0.00    +0.000 A 
ATOM     23  C   UNL     1      -4.554  11.269  16.108  0.00  0.00    +0.000 A 
ATOM     24  C   UNL     1      -4.595  11.829  17.389  0.00  0.00    +0.000 A 
ATOM     25  C   UNL     1      -3.554  11.620  18.301  0.00  0.00    +0.000 A 
ATOM     26  C   UNL     1      -2.451  10.852  17.889  0.00  0.00    +0.000 A 
ATOM     27  C   UNL     1      -2.399  10.292  16.605  0.00  0.00    +0.000 A 
BRANCH  22  29
ATOM     28  O   UNL     1      -2.390   9.790  13.712  0.00  0.00    +0.000 OA
ATOM     29  C   UNL     1      -3.431   9.951  14.332  0.00  0.00    +0.000 C 
BRANCH  29  30
ATOM     30  O   UNL     1      -4.645   9.693  13.819  0.00  0.00    +0.000 OA
ATOM     31  H   UNL     1      -5.240  10.462  13.759  0.00  0.00    +0.000 HD
ENDBRANCH  29  30
ENDBRANCH  22  29
ENDBRANCH  20  25
ENDBRANCH   1  21
TORSDOF 6
ENDMDL
MODEL 8
REMARK VINA RESULT:      -7.0      6.085     10.451
REMARK  Name = 
REMARK  6 active torsions:
REMARK  status: ('A' for Active; 'I' for Inactive)
REMARK    1  A    between atoms: C_2  and  O_3
REMARK    2  A    between atoms: C_2  and  C_4
REMARK    3  A    between atoms: C_7  and  C_8
REMARK    4  A    between atoms: C_9  and  C_10
REMARK    5  A    between atoms: N_20  and  C_21
REMARK    6  A    between atoms: C_25  and  O_26
REMARK                            x       y       z     vdW  Elec       q    Type
REMARK                         _______ _______ _______ _____ _____    ______ ____
ROOT
ATOM      1  C   UNL     1      -2.337  13.016  20.640  0.00  0.00    +0.000 A 
ATOM      2  N   UNL     1      -3.227  13.684  21.313  0.00  0.00    +0.000 NA
ATOM      3  C   UNL     1      -2.870  14.118  22.606  0.00  0.00    +0.000 A 
ATOM      4  C   UNL     1      -3.848  14.585  23.484  0.00  0.00    +0.000 A 
ATOM      5  C   UNL     1      -3.492  15.075  24.749  0.00  0.00    +0.000 A 
ATOM      6  C   UNL     1      -2.153  15.120  25.140  0.00  0.00    +0.000 A 
ATOM      7  C   UNL     1      -1.168  14.651  24.278  0.00  0.00    +0.000 A 
ATOM      8  C   UNL     1      -1.541  14.143  23.028  0.00  0.00    +0.000 A 
ATOM      9  C   UNL     1      -0.545  13.520  22.146  0.00  0.00    +0.000 A 
ATOM     10  O   UNL     1       0.650  13.735  22.338  0.00  0.00    +0.000 OA
ATOM     11  N   UNL     1      -1.078  12.711  21.155  0.00  0.00    +0.000 N 
ENDROOT
BRANCH  11  12
ATOM     12  C   UNL     1      -0.247  11.714  20.582  0.00  0.00    +0.000 A 
ATOM     13  C   UNL     1      -0.302  10.397  21.068  0.00  0.00    +0.000 A 
ATOM     14  C   UNL     1       0.465   9.397  20.467  0.00  0.00    +0.000 A 
ATOM     15  C   UNL     1       1.251   9.699  19.353  0.00  0.00    +0.000 A 
ATOM     16  C   UNL     1       1.293  11.007  18.881  0.00  0.00    +0.000 A 
ATOM     17  C   UNL     1       0.584  12.024  19.507  0.00  0.00    +0.000 A 
BRANCH  16  18
ATOM     18  O   UNL     1       2.009  11.340  17.771  0.00  0.00    +0.000 OA
ATOM     19  H   UNL     1       2.679  10.654  17.612  0.00  0.00    +0.000 HD
ENDBRANCH  16  18
ENDBRANCH  11  12
BRANCH   1  21
ATOM     20  C   UNL     1      -3.061  11.443  18.820  0.00  0.00    +0.000 C 
ATOM     21  C   UNL     1      -2.558  12.623  19.207  0.00  0.00    +0.000 C 
BRANCH  20  25
ATOM     22  C   UNL     1      -3.409  10.255  14.703  0.00  0.00    +0.000 A 
ATOM     23  C   UNL     1      -2.371   9.780  15.510  0.00  0.00    +0.000 A 
ATOM     24  C   UNL     1      -2.285  10.176  16.849  0.00  0.00    +0.000 A 
ATOM     25  C   UNL     1      -3.222  11.055  17.403  0.00  0.00    +0.000 A 
ATOM     26  C   UNL     1      -4.270  11.514  16.586  0.00  0.00    +0.000 A 
ATOM     27  C   UNL     1      -4.368  11.118  15.245  0.00  0.00    +0.000 A 
BRANCH  22  29
ATOM     28  O   UNL     1      -4.560   9.620  12.723  0.00  0.00    +0.000 OA
ATOM     29  C   UNL     1      -3.493   9.780  13.298  0.00  0.00    +0.000 C 
BRANCH  29  30
ATOM     30  O   UNL     1      -2.303   9.511  12.738  0.00  0.00    +0.000 OA
ATOM     31  H   UNL     1      -2.130   8.567  12.569  0.00  0.00    +0.000 HD
ENDBRANCH  29  30
ENDBRANCH  22  29
ENDBRANCH  20  25
ENDBRANCH   1  21
TORSDOF 6
ENDMDL
MODEL 9
REMARK VINA RESULT:      -7.0      3.699      6.758
REMARK  Name = 
REMARK  6 active torsions:
REMARK  status: ('A' for Active; 'I' for Inactive)
REMARK    1  A    between atoms: C_2  and  O_3
REMARK    2  A    between atoms: C_2  and  C_4
REMARK    3  A    between atoms: C_7  and  C_8
REMARK    4  A    between atoms: C_9  and  C_10
REMARK    5  A    between atoms: N_20  and  C_21
REMARK    6  A    between atoms: C_25  and  O_26
REMARK                            x       y       z     vdW  Elec       q    Type
REMARK                         _______ _______ _______ _____ _____    ______ ____
ROOT
ATOM      1  C   UNL     1       0.783   9.311  20.754  0.00  0.00    +0.000 A 
ATOM      2  N   UNL     1       1.231   8.201  21.260  0.00  0.00    +0.000 NA
ATOM      3  C   UNL     1       1.773   7.253  20.368  0.00  0.00    +0.000 A 
ATOM      4  C   UNL     1       2.011   5.946  20.792  0.00  0.00    +0.000 A 
ATOM      5  C   UNL     1       2.605   5.015  19.928  0.00  0.00    +0.000 A 
ATOM      6  C   UNL     1       2.985   5.388  18.638  0.00  0.00    +0.000 A 
ATOM      7  C   UNL     1       2.747   6.686  18.199  0.00  0.00    +0.000 A 
ATOM      8  C   UNL     1       2.131   7.597  19.064  0.00  0.00    +0.000 A 
ATOM      9  C   UNL     1       1.747   8.935  18.594  0.00  0.00    +0.000 A 
ATOM     10  O   UNL     1       2.251   9.380  17.565  0.00  0.00    +0.000 OA
ATOM     11  N   UNL     1       0.807   9.576  19.385  0.00  0.00    +0.000 N 
ENDROOT
BRANCH  11  12
ATOM     12  C   UNL     1       0.028  10.607  18.800  0.00  0.00    +0.000 A 
ATOM     13  C   UNL     1       0.497  11.932  18.821  0.00  0.00    +0.000 A 
ATOM     14  C   UNL     1      -0.233  12.942  18.191  0.00  0.00    +0.000 A 
ATOM     15  C   UNL     1      -1.405  12.626  17.502  0.00  0.00    +0.000 A 
ATOM     16  C   UNL     1      -1.856  11.310  17.487  0.00  0.00    +0.000 A 
ATOM     17  C   UNL     1      -1.174  10.305  18.162  0.00  0.00    +0.000 A 
BRANCH  16  18
ATOM     18  O   UNL     1      -2.969  10.947  16.791  0.00  0.00    +0.000 OA
ATOM     19  H   UNL     1      -3.326  10.129  17.176  0.00  0.00    +0.000 HD
ENDBRANCH  16  18
ENDBRANCH  11  12
BRANCH   1  21
ATOM     20  C   UNL     1      -0.978  10.751  21.818  0.00  0.00    +0.000 C 
ATOM     21  C   UNL     1       0.311  10.443  21.620  0.00  0.00    +0.000 C 
BRANCH  20  25
ATOM     22  C   UNL     1      -2.383  14.040  24.206  0.00  0.00    +0.000 A 
ATOM     23  C   UNL     1      -3.115  12.853  24.100  0.00  0.00    +0.000 A 
ATOM     24  C   UNL     1      -2.633  11.795  23.324  0.00  0.00    +0.000 A 
ATOM     25  C   UNL     1      -1.420  11.902  22.632  0.00  0.00    +0.000 A 
ATOM     26  C   UNL     1      -0.684  13.094  22.758  0.00  0.00    +0.000 A 
ATOM     27  C   UNL     1      -1.158  14.158  23.539  0.00  0.00    +0.000 A 
BRANCH  22  29
ATOM     28  O   UNL     1      -2.194  15.744  25.851  0.00  0.00    +0.000 OA
ATOM     29  C   UNL     1      -2.907  15.126  25.073  0.00  0.00    +0.000 C 
BRANCH  29  30
ATOM     30  O   UNL     1      -4.227  15.336  24.952  0.00  0.00    +0.000 OA
ATOM     31  H   UNL     1      -4.769  14.529  24.878  0.00  0.00    +0.000 HD
ENDBRANCH  29  30
ENDBRANCH  22  29
ENDBRANCH  20  25
ENDBRANCH   1  21
TORSDOF 6
ENDMDL
