MODEL 1
REMARK VINA RESULT:      -6.9      0.000      0.000
REMARK  Name = 
REMARK  6 active torsions:
REMARK  status: ('A' for Active; 'I' for Inactive)
REMARK    1  A    between atoms: C_1  and  C_2
REMARK    2  A    between atoms: N_6  and  C_7
REMARK    3  A    between atoms: C_7  and  C_8
REMARK    4  A    between atoms: C_8  and  C_10
REMARK    5  A    between atoms: C_13  and  O_14
REMARK    6  A    between atoms: C_15  and  O_16
REMARK                            x       y       z     vdW  Elec       q    Type
REMARK                         _______ _______ _______ _____ _____    ______ ____
ROOT
ATOM      1  C   UNL     1       4.212   5.256  17.834  0.00  0.00    +0.000 A 
ATOM      2  C   UNL     1       4.719   4.689  16.646  0.00  0.00    +0.000 A 
ATOM      3  C   UNL     1       6.068   4.323  16.551  0.00  0.00    +0.000 A 
ATOM      4  C   UNL     1       6.932   4.518  17.637  0.00  0.00    +0.000 A 
ATOM      5  C   UNL     1       6.437   5.080  18.826  0.00  0.00    +0.000 A 
ATOM      6  C   UNL     1       5.091   5.445  18.915  0.00  0.00    +0.000 A 
ENDROOT
BRANCH   1   7
ATOM      7  C   UNL     1       2.771   5.650  17.941  0.00  0.00    +0.000 C 
ATOM      8  O   UNL     1       2.483   6.833  18.052  0.00  0.00    +0.000 OA
BRANCH   7   9
ATOM      9  C   UNL     1       1.638   4.631  17.933  0.00  0.00    +0.000 C 
BRANCH   9  15
ATOM     10  C   UNL     1       2.964   1.822  18.309  0.00  0.00    +0.000 C 
ATOM     11  C   UNL     1       2.181   2.581  19.334  0.00  0.00    +0.000 A 
ATOM     12  N   UNL     1       1.980   2.101  20.579  0.00  0.00    +0.000 NA
ATOM     13  C   UNL     1       1.249   3.045  21.200  0.00  0.00    +0.000 A 
ATOM     14  C   UNL     1       1.017   4.082  20.330  0.00  0.00    +0.000 A 
ATOM     15  N   UNL     1       1.602   3.797  19.152  0.00  0.00    +0.000 N 
ENDBRANCH   9  15
ENDBRANCH   7   9
ENDBRANCH   1   7
BRANCH   4  16
ATOM     16  O   UNL     1       8.234   4.173  17.547  0.00  0.00    +0.000 OA
ATOM     17  H   UNL     1       8.524   3.341  17.146  0.00  0.00    +0.000 HD
ENDBRANCH   4  16
BRANCH   5  18
ATOM     18  O   UNL     1       7.236   5.281  19.894  0.00  0.00    +0.000 OA
ATOM     19  H   UNL     1       7.691   6.118  20.058  0.00  0.00    +0.000 HD
ENDBRANCH   5  18
TORSDOF 5
ENDMDL
MODEL 2
REMARK VINA RESULT:      -6.8      1.695      1.763
REMARK  Name = 
REMARK  6 active torsions:
REMARK  status: ('A' for Active; 'I' for Inactive)
REMARK    1  A    between atoms: C_1  and  C_2
REMARK    2  A    between atoms: N_6  and  C_7
REMARK    3  A    between atoms: C_7  and  C_8
REMARK    4  A    between atoms: C_8  and  C_10
REMARK    5  A    between atoms: C_13  and  O_14
REMARK    6  A    between atoms: C_15  and  O_16
REMARK                            x       y       z     vdW  Elec       q    Type
REMARK                         _______ _______ _______ _____ _____    ______ ____
ROOT
ATOM      1  C   UNL     1       4.064   4.947  17.223  0.00  0.00    +0.000 A 
ATOM      2  C   UNL     1       4.566   3.926  16.390  0.00  0.00    +0.000 A 
ATOM      3  C   UNL     1       5.781   4.092  15.713  0.00  0.00    +0.000 A 
ATOM      4  C   UNL     1       6.514   5.277  15.855  0.00  0.00    +0.000 A 
ATOM      5  C   UNL     1       6.024   6.301  16.684  0.00  0.00    +0.000 A 
ATOM      6  C   UNL     1       4.811   6.131  17.356  0.00  0.00    +0.000 A 
ENDROOT
BRANCH   1   7
ATOM      7  C   UNL     1       2.765   4.776  17.949  0.00  0.00    +0.000 C 
ATOM      8  O   UNL     1       2.161   5.768  18.332  0.00  0.00    +0.000 OA
BRANCH   7   9
ATOM      9  C   UNL     1       2.165   3.407  18.248  0.00  0.00    +0.000 C 
BRANCH   9  15
ATOM     10  C   UNL     1       4.490   2.325  20.041  0.00  0.00    +0.000 C 
ATOM     11  C   UNL     1       3.099   2.650  20.487  0.00  0.00    +0.000 A 
ATOM     12  N   UNL     1       2.710   2.509  21.771  0.00  0.00    +0.000 NA
ATOM     13  C   UNL     1       1.420   2.891  21.786  0.00  0.00    +0.000 A 
ATOM     14  C   UNL     1       1.043   3.258  20.517  0.00  0.00    +0.000 A 
ATOM     15  N   UNL     1       2.097   3.110  19.693  0.00  0.00    +0.000 N 
ENDBRANCH   9  15
ENDBRANCH   7   9
ENDBRANCH   1   7
BRANCH   4  16
ATOM     16  O   UNL     1       7.682   5.444  15.200  0.00  0.00    +0.000 OA
ATOM     17  H   UNL     1       8.103   6.311  15.102  0.00  0.00    +0.000 HD
ENDBRANCH   4  16
BRANCH   5  18
ATOM     18  O   UNL     1       6.701   7.456  16.849  0.00  0.00    +0.000 OA
ATOM     19  H   UNL     1       6.388   8.171  17.419  0.00  0.00    +0.000 HD
ENDBRANCH   5  18
TORSDOF 5
ENDMDL
MODEL 3
REMARK VINA RESULT:      -6.7      3.031      4.857
REMARK  Name = 
REMARK  6 active torsions:
REMARK  status: ('A' for Active; 'I' for Inactive)
REMARK    1  A    between atoms: C_1  and  C_2
REMARK    2  A    between atoms: N_6  and  C_7
REMARK    3  A    between atoms: C_7  and  C_8
REMARK    4  A    between atoms: C_8  and  C_10
REMARK    5  A    between atoms: C_13  and  O_14
REMARK    6  A    between atoms: C_15  and  O_16
REMARK                            x       y       z     vdW  Elec       q    Type
REMARK                         _______ _______ _______ _____ _____    ______ ____
ROOT
ATOM      1  C   UNL     1       3.645   4.762  18.121  0.00  0.00    +0.000 A 
ATOM      2  C   UNL     1       2.778   3.979  17.332  0.00  0.00    +0.000 A 
ATOM      3  C   UNL     1       2.725   2.589  17.495  0.00  0.00    +0.000 A 
ATOM      4  C   UNL     1       3.537   1.957  18.447  0.00  0.00    +0.000 A 
ATOM      5  C   UNL     1       4.404   2.728  19.240  0.00  0.00    +0.000 A 
ATOM      6  C   UNL     1       4.453   4.114  19.073  0.00  0.00    +0.000 A 
ENDROOT
BRANCH   1   7
ATOM      7  C   UNL     1       3.705   6.249  17.950  0.00  0.00    +0.000 C 
ATOM      8  O   UNL     1       2.989   6.958  18.644  0.00  0.00    +0.000 OA
BRANCH   7   9
ATOM      9  C   UNL     1       4.614   6.923  16.930  0.00  0.00    +0.000 C 
BRANCH   9  15
ATOM     10  C   UNL     1       7.455   6.401  18.132  0.00  0.00    +0.000 C 
ATOM     11  C   UNL     1       6.879   5.772  16.902  0.00  0.00    +0.000 A 
ATOM     12  N   UNL     1       7.566   4.867  16.175  0.00  0.00    +0.000 NA
ATOM     13  C   UNL     1       6.740   4.534  15.167  0.00  0.00    +0.000 A 
ATOM     14  C   UNL     1       5.566   5.235  15.294  0.00  0.00    +0.000 A 
ATOM     15  N   UNL     1       5.646   6.017  16.387  0.00  0.00    +0.000 N 
ENDBRANCH   9  15
ENDBRANCH   7   9
ENDBRANCH   1   7
BRANCH   4  16
ATOM     16  O   UNL     1       3.495   0.617  18.603  0.00  0.00    +0.000 OA
ATOM     17  H   UNL     1       3.815   0.005  17.924  0.00  0.00    +0.000 HD
ENDBRANCH   4  16
BRANCH   5  18
ATOM     18  O   UNL     1       5.200   2.159  20.169  0.00  0.00    +0.000 OA
ATOM     19  H   UNL     1       5.568   1.270  20.070  0.00  0.00    +0.000 HD
ENDBRANCH   5  18
TORSDOF 5
ENDMDL
MODEL 4
REMARK VINA RESULT:      -6.7      1.812      2.198
REMARK  Name = 
REMARK  6 active torsions:
REMARK  status: ('A' for Active; 'I' for Inactive)
REMARK    1  A    between atoms: C_1  and  C_2
REMARK    2  A    between atoms: N_6  and  C_7
REMARK    3  A    between atoms: C_7  and  C_8
REMARK    4  A    between atoms: C_8  and  C_10
REMARK    5  A    between atoms: C_13  and  O_14
REMARK    6  A    between atoms: C_15  and  O_16
REMARK                            x       y       z     vdW  Elec       q    Type
REMARK                         _______ _______ _______ _____ _____    ______ ____
ROOT
ATOM      1  C   UNL     1       4.064   5.108  17.302  0.00  0.00    +0.000 A 
ATOM      2  C   UNL     1       4.802   6.301  17.455  0.00  0.00    +0.000 A 
ATOM      3  C   UNL     1       6.018   6.478  16.784  0.00  0.00    +0.000 A 
ATOM      4  C   UNL     1       6.519   5.469  15.950  0.00  0.00    +0.000 A 
ATOM      5  C   UNL     1       5.792   4.277  15.788  0.00  0.00    +0.000 A 
ATOM      6  C   UNL     1       4.579   4.106  16.461  0.00  0.00    +0.000 A 
ENDROOT
BRANCH   1   7
ATOM      7  C   UNL     1       2.764   4.914  18.018  0.00  0.00    +0.000 C 
ATOM      8  O   UNL     1       2.161   5.893  18.435  0.00  0.00    +0.000 OA
BRANCH   7   9
ATOM      9  C   UNL     1       2.159   3.538  18.267  0.00  0.00    +0.000 C 
BRANCH   9  15
ATOM     10  C   UNL     1       4.509   2.391  19.985  0.00  0.00    +0.000 C 
ATOM     11  C   UNL     1       3.122   2.690  20.461  0.00  0.00    +0.000 A 
ATOM     12  N   UNL     1       2.748   2.493  21.742  0.00  0.00    +0.000 NA
ATOM     13  C   UNL     1       1.457   2.867  21.787  0.00  0.00    +0.000 A 
ATOM     14  C   UNL     1       1.064   3.287  20.540  0.00  0.00    +0.000 A 
ATOM     15  N   UNL     1       2.109   3.178  19.698  0.00  0.00    +0.000 N 
ENDBRANCH   9  15
ENDBRANCH   7   9
ENDBRANCH   1   7
BRANCH   4  16
ATOM     16  O   UNL     1       7.694   5.633  15.306  0.00  0.00    +0.000 OA
ATOM     17  H   UNL     1       8.043   6.506  15.076  0.00  0.00    +0.000 HD
ENDBRANCH   4  16
BRANCH   5  18
ATOM     18  O   UNL     1       6.239   3.284  14.993  0.00  0.00    +0.000 OA
ATOM     19  H   UNL     1       5.730   2.942  14.245  0.00  0.00    +0.000 HD
ENDBRANCH   5  18
TORSDOF 5
ENDMDL
MODEL 5
REMARK VINA RESULT:      -6.7      2.969      5.165
REMARK  Name = 
REMARK  6 active torsions:
REMARK  status: ('A' for Active; 'I' for Inactive)
REMARK    1  A    between atoms: C_1  and  C_2
REMARK    2  A    between atoms: N_6  and  C_7
REMARK    3  A    between atoms: C_7  and  C_8
REMARK    4  A    between atoms: C_8  and  C_10
REMARK    5  A    between atoms: C_13  and  O_14
REMARK    6  A    between atoms: C_15  and  O_16
REMARK                            x       y       z     vdW  Elec       q    Type
REMARK                         _______ _______ _______ _____ _____    ______ ____
ROOT
ATOM      1  C   UNL     1       2.968   5.054  17.916  0.00  0.00    +0.000 A 
ATOM      2  C   UNL     1       3.227   3.900  17.146  0.00  0.00    +0.000 A 
ATOM      3  C   UNL     1       2.582   2.691  17.435  0.00  0.00    +0.000 A 
ATOM      4  C   UNL     1       1.669   2.612  18.494  0.00  0.00    +0.000 A 
ATOM      5  C   UNL     1       1.401   3.756  19.266  0.00  0.00    +0.000 A 
ATOM      6  C   UNL     1       2.048   4.959  18.975  0.00  0.00    +0.000 A 
ENDROOT
BRANCH   1   7
ATOM      7  C   UNL     1       3.656   6.349  17.612  0.00  0.00    +0.000 C 
ATOM      8  O   UNL     1       3.268   7.372  18.158  0.00  0.00    +0.000 OA
BRANCH   7   9
ATOM      9  C   UNL     1       4.818   6.452  16.631  0.00  0.00    +0.000 C 
BRANCH   9  15
ATOM     10  C   UNL     1       6.517   4.381  15.014  0.00  0.00    +0.000 C 
ATOM     11  C   UNL     1       6.787   4.861  16.406  0.00  0.00    +0.000 A 
ATOM     12  N   UNL     1       7.850   4.430  17.116  0.00  0.00    +0.000 NA
ATOM     13  C   UNL     1       7.761   5.071  18.296  0.00  0.00    +0.000 A 
ATOM     14  C   UNL     1       6.651   5.881  18.287  0.00  0.00    +0.000 A 
ATOM     15  N   UNL     1       6.033   5.754  17.099  0.00  0.00    +0.000 N 
ENDBRANCH   9  15
ENDBRANCH   7   9
ENDBRANCH   1   7
BRANCH   4  16
ATOM     16  O   UNL     1       1.049   1.447  18.780  0.00  0.00    +0.000 OA
ATOM     17  H   UNL     1       1.004   0.715  18.149  0.00  0.00    +0.000 HD
ENDBRANCH   4  16
BRANCH   5  18
ATOM     18  O   UNL     1       0.526   3.721  20.293  0.00  0.00    +0.000 OA
ATOM     19  H   UNL     1       0.451   4.434  20.942  0.00  0.00    +0.000 HD
ENDBRANCH   5  18
TORSDOF 5
ENDMDL
MODEL 6
REMARK VINA RESULT:      -6.6      3.029      5.356
REMARK  Name = 
REMARK  6 active torsions:
REMARK  status: ('A' for Active; 'I' for Inactive)
REMARK    1  A    between atoms: C_1  and  C_2
REMARK    2  A    between atoms: N_6  and  C_7
REMARK    3  A    between atoms: C_7  and  C_8
REMARK    4  A    between atoms: C_8  and  C_10
REMARK    5  A    between atoms: C_13  and  O_14
REMARK    6  A    between atoms: C_15  and  O_16
REMARK                            x       y       z     vdW  Elec       q    Type
REMARK                         _______ _______ _______ _____ _____    ______ ____
ROOT
ATOM      1  C   UNL     1       2.803   4.173  19.030  0.00  0.00    +0.000 A 
ATOM      2  C   UNL     1       1.463   4.404  19.404  0.00  0.00    +0.000 A 
ATOM      3  C   UNL     1       0.923   3.785  20.539  0.00  0.00    +0.000 A 
ATOM      4  C   UNL     1       1.709   2.926  21.318  0.00  0.00    +0.000 A 
ATOM      5  C   UNL     1       3.046   2.689  20.956  0.00  0.00    +0.000 A 
ATOM      6  C   UNL     1       3.580   3.308  19.823  0.00  0.00    +0.000 A 
ENDROOT
BRANCH   1   7
ATOM      7  C   UNL     1       3.386   4.832  17.818  0.00  0.00    +0.000 C 
ATOM      8  O   UNL     1       3.215   6.031  17.652  0.00  0.00    +0.000 OA
BRANCH   7   9
ATOM      9  C   UNL     1       4.176   4.065  16.765  0.00  0.00    +0.000 C 
BRANCH   9  15
ATOM     10  C   UNL     1       6.234   4.008  14.409  0.00  0.00    +0.000 C 
ATOM     11  C   UNL     1       6.538   4.270  15.851  0.00  0.00    +0.000 A 
ATOM     12  N   UNL     1       7.790   4.532  16.281  0.00  0.00    +0.000 NA
ATOM     13  C   UNL     1       7.670   4.711  17.609  0.00  0.00    +0.000 A 
ATOM     14  C   UNL     1       6.353   4.558  17.968  0.00  0.00    +0.000 A 
ATOM     15  N   UNL     1       5.633   4.281  16.865  0.00  0.00    +0.000 N 
ENDBRANCH   9  15
ENDBRANCH   7   9
ENDBRANCH   1   7
BRANCH   4  16
ATOM     16  O   UNL     1       1.190   2.322  22.408  0.00  0.00    +0.000 OA
ATOM     17  H   UNL     1       1.032   1.367  22.447  0.00  0.00    +0.000 HD
ENDBRANCH   4  16
BRANCH   5  18
ATOM     18  O   UNL     1       3.836   1.871  21.681  0.00  0.00    +0.000 OA
ATOM     19  H   UNL     1       3.878   0.916  21.533  0.00  0.00    +0.000 HD
ENDBRANCH   5  18
TORSDOF 5
ENDMDL
MODEL 7
REMARK VINA RESULT:      -6.6      2.025      2.473
REMARK  Name = 
REMARK  6 active torsions:
REMARK  status: ('A' for Active; 'I' for Inactive)
REMARK    1  A    between atoms: C_1  and  C_2
REMARK    2  A    between atoms: N_6  and  C_7
REMARK    3  A    between atoms: C_7  and  C_8
REMARK    4  A    between atoms: C_8  and  C_10
REMARK    5  A    between atoms: C_13  and  O_14
REMARK    6  A    between atoms: C_15  and  O_16
REMARK                            x       y       z     vdW  Elec       q    Type
REMARK                         _______ _______ _______ _____ _____    ______ ____
ROOT
ATOM      1  C   UNL     1       5.482   4.489  17.792  0.00  0.00    +0.000 A 
ATOM      2  C   UNL     1       5.201   3.749  16.625  0.00  0.00    +0.000 A 
ATOM      3  C   UNL     1       5.806   4.083  15.407  0.00  0.00    +0.000 A 
ATOM      4  C   UNL     1       6.701   5.159  15.332  0.00  0.00    +0.000 A 
ATOM      5  C   UNL     1       6.990   5.902  16.490  0.00  0.00    +0.000 A 
ATOM      6  C   UNL     1       6.382   5.566  17.702  0.00  0.00    +0.000 A 
ENDROOT
BRANCH   1   7
ATOM      7  C   UNL     1       4.836   4.137  19.097  0.00  0.00    +0.000 C 
ATOM      8  O   UNL     1       5.220   3.147  19.703  0.00  0.00    +0.000 OA
BRANCH   7   9
ATOM      9  C   UNL     1       3.702   4.956  19.700  0.00  0.00    +0.000 C 
BRANCH   9  15
ATOM     10  C   UNL     1       1.461   3.886  17.796  0.00  0.00    +0.000 C 
ATOM     11  C   UNL     1       1.562   3.653  19.271  0.00  0.00    +0.000 A 
ATOM     12  N   UNL     1       0.656   2.910  19.940  0.00  0.00    +0.000 NA
ATOM     13  C   UNL     1       1.073   2.927  21.220  0.00  0.00    +0.000 A 
ATOM     14  C   UNL     1       2.222   3.674  21.311  0.00  0.00    +0.000 A 
ATOM     15  N   UNL     1       2.537   4.134  20.086  0.00  0.00    +0.000 N 
ENDBRANCH   9  15
ENDBRANCH   7   9
ENDBRANCH   1   7
BRANCH   4  16
ATOM     16  O   UNL     1       7.282   5.488  14.159  0.00  0.00    +0.000 OA
ATOM     17  H   UNL     1       8.216   5.735  14.094  0.00  0.00    +0.000 HD
ENDBRANCH   4  16
BRANCH   5  18
ATOM     18  O   UNL     1       7.847   6.943  16.460  0.00  0.00    +0.000 OA
ATOM     19  H   UNL     1       7.724   7.739  16.995  0.00  0.00    +0.000 HD
ENDBRANCH   5  18
TORSDOF 5
ENDMDL
MODEL 8
REMARK VINA RESULT:      -6.6      0.728      1.679
REMARK  Name = 
REMARK  6 active torsions:
REMARK  status: ('A' for Active; 'I' for Inactive)
REMARK    1  A    between atoms: C_1  and  C_2
REMARK    2  A    between atoms: N_6  and  C_7
REMARK    3  A    between atoms: C_7  and  C_8
REMARK    4  A    between atoms: C_8  and  C_10
REMARK    5  A    between atoms: C_13  and  O_14
REMARK    6  A    between atoms: C_15  and  O_16
REMARK                            x       y       z     vdW  Elec       q    Type
REMARK                         _______ _______ _______ _____ _____    ______ ____
ROOT
ATOM      1  C   UNL     1       4.231   5.353  17.808  0.00  0.00    +0.000 A 
ATOM      2  C   UNL     1       5.149   5.501  18.868  0.00  0.00    +0.000 A 
ATOM      3  C   UNL     1       6.482   5.098  18.718  0.00  0.00    +0.000 A 
ATOM      4  C   UNL     1       6.921   4.541  17.509  0.00  0.00    +0.000 A 
ATOM      5  C   UNL     1       6.015   4.390  16.445  0.00  0.00    +0.000 A 
ATOM      6  C   UNL     1       4.686   4.793  16.600  0.00  0.00    +0.000 A 
ENDROOT
BRANCH   1   7
ATOM      7  C   UNL     1       2.804   5.781  17.963  0.00  0.00    +0.000 C 
ATOM      8  O   UNL     1       2.554   6.965  18.140  0.00  0.00    +0.000 OA
BRANCH   7   9
ATOM      9  C   UNL     1       1.641   4.798  17.926  0.00  0.00    +0.000 C 
BRANCH   9  15
ATOM     10  C   UNL     1       2.865   1.924  18.112  0.00  0.00    +0.000 C 
ATOM     11  C   UNL     1       2.140   2.655  19.198  0.00  0.00    +0.000 A 
ATOM     12  N   UNL     1       1.954   2.115  20.421  0.00  0.00    +0.000 NA
ATOM     13  C   UNL     1       1.277   3.050  21.112  0.00  0.00    +0.000 A 
ATOM     14  C   UNL     1       1.063   4.142  20.305  0.00  0.00    +0.000 A 
ATOM     15  N   UNL     1       1.605   3.900  19.098  0.00  0.00    +0.000 N 
ENDBRANCH   9  15
ENDBRANCH   7   9
ENDBRANCH   1   7
BRANCH   4  16
ATOM     16  O   UNL     1       8.203   4.145  17.362  0.00  0.00    +0.000 OA
ATOM     17  H   UNL     1       8.467   3.214  17.404  0.00  0.00    +0.000 HD
ENDBRANCH   4  16
BRANCH   5  18
ATOM     18  O   UNL     1       6.399   3.861  15.265  0.00  0.00    +0.000 OA
ATOM     19  H   UNL     1       7.116   4.232  14.733  0.00  0.00    +0.000 HD
ENDBRANCH   5  18
TORSDOF 5
ENDMDL
MODEL 9
REMARK VINA RESULT:      -6.5      1.416      1.821
REMARK  Name = 
REMARK  6 active torsions:
REMARK  status: ('A' for Active; 'I' for Inactive)
REMARK    1  A    between atoms: C_1  and  C_2
REMARK    2  A    between atoms: N_6  and  C_7
REMARK    3  A    between atoms: C_7  and  C_8
REMARK    4  A    between atoms: C_8  and  C_10
REMARK    5  A    between atoms: C_13  and  O_14
REMARK    6  A    between atoms: C_15  and  O_16
REMARK                            x       y       z     vdW  Elec       q    Type
REMARK                         _______ _______ _______ _____ _____    ______ ____
ROOT
ATOM      1  C   UNL     1       4.881   5.500  17.945  0.00  0.00    +0.000 A 
ATOM      2  C   UNL     1       4.621   6.094  16.693  0.00  0.00    +0.000 A 
ATOM      3  C   UNL     1       5.560   6.013  15.657  0.00  0.00    +0.000 A 
ATOM      4  C   UNL     1       6.773   5.340  15.852  0.00  0.00    +0.000 A 
ATOM      5  C   UNL     1       7.042   4.742  17.095  0.00  0.00    +0.000 A 
ATOM      6  C   UNL     1       6.103   4.826  18.126  0.00  0.00    +0.000 A 
ENDROOT
BRANCH   1   7
ATOM      7  C   UNL     1       3.881   5.583  19.057  0.00  0.00    +0.000 C 
ATOM      8  O   UNL     1       3.258   6.623  19.220  0.00  0.00    +0.000 OA
BRANCH   7   9
ATOM      9  C   UNL     1       3.614   4.426  20.011  0.00  0.00    +0.000 C 
BRANCH   9  15
ATOM     10  C   UNL     1       3.592   1.979  18.061  0.00  0.00    +0.000 C 
ATOM     11  C   UNL     1       2.414   2.548  18.790  0.00  0.00    +0.000 A 
ATOM     12  N   UNL     1       1.179   2.019  18.673  0.00  0.00    +0.000 NA
ATOM     13  C   UNL     1       0.399   2.783  19.459  0.00  0.00    +0.000 A 
ATOM     14  C   UNL     1       1.167   3.762  20.043  0.00  0.00    +0.000 A 
ATOM     15  N   UNL     1       2.439   3.619  19.626  0.00  0.00    +0.000 N 
ENDBRANCH   9  15
ENDBRANCH   7   9
ENDBRANCH   1   7
BRANCH   4  16
ATOM     16  O   UNL     1       7.683   5.265  14.858  0.00  0.00    +0.000 OA
ATOM     17  H   UNL     1       8.637   5.276  15.026  0.00  0.00    +0.000 HD
ENDBRANCH   4  16
BRANCH   5  18
ATOM     18  O   UNL     1       8.197   4.082  17.322  0.00  0.00    +0.000 OA
ATOM     19  H   UNL     1       8.567   3.443  16.698  0.00  0.00    +0.000 HD
ENDBRANCH   5  18
TORSDOF 5
ENDMDL
