MODEL 1
REMARK VINA RESULT:      -7.7      0.000      0.000
REMARK  Name = 
REMARK  3 active torsions:
REMARK  status: ('A' for Active; 'I' for Inactive)
REMARK    1  A    between atoms: C_1  and  C_2
REMARK    2  A    between atoms: C_4  and  C_5
REMARK    3  A    between atoms: C_10  and  C_11
REMARK                            x       y       z     vdW  Elec       q    Type
REMARK                         _______ _______ _______ _____ _____    ______ ____
ROOT
ATOM      1  C   UNL     1       3.415   6.493  18.406  0.00  0.00    +0.000 A 
ATOM      2  C   UNL     1       3.019   5.558  19.384  0.00  0.00    +0.000 A 
ATOM      3  C   UNL     1       2.119   5.899  20.412  0.00  0.00    +0.000 A 
ATOM      4  C   UNL     1       1.621   7.207  20.442  0.00  0.00    +0.000 A 
ATOM      5  N   UNL     1       0.764   7.839  21.306  0.00  0.00    +0.000 NA
ATOM      6  C   UNL     1       0.660   9.070  20.823  0.00  0.00    +0.000 A 
ATOM      7  O   UNL     1       1.410   9.281  19.688  0.00  0.00    +0.000 OA
ATOM      8  C   UNL     1       2.018   8.087  19.457  0.00  0.00    +0.000 A 
ATOM      9  C   UNL     1       2.893   7.797  18.421  0.00  0.00    +0.000 A 
ENDROOT
BRANCH   1  13
ATOM     10  C   UNL     1       7.635   4.398  17.174  0.00  0.00    +0.000 C 
ATOM     11  C   UNL     1       6.238   4.451  16.554  0.00  0.00    +0.000 C 
ATOM     12  C   UNL     1       5.191   4.804  17.596  0.00  0.00    +0.000 C 
ATOM     13  C   UNL     1       4.440   6.098  17.377  0.00  0.00    +0.000 C 
ATOM     14  N   UNL     1       4.613   6.854  16.342  0.00  0.00    +0.000 NA
ATOM     15  N   UNL     1       5.490   6.481  15.385  0.00  0.00    +0.000 N 
ATOM     16  C   UNL     1       6.263   5.359  15.352  0.00  0.00    +0.000 C 
ATOM     17  O   UNL     1       6.976   5.120  14.377  0.00  0.00    +0.000 OA
ATOM     18  H   UNL     1       5.539   7.080  14.566  0.00  0.00    +0.000 HD
ENDBRANCH   1  13
BRANCH   6  19
ATOM     19  C   UNL     1      -0.166  10.086  21.412  0.00  0.00    +0.000 A 
ATOM     20  C   UNL     1      -0.540  10.191  22.738  0.00  0.00    +0.000 A 
ATOM     21  C   UNL     1      -1.392  11.308  22.977  0.00  0.00    +0.000 A 
ATOM     22  C   UNL     1      -1.636  12.026  21.827  0.00  0.00    +0.000 A 
ATOM     23  S   UNL     1      -0.834  11.356  20.474  0.00  0.00    +0.000 S 
ENDBRANCH   6  19
TORSDOF 2
ENDMDL
MODEL 2
REMARK VINA RESULT:      -7.6      2.951      3.609
REMARK  Name = 
REMARK  3 active torsions:
REMARK  status: ('A' for Active; 'I' for Inactive)
REMARK    1  A    between atoms: C_1  and  C_2
REMARK    2  A    between atoms: C_4  and  C_5
REMARK    3  A    between atoms: C_10  and  C_11
REMARK                            x       y       z     vdW  Elec       q    Type
REMARK                         _______ _______ _______ _____ _____    ______ ____
ROOT
ATOM      1  C   UNL     1       2.198   7.119  19.093  0.00  0.00    +0.000 A 
ATOM      2  C   UNL     1       2.257   7.937  17.946  0.00  0.00    +0.000 A 
ATOM      3  C   UNL     1       1.822   9.276  17.968  0.00  0.00    +0.000 A 
ATOM      4  C   UNL     1       1.320   9.783  19.172  0.00  0.00    +0.000 A 
ATOM      5  N   UNL     1       0.812  11.013  19.505  0.00  0.00    +0.000 NA
ATOM      6  C   UNL     1       0.503  10.903  20.790  0.00  0.00    +0.000 A 
ATOM      7  O   UNL     1       0.777   9.662  21.318  0.00  0.00    +0.000 OA
ATOM      8  C   UNL     1       1.296   8.958  20.278  0.00  0.00    +0.000 A 
ATOM      9  C   UNL     1       1.721   7.638  20.308  0.00  0.00    +0.000 A 
ENDROOT
BRANCH   1  13
ATOM     10  C   UNL     1       1.086   2.400  18.640  0.00  0.00    +0.000 C 
ATOM     11  C   UNL     1       2.177   3.308  18.072  0.00  0.00    +0.000 C 
ATOM     12  C   UNL     1       1.758   4.766  18.127  0.00  0.00    +0.000 C 
ATOM     13  C   UNL     1       2.603   5.673  18.993  0.00  0.00    +0.000 C 
ATOM     14  N   UNL     1       3.663   5.274  19.617  0.00  0.00    +0.000 NA
ATOM     15  N   UNL     1       4.067   3.991  19.489  0.00  0.00    +0.000 N 
ATOM     16  C   UNL     1       3.483   3.002  18.757  0.00  0.00    +0.000 C 
ATOM     17  O   UNL     1       4.003   1.888  18.685  0.00  0.00    +0.000 OA
ATOM     18  H   UNL     1       4.939   3.750  19.950  0.00  0.00    +0.000 HD
ENDBRANCH   1  13
BRANCH   6  19
ATOM     19  C   UNL     1      -0.050  11.977  21.566  0.00  0.00    +0.000 A 
ATOM     20  C   UNL     1       0.279  13.317  21.487  0.00  0.00    +0.000 A 
ATOM     21  C   UNL     1      -0.443  14.111  22.427  0.00  0.00    +0.000 A 
ATOM     22  C   UNL     1      -1.304  13.353  23.188  0.00  0.00    +0.000 A 
ATOM     23  S   UNL     1      -1.244  11.698  22.764  0.00  0.00    +0.000 S 
ENDBRANCH   6  19
TORSDOF 2
ENDMDL
MODEL 3
REMARK VINA RESULT:      -7.6      2.990      3.680
REMARK  Name = 
REMARK  3 active torsions:
REMARK  status: ('A' for Active; 'I' for Inactive)
REMARK    1  A    between atoms: C_1  and  C_2
REMARK    2  A    between atoms: C_4  and  C_5
REMARK    3  A    between atoms: C_10  and  C_11
REMARK                            x       y       z     vdW  Elec       q    Type
REMARK                         _______ _______ _______ _____ _____    ______ ____
ROOT
ATOM      1  C   UNL     1       2.211   7.118  19.593  0.00  0.00    +0.000 A 
ATOM      2  C   UNL     1       2.314   7.827  18.379  0.00  0.00    +0.000 A 
ATOM      3  C   UNL     1       1.765   9.114  18.224  0.00  0.00    +0.000 A 
ATOM      4  C   UNL     1       1.104   9.682  19.320  0.00  0.00    +0.000 A 
ATOM      5  N   UNL     1       0.462  10.883  19.478  0.00  0.00    +0.000 NA
ATOM      6  C   UNL     1       0.036  10.865  20.734  0.00  0.00    +0.000 A 
ATOM      7  O   UNL     1       0.362   9.711  21.408  0.00  0.00    +0.000 OA
ATOM      8  C   UNL     1       1.040   8.965  20.497  0.00  0.00    +0.000 A 
ATOM      9  C   UNL     1       1.572   7.700  20.700  0.00  0.00    +0.000 A 
ENDROOT
BRANCH   1  13
ATOM     10  C   UNL     1       2.288   2.699  21.638  0.00  0.00    +0.000 C 
ATOM     11  C   UNL     1       2.368   3.223  20.203  0.00  0.00    +0.000 C 
ATOM     12  C   UNL     1       1.788   4.623  20.100  0.00  0.00    +0.000 C 
ATOM     13  C   UNL     1       2.746   5.714  19.679  0.00  0.00    +0.000 C 
ATOM     14  N   UNL     1       3.980   5.493  19.360  0.00  0.00    +0.000 NA
ATOM     15  N   UNL     1       4.455   4.229  19.379  0.00  0.00    +0.000 N 
ATOM     16  C   UNL     1       3.783   3.089  19.705  0.00  0.00    +0.000 C 
ATOM     17  O   UNL     1       4.335   1.992  19.616  0.00  0.00    +0.000 OA
ATOM     18  H   UNL     1       5.412   4.107  19.059  0.00  0.00    +0.000 HD
ENDBRANCH   1  13
BRANCH   6  19
ATOM     19  C   UNL     1      -0.681  11.950  21.343  0.00  0.00    +0.000 A 
ATOM     20  C   UNL     1      -1.034  12.071  22.674  0.00  0.00    +0.000 A 
ATOM     21  C   UNL     1      -1.769  13.265  22.936  0.00  0.00    +0.000 A 
ATOM     22  C   UNL     1      -1.948  14.020  21.798  0.00  0.00    +0.000 A 
ATOM     23  S   UNL     1      -1.226  13.294  20.429  0.00  0.00    +0.000 S 
ENDBRANCH   6  19
TORSDOF 2
ENDMDL
MODEL 4
REMARK VINA RESULT:      -7.6      1.359      1.574
REMARK  Name = 
REMARK  3 active torsions:
REMARK  status: ('A' for Active; 'I' for Inactive)
REMARK    1  A    between atoms: C_1  and  C_2
REMARK    2  A    between atoms: C_4  and  C_5
REMARK    3  A    between atoms: C_10  and  C_11
REMARK                            x       y       z     vdW  Elec       q    Type
REMARK                         _______ _______ _______ _____ _____    ______ ____
ROOT
ATOM      1  C   UNL     1       3.434   5.964  19.146  0.00  0.00    +0.000 A 
ATOM      2  C   UNL     1       2.714   5.075  19.971  0.00  0.00    +0.000 A 
ATOM      3  C   UNL     1       1.662   5.517  20.796  0.00  0.00    +0.000 A 
ATOM      4  C   UNL     1       1.344   6.880  20.779  0.00  0.00    +0.000 A 
ATOM      5  N   UNL     1       0.407   7.608  21.466  0.00  0.00    +0.000 NA
ATOM      6  C   UNL     1       0.572   8.850  21.031  0.00  0.00    +0.000 A 
ATOM      7  O   UNL     1       1.574   8.976  20.096  0.00  0.00    +0.000 OA
ATOM      8  C   UNL     1       2.058   7.715  19.945  0.00  0.00    +0.000 A 
ATOM      9  C   UNL     1       3.095   7.326  19.110  0.00  0.00    +0.000 A 
ENDROOT
BRANCH   1  13
ATOM     10  C   UNL     1       5.405   4.495  14.943  0.00  0.00    +0.000 C 
ATOM     11  C   UNL     1       5.889   5.343  16.121  0.00  0.00    +0.000 C 
ATOM     12  C   UNL     1       4.717   5.902  16.908  0.00  0.00    +0.000 C 
ATOM     13  C   UNL     1       4.600   5.451  18.345  0.00  0.00    +0.000 C 
ATOM     14  N   UNL     1       5.465   4.679  18.921  0.00  0.00    +0.000 NA
ATOM     15  N   UNL     1       6.545   4.258  18.227  0.00  0.00    +0.000 N 
ATOM     16  C   UNL     1       6.872   4.544  16.936  0.00  0.00    +0.000 C 
ATOM     17  O   UNL     1       7.929   4.136  16.454  0.00  0.00    +0.000 OA
ATOM     18  H   UNL     1       7.221   3.707  18.748  0.00  0.00    +0.000 HD
ENDBRANCH   1  13
BRANCH   6  19
ATOM     19  C   UNL     1      -0.225   9.959  21.475  0.00  0.00    +0.000 A 
ATOM     20  C   UNL     1      -0.640  10.222  22.767  0.00  0.00    +0.000 A 
ATOM     21  C   UNL     1      -1.446  11.395  22.852  0.00  0.00    +0.000 A 
ATOM     22  C   UNL     1      -1.613  11.995  21.623  0.00  0.00    +0.000 A 
ATOM     23  S   UNL     1      -0.797  11.149  20.382  0.00  0.00    +0.000 S 
ENDBRANCH   6  19
TORSDOF 2
ENDMDL
MODEL 5
REMARK VINA RESULT:      -7.5      2.588      3.239
REMARK  Name = 
REMARK  3 active torsions:
REMARK  status: ('A' for Active; 'I' for Inactive)
REMARK    1  A    between atoms: C_1  and  C_2
REMARK    2  A    between atoms: C_4  and  C_5
REMARK    3  A    between atoms: C_10  and  C_11
REMARK                            x       y       z     vdW  Elec       q    Type
REMARK                         _______ _______ _______ _____ _____    ______ ____
ROOT
ATOM      1  C   UNL     1       2.253   7.407  19.366  0.00  0.00    +0.000 A 
ATOM      2  C   UNL     1       2.214   8.187  18.193  0.00  0.00    +0.000 A 
ATOM      3  C   UNL     1       1.510   9.406  18.138  0.00  0.00    +0.000 A 
ATOM      4  C   UNL     1       0.840   9.830  19.291  0.00  0.00    +0.000 A 
ATOM      5  N   UNL     1       0.069  10.935  19.546  0.00  0.00    +0.000 NA
ATOM      6  C   UNL     1      -0.291  10.798  20.815  0.00  0.00    +0.000 A 
ATOM      7  O   UNL     1       0.200   9.656  21.406  0.00  0.00    +0.000 OA
ATOM      8  C   UNL     1       0.918   9.048  20.425  0.00  0.00    +0.000 A 
ATOM      9  C   UNL     1       1.604   7.847  20.531  0.00  0.00    +0.000 A 
ENDROOT
BRANCH   1  13
ATOM     10  C   UNL     1       4.492   3.800  16.981  0.00  0.00    +0.000 C 
ATOM     11  C   UNL     1       4.718   4.510  18.316  0.00  0.00    +0.000 C 
ATOM     12  C   UNL     1       4.053   5.875  18.328  0.00  0.00    +0.000 C 
ATOM     13  C   UNL     1       2.953   6.074  19.346  0.00  0.00    +0.000 C 
ATOM     14  N   UNL     1       2.614   5.175  20.212  0.00  0.00    +0.000 NA
ATOM     15  N   UNL     1       3.273   3.996  20.239  0.00  0.00    +0.000 N 
ATOM     16  C   UNL     1       4.302   3.597  19.439  0.00  0.00    +0.000 C 
ATOM     17  O   UNL     1       4.850   2.509  19.623  0.00  0.00    +0.000 OA
ATOM     18  H   UNL     1       3.007   3.353  20.979  0.00  0.00    +0.000 HD
ENDBRANCH   1  13
BRANCH   6  19
ATOM     19  C   UNL     1      -1.101  11.753  21.517  0.00  0.00    +0.000 A 
ATOM     20  C   UNL     1      -1.369  11.782  22.872  0.00  0.00    +0.000 A 
ATOM     21  C   UNL     1      -2.237  12.855  23.233  0.00  0.00    +0.000 A 
ATOM     22  C   UNL     1      -2.598  13.615  22.142  0.00  0.00    +0.000 A 
ATOM     23  S   UNL     1      -1.886  13.039  20.698  0.00  0.00    +0.000 S 
ENDBRANCH   6  19
TORSDOF 2
ENDMDL
MODEL 6
REMARK VINA RESULT:      -7.4      2.984      3.697
REMARK  Name = 
REMARK  3 active torsions:
REMARK  status: ('A' for Active; 'I' for Inactive)
REMARK    1  A    between atoms: C_1  and  C_2
REMARK    2  A    between atoms: C_4  and  C_5
REMARK    3  A    between atoms: C_10  and  C_11
REMARK                            x       y       z     vdW  Elec       q    Type
REMARK                         _______ _______ _______ _____ _____    ______ ____
ROOT
ATOM      1  C   UNL     1       2.530   6.840  19.351  0.00  0.00    +0.000 A 
ATOM      2  C   UNL     1       2.638   7.435  18.077  0.00  0.00    +0.000 A 
ATOM      3  C   UNL     1       2.056   8.685  17.792  0.00  0.00    +0.000 A 
ATOM      4  C   UNL     1       1.356   9.332  18.816  0.00  0.00    +0.000 A 
ATOM      5  N   UNL     1       0.676  10.523  18.848  0.00  0.00    +0.000 NA
ATOM      6  C   UNL     1       0.225  10.610  20.092  0.00  0.00    +0.000 A 
ATOM      7  O   UNL     1       0.569   9.534  20.879  0.00  0.00    +0.000 OA
ATOM      8  C   UNL     1       1.288   8.727  20.054  0.00  0.00    +0.000 A 
ATOM      9  C   UNL     1       1.851   7.504  20.385  0.00  0.00    +0.000 A 
ENDROOT
BRANCH   1  13
ATOM     10  C   UNL     1       2.532   2.544  21.643  0.00  0.00    +0.000 C 
ATOM     11  C   UNL     1       2.759   2.994  20.199  0.00  0.00    +0.000 C 
ATOM     12  C   UNL     1       2.144   4.359  19.949  0.00  0.00    +0.000 C 
ATOM     13  C   UNL     1       3.103   5.467  19.578  0.00  0.00    +0.000 C 
ATOM     14  N   UNL     1       4.373   5.283  19.415  0.00  0.00    +0.000 NA
ATOM     15  N   UNL     1       4.890   4.044  19.562  0.00  0.00    +0.000 N 
ATOM     16  C   UNL     1       4.227   2.895  19.875  0.00  0.00    +0.000 C 
ATOM     17  O   UNL     1       4.826   1.820  19.913  0.00  0.00    +0.000 OA
ATOM     18  H   UNL     1       5.881   3.947  19.362  0.00  0.00    +0.000 HD
ENDBRANCH   1  13
BRANCH   6  19
ATOM     19  C   UNL     1      -0.536  11.724  20.584  0.00  0.00    +0.000 A 
ATOM     20  C   UNL     1      -0.888  12.864  19.887  0.00  0.00    +0.000 A 
ATOM     21  C   UNL     1      -1.623  13.787  20.688  0.00  0.00    +0.000 A 
ATOM     22  C   UNL     1      -1.816  13.317  21.969  0.00  0.00    +0.000 A 
ATOM     23  S   UNL     1      -1.119  11.773  22.195  0.00  0.00    +0.000 S 
ENDBRANCH   6  19
TORSDOF 2
ENDMDL
MODEL 7
REMARK VINA RESULT:      -7.4      0.972      1.075
REMARK  Name = 
REMARK  3 active torsions:
REMARK  status: ('A' for Active; 'I' for Inactive)
REMARK    1  A    between atoms: C_1  and  C_2
REMARK    2  A    between atoms: C_4  and  C_5
REMARK    3  A    between atoms: C_10  and  C_11
REMARK                            x       y       z     vdW  Elec       q    Type
REMARK                         _______ _______ _______ _____ _____    ______ ____
ROOT
ATOM      1  C   UNL     1       3.433   6.868  18.164  0.00  0.00    +0.000 A 
ATOM      2  C   UNL     1       3.103   6.213  19.368  0.00  0.00    +0.000 A 
ATOM      3  C   UNL     1       2.179   6.759  20.279  0.00  0.00    +0.000 A 
ATOM      4  C   UNL     1       1.588   7.987  19.957  0.00  0.00    +0.000 A 
ATOM      5  N   UNL     1       0.685   8.771  20.630  0.00  0.00    +0.000 NA
ATOM      6  C   UNL     1       0.494   9.811  19.830  0.00  0.00    +0.000 A 
ATOM      7  O   UNL     1       1.229   9.753  18.667  0.00  0.00    +0.000 OA
ATOM      8  C   UNL     1       1.922   8.588  18.762  0.00  0.00    +0.000 A 
ATOM      9  C   UNL     1       2.818   8.086  17.830  0.00  0.00    +0.000 A 
ENDROOT
BRANCH   1  13
ATOM     10  C   UNL     1       7.643   4.514  17.500  0.00  0.00    +0.000 C 
ATOM     11  C   UNL     1       6.273   4.480  16.823  0.00  0.00    +0.000 C 
ATOM     12  C   UNL     1       5.197   5.031  17.741  0.00  0.00    +0.000 C 
ATOM     13  C   UNL     1       4.486   6.278  17.265  0.00  0.00    +0.000 C 
ATOM     14  N   UNL     1       4.716   6.835  16.120  0.00  0.00    +0.000 NA
ATOM     15  N   UNL     1       5.620   6.282  15.282  0.00  0.00    +0.000 N 
ATOM     16  C   UNL     1       6.366   5.159  15.481  0.00  0.00    +0.000 C 
ATOM     17  O   UNL     1       7.108   4.737  14.595  0.00  0.00    +0.000 OA
ATOM     18  H   UNL     1       5.714   6.724  14.373  0.00  0.00    +0.000 HD
ENDBRANCH   1  13
BRANCH   6  19
ATOM     19  C   UNL     1      -0.405  10.889  20.132  0.00  0.00    +0.000 A 
ATOM     20  C   UNL     1      -0.519  11.567  21.331  0.00  0.00    +0.000 A 
ATOM     21  C   UNL     1      -1.536  12.567  21.296  0.00  0.00    +0.000 A 
ATOM     22  C   UNL     1      -2.160  12.625  20.070  0.00  0.00    +0.000 A 
ATOM     23  S   UNL     1      -1.515  11.486  18.970  0.00  0.00    +0.000 S 
ENDBRANCH   6  19
TORSDOF 2
ENDMDL
MODEL 8
REMARK VINA RESULT:      -7.3      1.559      1.833
REMARK  Name = 
REMARK  3 active torsions:
REMARK  status: ('A' for Active; 'I' for Inactive)
REMARK    1  A    between atoms: C_1  and  C_2
REMARK    2  A    between atoms: C_4  and  C_5
REMARK    3  A    between atoms: C_10  and  C_11
REMARK                            x       y       z     vdW  Elec       q    Type
REMARK                         _______ _______ _______ _____ _____    ______ ____
ROOT
ATOM      1  C   UNL     1       3.493   6.477  18.766  0.00  0.00    +0.000 A 
ATOM      2  C   UNL     1       2.948   5.879  19.921  0.00  0.00    +0.000 A 
ATOM      3  C   UNL     1       1.915   6.492  20.655  0.00  0.00    +0.000 A 
ATOM      4  C   UNL     1       1.436   7.728  20.207  0.00  0.00    +0.000 A 
ATOM      5  N   UNL     1       0.472   8.569  20.703  0.00  0.00    +0.000 NA
ATOM      6  C   UNL     1       0.455   9.586  19.852  0.00  0.00    +0.000 A 
ATOM      7  O   UNL     1       1.362   9.459  18.824  0.00  0.00    +0.000 OA
ATOM      8  C   UNL     1       1.981   8.273  19.063  0.00  0.00    +0.000 A 
ATOM      9  C   UNL     1       2.991   7.704  18.302  0.00  0.00    +0.000 A 
ENDROOT
BRANCH   1  13
ATOM     10  C   UNL     1       5.594   4.700  14.749  0.00  0.00    +0.000 C 
ATOM     11  C   UNL     1       6.081   5.513  15.949  0.00  0.00    +0.000 C 
ATOM     12  C   UNL     1       4.926   6.220  16.635  0.00  0.00    +0.000 C 
ATOM     13  C   UNL     1       4.649   5.816  18.065  0.00  0.00    +0.000 C 
ATOM     14  N   UNL     1       5.372   4.963  18.716  0.00  0.00    +0.000 NA
ATOM     15  N   UNL     1       6.445   4.405  18.114  0.00  0.00    +0.000 N 
ATOM     16  C   UNL     1       6.900   4.625  16.849  0.00  0.00    +0.000 C 
ATOM     17  O   UNL     1       7.936   4.087  16.456  0.00  0.00    +0.000 OA
ATOM     18  H   UNL     1       7.011   3.792  18.693  0.00  0.00    +0.000 HD
ENDBRANCH   1  13
BRANCH   6  19
ATOM     19  C   UNL     1      -0.434  10.707  19.974  0.00  0.00    +0.000 A 
ATOM     20  C   UNL     1      -0.567  11.550  21.062  0.00  0.00    +0.000 A 
ATOM     21  C   UNL     1      -1.566  12.547  20.859  0.00  0.00    +0.000 A 
ATOM     22  C   UNL     1      -2.158  12.439  19.620  0.00  0.00    +0.000 A 
ATOM     23  S   UNL     1      -1.505  11.147  18.710  0.00  0.00    +0.000 S 
ENDBRANCH   6  19
TORSDOF 2
ENDMDL
MODEL 9
REMARK VINA RESULT:      -7.2      2.203      2.771
REMARK  Name = 
REMARK  3 active torsions:
REMARK  status: ('A' for Active; 'I' for Inactive)
REMARK    1  A    between atoms: C_1  and  C_2
REMARK    2  A    between atoms: C_4  and  C_5
REMARK    3  A    between atoms: C_10  and  C_11
REMARK                            x       y       z     vdW  Elec       q    Type
REMARK                         _______ _______ _______ _____ _____    ______ ____
ROOT
ATOM      1  C   UNL     1       2.517   7.176  18.696  0.00  0.00    +0.000 A 
ATOM      2  C   UNL     1       2.087   6.969  20.023  0.00  0.00    +0.000 A 
ATOM      3  C   UNL     1       1.413   7.970  20.748  0.00  0.00    +0.000 A 
ATOM      4  C   UNL     1       1.176   9.194  20.112  0.00  0.00    +0.000 A 
ATOM      5  N   UNL     1       0.576  10.348  20.546  0.00  0.00    +0.000 NA
ATOM      6  C   UNL     1       0.639  11.163  19.502  0.00  0.00    +0.000 A 
ATOM      7  O   UNL     1       1.256  10.606  18.405  0.00  0.00    +0.000 OA
ATOM      8  C   UNL     1       1.595   9.353  18.807  0.00  0.00    +0.000 A 
ATOM      9  C   UNL     1       2.253   8.395  18.050  0.00  0.00    +0.000 A 
ENDROOT
BRANCH   1  13
ATOM     10  C   UNL     1       3.649   2.493  17.990  0.00  0.00    +0.000 C 
ATOM     11  C   UNL     1       3.451   3.702  17.075  0.00  0.00    +0.000 C 
ATOM     12  C   UNL     1       2.619   4.774  17.758  0.00  0.00    +0.000 C 
ATOM     13  C   UNL     1       3.303   6.101  17.995  0.00  0.00    +0.000 C 
ATOM     14  N   UNL     1       4.506   6.362  17.598  0.00  0.00    +0.000 NA
ATOM     15  N   UNL     1       5.201   5.423  16.920  0.00  0.00    +0.000 N 
ATOM     16  C   UNL     1       4.792   4.170  16.574  0.00  0.00    +0.000 C 
ATOM     17  O   UNL     1       5.517   3.441  15.896  0.00  0.00    +0.000 OA
ATOM     18  H   UNL     1       6.115   5.705  16.578  0.00  0.00    +0.000 HD
ENDBRANCH   1  13
BRANCH   6  19
ATOM     19  C   UNL     1       0.103  12.496  19.503  0.00  0.00    +0.000 A 
ATOM     20  C   UNL     1       0.369  13.501  18.592  0.00  0.00    +0.000 A 
ATOM     21  C   UNL     1      -0.312  14.714  18.906  0.00  0.00    +0.000 A 
ATOM     22  C   UNL     1      -1.081  14.594  20.043  0.00  0.00    +0.000 A 
ATOM     23  S   UNL     1      -0.984  13.026  20.717  0.00  0.00    +0.000 S 
ENDBRANCH   6  19
TORSDOF 2
ENDMDL
