MODEL 1
REMARK VINA RESULT:      -8.0      0.000      0.000
REMARK  Name = 
REMARK  9 active torsions:
REMARK  status: ('A' for Active; 'I' for Inactive)
REMARK    1  A    between atoms: C_1  and  O_2
REMARK    2  A    between atoms: O_2  and  C_3
REMARK    3  A    between atoms: C_7  and  N_8
REMARK    4  A    between atoms: N_11  and  C_12
REMARK    5  A    between atoms: C_12  and  C_13
REMARK    6  A    between atoms: N_23  and  C_24
REMARK    7  A    between atoms: C_24  and  C_25
REMARK    8  A    between atoms: C_25  and  N_26
REMARK    9  A    between atoms: C_25  and  C_27
REMARK                            x       y       z     vdW  Elec       q    Type
REMARK                         _______ _______ _______ _____ _____    ______ ____
ROOT
ATOM      1  N   UNL     1       5.329   4.901  15.849  0.00  0.00    +0.000 N 
ATOM      2  C   UNL     1       5.065   3.807  16.667  0.00  0.00    +0.000 A 
ATOM      3  O   UNL     1       5.223   2.635  16.312  0.00  0.00    +0.000 OA
ATOM      4  N   UNL     1       4.662   4.100  17.956  0.00  0.00    +0.000 N 
ATOM      5  C   UNL     1       4.425   5.382  18.405  0.00  0.00    +0.000 A 
ATOM      6  O   UNL     1       4.248   5.647  19.592  0.00  0.00    +0.000 OA
ATOM      7  N   UNL     1       4.408   6.366  17.436  0.00  0.00    +0.000 N 
ATOM      8  C   UNL     1       4.975   6.200  16.185  0.00  0.00    +0.000 A 
ATOM      9  O   UNL     1       5.118   7.162  15.424  0.00  0.00    +0.000 OA
ENDROOT
BRANCH   1  14
ATOM     10  C   UNL     1       5.772   3.550  12.396  0.00  0.00    +0.000 A 
ATOM     11  C   UNL     1       7.042   4.041  12.089  0.00  0.00    +0.000 A 
ATOM     12  C   UNL     1       7.730   4.851  12.995  0.00  0.00    +0.000 A 
ATOM     13  C   UNL     1       7.147   5.177  14.221  0.00  0.00    +0.000 A 
ATOM     14  C   UNL     1       5.891   4.657  14.557  0.00  0.00    +0.000 A 
ATOM     15  C   UNL     1       5.208   3.851  13.635  0.00  0.00    +0.000 A 
BRANCH  10  17
ATOM     16  C   UNL     1       3.882   3.183  11.007  0.00  0.00    +0.000 C 
ATOM     17  O   UNL     1       5.187   2.790  11.420  0.00  0.00    +0.000 OA
ENDBRANCH  10  17
ENDBRANCH   1  14
BRANCH   4  18
ATOM     18  C   UNL     1       4.575   2.992  18.907  0.00  0.00    +0.000 C 
BRANCH  18  19
ATOM     19  C   UNL     1       3.239   2.807  19.588  0.00  0.00    +0.000 A 
ATOM     20  C   UNL     1       3.207   2.476  20.949  0.00  0.00    +0.000 A 
ATOM     21  F   UNL     1       4.353   2.242  21.604  0.00  0.00    +0.000 F 
ATOM     22  C   UNL     1       2.012   2.402  21.666  0.00  0.00    +0.000 A 
ATOM     23  C   UNL     1       0.806   2.677  21.029  0.00  0.00    +0.000 A 
ATOM     24  C   UNL     1       0.809   3.006  19.676  0.00  0.00    +0.000 A 
ATOM     25  C   UNL     1       2.014   3.068  18.972  0.00  0.00    +0.000 A 
ATOM     26  F   UNL     1       1.963   3.400  17.675  0.00  0.00    +0.000 F 
ENDBRANCH  18  19
ENDBRANCH   4  18
BRANCH   7  27
ATOM     27  C   UNL     1       3.837   7.671  17.793  0.00  0.00    +0.000 C 
BRANCH  27  28
ATOM     28  C   UNL     1       2.289   7.768  17.695  0.00  0.00    +0.000 C 
BRANCH  28  29
ATOM     29  C   UNL     1       1.762   8.539  18.901  0.00  0.00    +0.000 A 
ATOM     30  C   UNL     1       1.334   9.868  18.741  0.00  0.00    +0.000 A 
ATOM     31  C   UNL     1       0.914  10.623  19.839  0.00  0.00    +0.000 A 
ATOM     32  C   UNL     1       0.914  10.063  21.114  0.00  0.00    +0.000 A 
ATOM     33  C   UNL     1       1.325   8.744  21.291  0.00  0.00    +0.000 A 
ATOM     34  C   UNL     1       1.748   7.989  20.195  0.00  0.00    +0.000 A 
ENDBRANCH  28  29
BRANCH  28  35
ATOM     35  N   UNL     1       1.623   6.461  17.569  0.00  0.00    +0.000 NA
ATOM     36  H   UNL     1       1.098   6.445  16.690  0.00  0.00    +0.000 HD
ATOM     37  H   UNL     1       0.893   6.388  18.274  0.00  0.00    +0.000 HD
ENDBRANCH  28  35
ENDBRANCH  27  28
ENDBRANCH   7  27
TORSDOF 8
ENDMDL
MODEL 2
REMARK VINA RESULT:      -7.9      0.878      1.267
REMARK  Name = 
REMARK  9 active torsions:
REMARK  status: ('A' for Active; 'I' for Inactive)
REMARK    1  A    between atoms: C_1  and  O_2
REMARK    2  A    between atoms: O_2  and  C_3
REMARK    3  A    between atoms: C_7  and  N_8
REMARK    4  A    between atoms: N_11  and  C_12
REMARK    5  A    between atoms: C_12  and  C_13
REMARK    6  A    between atoms: N_23  and  C_24
REMARK    7  A    between atoms: C_24  and  C_25
REMARK    8  A    between atoms: C_25  and  N_26
REMARK    9  A    between atoms: C_25  and  C_27
REMARK                            x       y       z     vdW  Elec       q    Type
REMARK                         _______ _______ _______ _____ _____    ______ ____
ROOT
ATOM      1  N   UNL     1       5.333   5.037  15.805  0.00  0.00    +0.000 N 
ATOM      2  C   UNL     1       5.021   3.996  16.673  0.00  0.00    +0.000 A 
ATOM      3  O   UNL     1       5.160   2.803  16.387  0.00  0.00    +0.000 OA
ATOM      4  N   UNL     1       4.590   4.370  17.933  0.00  0.00    +0.000 N 
ATOM      5  C   UNL     1       4.373   5.679  18.304  0.00  0.00    +0.000 A 
ATOM      6  O   UNL     1       4.170   6.014  19.470  0.00  0.00    +0.000 OA
ATOM      7  N   UNL     1       4.406   6.608  17.283  0.00  0.00    +0.000 N 
ATOM      8  C   UNL     1       5.002   6.361  16.059  0.00  0.00    +0.000 A 
ATOM      9  O   UNL     1       5.189   7.275  15.251  0.00  0.00    +0.000 OA
ENDROOT
BRANCH   1  14
ATOM     10  C   UNL     1       5.857   3.457  12.463  0.00  0.00    +0.000 A 
ATOM     11  C   UNL     1       7.130   3.934  12.148  0.00  0.00    +0.000 A 
ATOM     12  C   UNL     1       7.794   4.810  13.011  0.00  0.00    +0.000 A 
ATOM     13  C   UNL     1       7.184   5.215  14.199  0.00  0.00    +0.000 A 
ATOM     14  C   UNL     1       5.924   4.709  14.545  0.00  0.00    +0.000 A 
ATOM     15  C   UNL     1       5.265   3.837  13.666  0.00  0.00    +0.000 A 
BRANCH  10  17
ATOM     16  C   UNL     1       5.962   1.387  11.303  0.00  0.00    +0.000 C 
ATOM     17  O   UNL     1       5.297   2.626  11.529  0.00  0.00    +0.000 OA
ENDBRANCH  10  17
ENDBRANCH   1  14
BRANCH   4  18
ATOM     18  C   UNL     1       4.451   3.318  18.940  0.00  0.00    +0.000 C 
BRANCH  18  19
ATOM     19  C   UNL     1       3.036   2.953  19.325  0.00  0.00    +0.000 A 
ATOM     20  C   UNL     1       2.551   3.336  20.581  0.00  0.00    +0.000 A 
ATOM     21  F   UNL     1       3.369   3.940  21.456  0.00  0.00    +0.000 F 
ATOM     22  C   UNL     1       1.222   3.133  20.957  0.00  0.00    +0.000 A 
ATOM     23  C   UNL     1       0.334   2.545  20.062  0.00  0.00    +0.000 A 
ATOM     24  C   UNL     1       0.791   2.152  18.806  0.00  0.00    +0.000 A 
ATOM     25  C   UNL     1       2.126   2.357  18.450  0.00  0.00    +0.000 A 
ATOM     26  F   UNL     1       2.512   1.971  17.227  0.00  0.00    +0.000 F 
ENDBRANCH  18  19
ENDBRANCH   4  18
BRANCH   7  27
ATOM     27  C   UNL     1       3.858   7.944  17.552  0.00  0.00    +0.000 C 
BRANCH  27  28
ATOM     28  C   UNL     1       2.307   8.036  17.561  0.00  0.00    +0.000 C 
BRANCH  28  29
ATOM     29  C   UNL     1       1.887   9.268  18.358  0.00  0.00    +0.000 A 
ATOM     30  C   UNL     1       1.141   9.107  19.538  0.00  0.00    +0.000 A 
ATOM     31  C   UNL     1       0.680  10.217  20.251  0.00  0.00    +0.000 A 
ATOM     32  C   UNL     1       0.957  11.504  19.798  0.00  0.00    +0.000 A 
ATOM     33  C   UNL     1       1.704  11.683  18.636  0.00  0.00    +0.000 A 
ATOM     34  C   UNL     1       2.162  10.574  17.920  0.00  0.00    +0.000 A 
ENDBRANCH  28  29
BRANCH  28  35
ATOM     35  N   UNL     1       1.648   6.823  18.075  0.00  0.00    +0.000 NA
ATOM     36  H   UNL     1       2.272   6.025  17.925  0.00  0.00    +0.000 HD
ATOM     37  H   UNL     1       0.848   6.602  17.486  0.00  0.00    +0.000 HD
ENDBRANCH  28  35
ENDBRANCH  27  28
ENDBRANCH   7  27
TORSDOF 8
ENDMDL
MODEL 3
REMARK VINA RESULT:      -7.8      2.193      6.990
REMARK  Name = 
REMARK  9 active torsions:
REMARK  status: ('A' for Active; 'I' for Inactive)
REMARK    1  A    between atoms: C_1  and  O_2
REMARK    2  A    between atoms: O_2  and  C_3
REMARK    3  A    between atoms: C_7  and  N_8
REMARK    4  A    between atoms: N_11  and  C_12
REMARK    5  A    between atoms: C_12  and  C_13
REMARK    6  A    between atoms: N_23  and  C_24
REMARK    7  A    between atoms: C_24  and  C_25
REMARK    8  A    between atoms: C_25  and  N_26
REMARK    9  A    between atoms: C_25  and  C_27
REMARK                            x       y       z     vdW  Elec       q    Type
REMARK                         _______ _______ _______ _____ _____    ______ ____
ROOT
ATOM      1  N   UNL     1       4.158   6.688  17.728  0.00  0.00    +0.000 N 
ATOM      2  C   UNL     1       4.960   6.574  16.597  0.00  0.00    +0.000 A 
ATOM      3  O   UNL     1       4.772   7.216  15.559  0.00  0.00    +0.000 OA
ATOM      4  N   UNL     1       6.046   5.726  16.710  0.00  0.00    +0.000 N 
ATOM      5  C   UNL     1       6.290   4.948  17.822  0.00  0.00    +0.000 A 
ATOM      6  O   UNL     1       7.347   4.342  17.989  0.00  0.00    +0.000 OA
ATOM      7  N   UNL     1       5.273   4.895  18.754  0.00  0.00    +0.000 N 
ATOM      8  C   UNL     1       4.259   5.834  18.817  0.00  0.00    +0.000 A 
ATOM      9  O   UNL     1       3.488   5.868  19.781  0.00  0.00    +0.000 OA
ENDROOT
BRANCH   1  14
ATOM     10  C   UNL     1       2.406   9.982  17.891  0.00  0.00    +0.000 A 
ATOM     11  C   UNL     1       1.074   9.567  17.852  0.00  0.00    +0.000 A 
ATOM     12  C   UNL     1       0.754   8.214  17.726  0.00  0.00    +0.000 A 
ATOM     13  C   UNL     1       1.771   7.262  17.637  0.00  0.00    +0.000 A 
ATOM     14  C   UNL     1       3.111   7.662  17.716  0.00  0.00    +0.000 A 
ATOM     15  C   UNL     1       3.419   9.025  17.835  0.00  0.00    +0.000 A 
BRANCH  10  17
ATOM     16  C   UNL     1       1.591  12.065  18.685  0.00  0.00    +0.000 C 
ATOM     17  O   UNL     1       2.596  11.334  17.990  0.00  0.00    +0.000 OA
ENDBRANCH  10  17
ENDBRANCH   1  14
BRANCH   4  18
ATOM     18  C   UNL     1       7.027   5.734  15.625  0.00  0.00    +0.000 C 
BRANCH  18  19
ATOM     19  C   UNL     1       6.648   4.960  14.384  0.00  0.00    +0.000 A 
ATOM     20  C   UNL     1       7.486   5.016  13.263  0.00  0.00    +0.000 A 
ATOM     21  F   UNL     1       8.559   5.819  13.273  0.00  0.00    +0.000 F 
ATOM     22  C   UNL     1       7.257   4.238  12.127  0.00  0.00    +0.000 A 
ATOM     23  C   UNL     1       6.176   3.363  12.095  0.00  0.00    +0.000 A 
ATOM     24  C   UNL     1       5.325   3.289  13.196  0.00  0.00    +0.000 A 
ATOM     25  C   UNL     1       5.565   4.081  14.322  0.00  0.00    +0.000 A 
ATOM     26  F   UNL     1       4.724   3.964  15.358  0.00  0.00    +0.000 F 
ENDBRANCH  18  19
ENDBRANCH   4  18
BRANCH   7  27
ATOM     27  C   UNL     1       5.331   3.839  19.773  0.00  0.00    +0.000 C 
BRANCH  27  28
ATOM     28  C   UNL     1       4.651   2.498  19.381  0.00  0.00    +0.000 C 
BRANCH  28  29
ATOM     29  C   UNL     1       3.148   2.615  19.619  0.00  0.00    +0.000 A 
ATOM     30  C   UNL     1       2.273   2.638  18.520  0.00  0.00    +0.000 A 
ATOM     31  C   UNL     1       0.899   2.815  18.701  0.00  0.00    +0.000 A 
ATOM     32  C   UNL     1       0.377   2.973  19.983  0.00  0.00    +0.000 A 
ATOM     33  C   UNL     1       1.228   2.943  21.085  0.00  0.00    +0.000 A 
ATOM     34  C   UNL     1       2.603   2.769  20.905  0.00  0.00    +0.000 A 
ENDBRANCH  28  29
BRANCH  28  35
ATOM     35  N   UNL     1       5.209   1.328  20.081  0.00  0.00    +0.000 NA
ATOM     36  H   UNL     1       4.909   0.481  19.590  0.00  0.00    +0.000 HD
ATOM     37  H   UNL     1       4.761   1.238  20.990  0.00  0.00    +0.000 HD
ENDBRANCH  28  35
ENDBRANCH  27  28
ENDBRANCH   7  27
TORSDOF 8
ENDMDL
MODEL 4
REMARK VINA RESULT:      -7.6      9.350     11.887
REMARK  Name = 
REMARK  9 active torsions:
REMARK  status: ('A' for Active; 'I' for Inactive)
REMARK    1  A    between atoms: C_1  and  O_2
REMARK    2  A    between atoms: O_2  and  C_3
REMARK    3  A    between atoms: C_7  and  N_8
REMARK    4  A    between atoms: N_11  and  C_12
REMARK    5  A    between atoms: C_12  and  C_13
REMARK    6  A    between atoms: N_23  and  C_24
REMARK    7  A    between atoms: C_24  and  C_25
REMARK    8  A    between atoms: C_25  and  N_26
REMARK    9  A    between atoms: C_25  and  C_27
REMARK                            x       y       z     vdW  Elec       q    Type
REMARK                         _______ _______ _______ _____ _____    ______ ____
ROOT
ATOM      1  N   UNL     1       5.570  15.022  19.691  0.00  0.00    +0.000 N 
ATOM      2  C   UNL     1       6.568  14.927  18.727  0.00  0.00    +0.000 A 
ATOM      3  O   UNL     1       6.349  14.952  17.512  0.00  0.00    +0.000 OA
ATOM      4  N   UNL     1       7.864  14.858  19.204  0.00  0.00    +0.000 N 
ATOM      5  C   UNL     1       8.176  14.783  20.544  0.00  0.00    +0.000 A 
ATOM      6  O   UNL     1       9.324  14.909  20.966  0.00  0.00    +0.000 OA
ATOM      7  N   UNL     1       7.114  14.567  21.400  0.00  0.00    +0.000 N 
ATOM      8  C   UNL     1       5.799  14.807  21.043  0.00  0.00    +0.000 A 
ATOM      9  O   UNL     1       4.902  14.795  21.891  0.00  0.00    +0.000 OA
ENDROOT
BRANCH   1  14
ATOM     10  C   UNL     1       2.439  16.791  18.684  0.00  0.00    +0.000 A 
ATOM     11  C   UNL     1       1.566  15.711  18.544  0.00  0.00    +0.000 A 
ATOM     12  C   UNL     1       2.018  14.403  18.734  0.00  0.00    +0.000 A 
ATOM     13  C   UNL     1       3.353  14.167  19.067  0.00  0.00    +0.000 A 
ATOM     14  C   UNL     1       4.228  15.246  19.251  0.00  0.00    +0.000 A 
ATOM     15  C   UNL     1       3.763  16.553  19.050  0.00  0.00    +0.000 A 
BRANCH  10  17
ATOM     16  C   UNL     1       0.528  18.037  18.026  0.00  0.00    +0.000 C 
ATOM     17  O   UNL     1       1.888  18.022  18.449  0.00  0.00    +0.000 OA
ENDBRANCH  10  17
ENDBRANCH   1  14
BRANCH   4  18
ATOM     18  C   UNL     1       8.951  14.966  18.230  0.00  0.00    +0.000 C 
BRANCH  18  19
ATOM     19  C   UNL     1       9.862  13.766  18.121  0.00  0.00    +0.000 A 
ATOM     20  C   UNL     1      11.212  13.902  18.469  0.00  0.00    +0.000 A 
ATOM     21  F   UNL     1      11.695  15.106  18.807  0.00  0.00    +0.000 F 
ATOM     22  C   UNL     1      12.083  12.812  18.501  0.00  0.00    +0.000 A 
ATOM     23  C   UNL     1      11.609  11.540  18.195  0.00  0.00    +0.000 A 
ATOM     24  C   UNL     1      10.271  11.377  17.843  0.00  0.00    +0.000 A 
ATOM     25  C   UNL     1       9.415  12.481  17.809  0.00  0.00    +0.000 A 
ATOM     26  F   UNL     1       8.136  12.268  17.475  0.00  0.00    +0.000 F 
ENDBRANCH  18  19
ENDBRANCH   4  18
BRANCH   7  27
ATOM     27  C   UNL     1       7.414  14.146  22.774  0.00  0.00    +0.000 C 
BRANCH  27  28
ATOM     28  C   UNL     1       7.632  12.620  22.970  0.00  0.00    +0.000 C 
BRANCH  28  29
ATOM     29  C   UNL     1       7.113  12.217  24.347  0.00  0.00    +0.000 A 
ATOM     30  C   UNL     1       7.824  12.608  25.495  0.00  0.00    +0.000 A 
ATOM     31  C   UNL     1       7.415  12.195  26.766  0.00  0.00    +0.000 A 
ATOM     32  C   UNL     1       6.291  11.385  26.911  0.00  0.00    +0.000 A 
ATOM     33  C   UNL     1       5.569  10.996  25.785  0.00  0.00    +0.000 A 
ATOM     34  C   UNL     1       5.978  11.406  24.514  0.00  0.00    +0.000 A 
ENDBRANCH  28  29
BRANCH  28  35
ATOM     35  N   UNL     1       9.030  12.196  22.786  0.00  0.00    +0.000 NA
ATOM     36  H   UNL     1       9.479  12.833  22.121  0.00  0.00    +0.000 HD
ATOM     37  H   UNL     1       9.047  11.304  22.296  0.00  0.00    +0.000 HD
ENDBRANCH  28  35
ENDBRANCH  27  28
ENDBRANCH   7  27
TORSDOF 8
ENDMDL
MODEL 5
REMARK VINA RESULT:      -7.5      6.054     11.068
REMARK  Name = 
REMARK  9 active torsions:
REMARK  status: ('A' for Active; 'I' for Inactive)
REMARK    1  A    between atoms: C_1  and  O_2
REMARK    2  A    between atoms: O_2  and  C_3
REMARK    3  A    between atoms: C_7  and  N_8
REMARK    4  A    between atoms: N_11  and  C_12
REMARK    5  A    between atoms: C_12  and  C_13
REMARK    6  A    between atoms: N_23  and  C_24
REMARK    7  A    between atoms: C_24  and  C_25
REMARK    8  A    between atoms: C_25  and  N_26
REMARK    9  A    between atoms: C_25  and  C_27
REMARK                            x       y       z     vdW  Elec       q    Type
REMARK                         _______ _______ _______ _____ _____    ______ ____
ROOT
ATOM      1  N   UNL     1      -1.572  11.861  19.144  0.00  0.00    +0.000 N 
ATOM      2  C   UNL     1      -0.913  13.071  19.343  0.00  0.00    +0.000 A 
ATOM      3  O   UNL     1      -1.406  14.170  19.070  0.00  0.00    +0.000 OA
ATOM      4  N   UNL     1       0.334  12.988  19.934  0.00  0.00    +0.000 N 
ATOM      5  C   UNL     1       0.959  11.795  20.225  0.00  0.00    +0.000 A 
ATOM      6  O   UNL     1       1.977  11.729  20.912  0.00  0.00    +0.000 OA
ATOM      7  N   UNL     1       0.367  10.662  19.705  0.00  0.00    +0.000 N 
ATOM      8  C   UNL     1      -0.948  10.629  19.277  0.00  0.00    +0.000 A 
ATOM      9  O   UNL     1      -1.499   9.557  19.008  0.00  0.00    +0.000 OA
ENDROOT
BRANCH   1  14
ATOM     10  C   UNL     1      -5.289  12.217  19.131  0.00  0.00    +0.000 A 
ATOM     11  C   UNL     1      -5.581  11.827  17.822  0.00  0.00    +0.000 A 
ATOM     12  C   UNL     1      -4.555  11.494  16.935  0.00  0.00    +0.000 A 
ATOM     13  C   UNL     1      -3.225  11.550  17.353  0.00  0.00    +0.000 A 
ATOM     14  C   UNL     1      -2.922  11.899  18.676  0.00  0.00    +0.000 A 
ATOM     15  C   UNL     1      -3.961  12.238  19.554  0.00  0.00    +0.000 A 
BRANCH  10  17
ATOM     16  C   UNL     1      -7.374  11.540  20.043  0.00  0.00    +0.000 C 
ATOM     17  O   UNL     1      -6.374  12.544  19.899  0.00  0.00    +0.000 OA
ENDBRANCH  10  17
ENDBRANCH   1  14
BRANCH   4  18
ATOM     18  C   UNL     1       0.970  14.239  20.350  0.00  0.00    +0.000 C 
BRANCH  18  19
ATOM     19  C   UNL     1       1.634  15.039  19.255  0.00  0.00    +0.000 A 
ATOM     20  C   UNL     1       1.206  16.350  19.012  0.00  0.00    +0.000 A 
ATOM     21  F   UNL     1       0.160  16.845  19.690  0.00  0.00    +0.000 F 
ATOM     22  C   UNL     1       1.849  17.184  18.096  0.00  0.00    +0.000 A 
ATOM     23  C   UNL     1       2.962  16.719  17.402  0.00  0.00    +0.000 A 
ATOM     24  C   UNL     1       3.408  15.418  17.622  0.00  0.00    +0.000 A 
ATOM     25  C   UNL     1       2.747  14.595  18.538  0.00  0.00    +0.000 A 
ATOM     26  F   UNL     1       3.223  13.356  18.721  0.00  0.00    +0.000 F 
ENDBRANCH  18  19
ENDBRANCH   4  18
BRANCH   7  27
ATOM     27  C   UNL     1       1.152   9.421  19.691  0.00  0.00    +0.000 C 
BRANCH  27  28
ATOM     28  C   UNL     1       1.532   8.889  18.281  0.00  0.00    +0.000 C 
BRANCH  28  29
ATOM     29  C   UNL     1       2.464   7.692  18.435  0.00  0.00    +0.000 A 
ATOM     30  C   UNL     1       2.311   6.834  19.538  0.00  0.00    +0.000 A 
ATOM     31  C   UNL     1       3.193   5.770  19.746  0.00  0.00    +0.000 A 
ATOM     32  C   UNL     1       4.242   5.547  18.857  0.00  0.00    +0.000 A 
ATOM     33  C   UNL     1       4.403   6.381  17.753  0.00  0.00    +0.000 A 
ATOM     34  C   UNL     1       3.523   7.446  17.546  0.00  0.00    +0.000 A 
ENDBRANCH  28  29
BRANCH  28  35
ATOM     35  N   UNL     1       2.127   9.914  17.406  0.00  0.00    +0.000 NA
ATOM     36  H   UNL     1       3.106   9.668  17.235  0.00  0.00    +0.000 HD
ATOM     37  H   UNL     1       2.197  10.791  17.918  0.00  0.00    +0.000 HD
ENDBRANCH  28  35
ENDBRANCH  27  28
ENDBRANCH   7  27
TORSDOF 8
ENDMDL
MODEL 6
REMARK VINA RESULT:      -7.5      5.942     10.680
REMARK  Name = 
REMARK  9 active torsions:
REMARK  status: ('A' for Active; 'I' for Inactive)
REMARK    1  A    between atoms: C_1  and  O_2
REMARK    2  A    between atoms: O_2  and  C_3
REMARK    3  A    between atoms: C_7  and  N_8
REMARK    4  A    between atoms: N_11  and  C_12
REMARK    5  A    between atoms: C_12  and  C_13
REMARK    6  A    between atoms: N_23  and  C_24
REMARK    7  A    between atoms: C_24  and  C_25
REMARK    8  A    between atoms: C_25  and  N_26
REMARK    9  A    between atoms: C_25  and  C_27
REMARK                            x       y       z     vdW  Elec       q    Type
REMARK                         _______ _______ _______ _____ _____    ______ ____
ROOT
ATOM      1  N   UNL     1      -1.454  12.160  20.763  0.00  0.00    +0.000 N 
ATOM      2  C   UNL     1      -0.124  11.757  20.701  0.00  0.00    +0.000 A 
ATOM      3  O   UNL     1       0.693  11.957  21.606  0.00  0.00    +0.000 OA
ATOM      4  N   UNL     1       0.240  11.049  19.571  0.00  0.00    +0.000 N 
ATOM      5  C   UNL     1      -0.607  10.828  18.507  0.00  0.00    +0.000 A 
ATOM      6  O   UNL     1      -0.339  10.047  17.596  0.00  0.00    +0.000 OA
ATOM      7  N   UNL     1      -1.794  11.533  18.526  0.00  0.00    +0.000 N 
ATOM      8  C   UNL     1      -2.314  12.101  19.675  0.00  0.00    +0.000 A 
ATOM      9  O   UNL     1      -3.466  12.545  19.696  0.00  0.00    +0.000 OA
ENDROOT
BRANCH   1  14
ATOM     10  C   UNL     1      -3.407  12.724  23.896  0.00  0.00    +0.000 A 
ATOM     11  C   UNL     1      -2.956  13.995  24.255  0.00  0.00    +0.000 A 
ATOM     12  C   UNL     1      -1.980  14.644  23.495  0.00  0.00    +0.000 A 
ATOM     13  C   UNL     1      -1.446  14.021  22.366  0.00  0.00    +0.000 A 
ATOM     14  C   UNL     1      -1.920  12.763  21.972  0.00  0.00    +0.000 A 
ATOM     15  C   UNL     1      -2.895  12.119  22.748  0.00  0.00    +0.000 A 
BRANCH  10  17
ATOM     16  C   UNL     1      -5.706  12.470  24.430  0.00  0.00    +0.000 C 
ATOM     17  O   UNL     1      -4.345  12.178  24.730  0.00  0.00    +0.000 OA
ENDBRANCH  10  17
ENDBRANCH   1  14
BRANCH   4  18
ATOM     18  C   UNL     1       1.566  10.429  19.558  0.00  0.00    +0.000 C 
BRANCH  18  19
ATOM     19  C   UNL     1       1.595   8.925  19.691  0.00  0.00    +0.000 A 
ATOM     20  C   UNL     1       2.138   8.159  18.652  0.00  0.00    +0.000 A 
ATOM     21  F   UNL     1       2.542   8.760  17.523  0.00  0.00    +0.000 F 
ATOM     22  C   UNL     1       2.300   6.777  18.755  0.00  0.00    +0.000 A 
ATOM     23  C   UNL     1       1.930   6.124  19.927  0.00  0.00    +0.000 A 
ATOM     24  C   UNL     1       1.384   6.861  20.976  0.00  0.00    +0.000 A 
ATOM     25  C   UNL     1       1.223   8.244  20.851  0.00  0.00    +0.000 A 
ATOM     26  F   UNL     1       0.703   8.907  21.892  0.00  0.00    +0.000 F 
ENDBRANCH  18  19
ENDBRANCH   4  18
BRANCH   7  27
ATOM     27  C   UNL     1      -2.572  11.601  17.282  0.00  0.00    +0.000 C 
BRANCH  27  28
ATOM     28  C   UNL     1      -3.671  10.513  17.125  0.00  0.00    +0.000 C 
BRANCH  28  29
ATOM     29  C   UNL     1      -5.023  11.115  17.496  0.00  0.00    +0.000 A 
ATOM     30  C   UNL     1      -5.444  12.304  16.876  0.00  0.00    +0.000 A 
ATOM     31  C   UNL     1      -6.644  12.918  17.245  0.00  0.00    +0.000 A 
ATOM     32  C   UNL     1      -7.441  12.356  18.239  0.00  0.00    +0.000 A 
ATOM     33  C   UNL     1      -7.044  11.173  18.857  0.00  0.00    +0.000 A 
ATOM     34  C   UNL     1      -5.844  10.559  18.491  0.00  0.00    +0.000 A 
ENDBRANCH  28  29
BRANCH  28  35
ATOM     35  N   UNL     1      -3.405   9.291  17.902  0.00  0.00    +0.000 NA
ATOM     36  H   UNL     1      -2.998   8.589  17.277  0.00  0.00    +0.000 HD
ATOM     37  H   UNL     1      -4.289   8.869  18.176  0.00  0.00    +0.000 HD
ENDBRANCH  28  35
ENDBRANCH  27  28
ENDBRANCH   7  27
TORSDOF 8
ENDMDL
MODEL 7
REMARK VINA RESULT:      -7.5      3.018      7.700
REMARK  Name = 
REMARK  9 active torsions:
REMARK  status: ('A' for Active; 'I' for Inactive)
REMARK    1  A    between atoms: C_1  and  O_2
REMARK    2  A    between atoms: O_2  and  C_3
REMARK    3  A    between atoms: C_7  and  N_8
REMARK    4  A    between atoms: N_11  and  C_12
REMARK    5  A    between atoms: C_12  and  C_13
REMARK    6  A    between atoms: N_23  and  C_24
REMARK    7  A    between atoms: C_24  and  C_25
REMARK    8  A    between atoms: C_25  and  N_26
REMARK    9  A    between atoms: C_25  and  C_27
REMARK                            x       y       z     vdW  Elec       q    Type
REMARK                         _______ _______ _______ _____ _____    ______ ____
ROOT
ATOM      1  N   UNL     1       1.551   8.526  19.417  0.00  0.00    +0.000 N 
ATOM      2  C   UNL     1       2.197   8.358  18.196  0.00  0.00    +0.000 A 
ATOM      3  O   UNL     1       2.013   9.092  17.220  0.00  0.00    +0.000 OA
ATOM      4  N   UNL     1       3.126   7.335  18.140  0.00  0.00    +0.000 N 
ATOM      5  C   UNL     1       3.348   6.454  19.175  0.00  0.00    +0.000 A 
ATOM      6  O   UNL     1       4.296   5.670  19.188  0.00  0.00    +0.000 OA
ATOM      7  N   UNL     1       2.443   6.506  20.216  0.00  0.00    +0.000 N 
ATOM      8  C   UNL     1       1.619   7.594  20.443  0.00  0.00    +0.000 A 
ATOM      9  O   UNL     1       0.973   7.689  21.491  0.00  0.00    +0.000 OA
ENDROOT
BRANCH   1  14
ATOM     10  C   UNL     1      -1.353  10.834  18.995  0.00  0.00    +0.000 A 
ATOM     11  C   UNL     1      -0.926  11.927  19.750  0.00  0.00    +0.000 A 
ATOM     12  C   UNL     1       0.292  11.886  20.433  0.00  0.00    +0.000 A 
ATOM     13  C   UNL     1       1.092  10.745  20.364  0.00  0.00    +0.000 A 
ATOM     14  C   UNL     1       0.694   9.658  19.576  0.00  0.00    +0.000 A 
ATOM     15  C   UNL     1      -0.535   9.709  18.902  0.00  0.00    +0.000 A 
BRANCH  10  17
ATOM     16  C   UNL     1      -3.036   9.877  17.620  0.00  0.00    +0.000 C 
ATOM     17  O   UNL     1      -2.574  10.981  18.392  0.00  0.00    +0.000 OA
ENDBRANCH  10  17
ENDBRANCH   1  14
BRANCH   4  18
ATOM     18  C   UNL     1       3.972   7.255  16.949  0.00  0.00    +0.000 C 
BRANCH  18  19
ATOM     19  C   UNL     1       5.169   6.339  17.049  0.00  0.00    +0.000 A 
ATOM     20  C   UNL     1       5.035   4.997  16.671  0.00  0.00    +0.000 A 
ATOM     21  F   UNL     1       3.833   4.524  16.311  0.00  0.00    +0.000 F 
ATOM     22  C   UNL     1       6.124   4.125  16.629  0.00  0.00    +0.000 A 
ATOM     23  C   UNL     1       7.394   4.591  16.957  0.00  0.00    +0.000 A 
ATOM     24  C   UNL     1       7.556   5.921  17.339  0.00  0.00    +0.000 A 
ATOM     25  C   UNL     1       6.452   6.777  17.382  0.00  0.00    +0.000 A 
ATOM     26  F   UNL     1       6.664   8.049  17.745  0.00  0.00    +0.000 F 
ENDBRANCH  18  19
ENDBRANCH   4  18
BRANCH   7  27
ATOM     27  C   UNL     1       2.426   5.388  21.168  0.00  0.00    +0.000 C 
BRANCH  27  28
ATOM     28  C   UNL     1       1.464   4.221  20.805  0.00  0.00    +0.000 C 
BRANCH  28  29
ATOM     29  C   UNL     1       2.178   3.267  19.853  0.00  0.00    +0.000 A 
ATOM     30  C   UNL     1       3.395   2.683  20.242  0.00  0.00    +0.000 A 
ATOM     31  C   UNL     1       4.109   1.861  19.365  0.00  0.00    +0.000 A 
ATOM     32  C   UNL     1       3.618   1.610  18.086  0.00  0.00    +0.000 A 
ATOM     33  C   UNL     1       2.408   2.173  17.686  0.00  0.00    +0.000 A 
ATOM     34  C   UNL     1       1.695   2.996  18.561  0.00  0.00    +0.000 A 
ENDBRANCH  28  29
BRANCH  28  35
ATOM     35  N   UNL     1       0.180   4.670  20.242  0.00  0.00    +0.000 NA
ATOM     36  H   UNL     1       0.091   5.679  20.397  0.00  0.00    +0.000 HD
ATOM     37  H   UNL     1      -0.581   4.285  20.795  0.00  0.00    +0.000 HD
ENDBRANCH  28  35
ENDBRANCH  27  28
ENDBRANCH   7  27
TORSDOF 8
ENDMDL
MODEL 8
REMARK VINA RESULT:      -7.5      2.183      6.966
REMARK  Name = 
REMARK  9 active torsions:
REMARK  status: ('A' for Active; 'I' for Inactive)
REMARK    1  A    between atoms: C_1  and  O_2
REMARK    2  A    between atoms: O_2  and  C_3
REMARK    3  A    between atoms: C_7  and  N_8
REMARK    4  A    between atoms: N_11  and  C_12
REMARK    5  A    between atoms: C_12  and  C_13
REMARK    6  A    between atoms: N_23  and  C_24
REMARK    7  A    between atoms: C_24  and  C_25
REMARK    8  A    between atoms: C_25  and  N_26
REMARK    9  A    between atoms: C_25  and  C_27
REMARK                            x       y       z     vdW  Elec       q    Type
REMARK                         _______ _______ _______ _____ _____    ______ ____
ROOT
ATOM      1  N   UNL     1       4.144   6.697  17.733  0.00  0.00    +0.000 N 
ATOM      2  C   UNL     1       4.969   6.605  16.617  0.00  0.00    +0.000 A 
ATOM      3  O   UNL     1       4.793   7.255  15.582  0.00  0.00    +0.000 OA
ATOM      4  N   UNL     1       6.063   5.768  16.742  0.00  0.00    +0.000 N 
ATOM      5  C   UNL     1       6.295   4.983  17.850  0.00  0.00    +0.000 A 
ATOM      6  O   UNL     1       7.356   4.388  18.032  0.00  0.00    +0.000 OA
ATOM      7  N   UNL     1       5.261   4.907  18.763  0.00  0.00    +0.000 N 
ATOM      8  C   UNL     1       4.235   5.833  18.816  0.00  0.00    +0.000 A 
ATOM      9  O   UNL     1       3.445   5.849  19.765  0.00  0.00    +0.000 OA
ENDROOT
BRANCH   1  14
ATOM     10  C   UNL     1       2.351   9.969  17.882  0.00  0.00    +0.000 A 
ATOM     11  C   UNL     1       1.025   9.539  17.827  0.00  0.00    +0.000 A 
ATOM     12  C   UNL     1       0.723   8.182  17.694  0.00  0.00    +0.000 A 
ATOM     13  C   UNL     1       1.752   7.243  17.615  0.00  0.00    +0.000 A 
ATOM     14  C   UNL     1       3.086   7.658  17.711  0.00  0.00    +0.000 A 
ATOM     15  C   UNL     1       3.376   9.025  17.836  0.00  0.00    +0.000 A 
BRANCH  10  17
ATOM     16  C   UNL     1       1.720  11.992  18.953  0.00  0.00    +0.000 C 
ATOM     17  O   UNL     1       2.523  11.323  17.986  0.00  0.00    +0.000 OA
ENDBRANCH  10  17
ENDBRANCH   1  14
BRANCH   4  18
ATOM     18  C   UNL     1       7.065   5.799  15.676  0.00  0.00    +0.000 C 
BRANCH  18  19
ATOM     19  C   UNL     1       6.780   4.929  14.475  0.00  0.00    +0.000 A 
ATOM     20  C   UNL     1       5.640   4.115  14.477  0.00  0.00    +0.000 A 
ATOM     21  F   UNL     1       4.869   4.053  15.572  0.00  0.00    +0.000 F 
ATOM     22  C   UNL     1       5.255   3.374  13.359  0.00  0.00    +0.000 A 
ATOM     23  C   UNL     1       6.009   3.444  12.191  0.00  0.00    +0.000 A 
ATOM     24  C   UNL     1       7.149   4.244  12.162  0.00  0.00    +0.000 A 
ATOM     25  C   UNL     1       7.523   4.974  13.294  0.00  0.00    +0.000 A 
ATOM     26  F   UNL     1       8.622   5.736  13.210  0.00  0.00    +0.000 F 
ENDBRANCH  18  19
ENDBRANCH   4  18
BRANCH   7  27
ATOM     27  C   UNL     1       5.313   3.842  19.772  0.00  0.00    +0.000 C 
BRANCH  27  28
ATOM     28  C   UNL     1       4.638   2.503  19.361  0.00  0.00    +0.000 C 
BRANCH  28  29
ATOM     29  C   UNL     1       3.135   2.610  19.598  0.00  0.00    +0.000 A 
ATOM     30  C   UNL     1       2.262   2.649  18.498  0.00  0.00    +0.000 A 
ATOM     31  C   UNL     1       0.887   2.819  18.680  0.00  0.00    +0.000 A 
ATOM     32  C   UNL     1       0.362   2.953  19.963  0.00  0.00    +0.000 A 
ATOM     33  C   UNL     1       1.211   2.908  21.066  0.00  0.00    +0.000 A 
ATOM     34  C   UNL     1       2.587   2.741  20.885  0.00  0.00    +0.000 A 
ENDBRANCH  28  29
BRANCH  28  35
ATOM     35  N   UNL     1       5.200   1.327  20.046  0.00  0.00    +0.000 NA
ATOM     36  H   UNL     1       6.075   1.601  20.501  0.00  0.00    +0.000 HD
ATOM     37  H   UNL     1       5.506   0.649  19.351  0.00  0.00    +0.000 HD
ENDBRANCH  28  35
ENDBRANCH  27  28
ENDBRANCH   7  27
TORSDOF 8
ENDMDL
MODEL 9
REMARK VINA RESULT:      -7.4      5.964     10.373
REMARK  Name = 
REMARK  9 active torsions:
REMARK  status: ('A' for Active; 'I' for Inactive)
REMARK    1  A    between atoms: C_1  and  O_2
REMARK    2  A    between atoms: O_2  and  C_3
REMARK    3  A    between atoms: C_7  and  N_8
REMARK    4  A    between atoms: N_11  and  C_12
REMARK    5  A    between atoms: C_12  and  C_13
REMARK    6  A    between atoms: N_23  and  C_24
REMARK    7  A    between atoms: C_24  and  C_25
REMARK    8  A    between atoms: C_25  and  N_26
REMARK    9  A    between atoms: C_25  and  C_27
REMARK                            x       y       z     vdW  Elec       q    Type
REMARK                         _______ _______ _______ _____ _____    ______ ____
ROOT
ATOM      1  N   UNL     1      -1.519  11.324  18.989  0.00  0.00    +0.000 N 
ATOM      2  C   UNL     1      -1.403  12.378  19.890  0.00  0.00    +0.000 A 
ATOM      3  O   UNL     1      -2.116  13.385  19.859  0.00  0.00    +0.000 OA
ATOM      4  N   UNL     1      -0.461  12.216  20.889  0.00  0.00    +0.000 N 
ATOM      5  C   UNL     1       0.396  11.139  20.958  0.00  0.00    +0.000 A 
ATOM      6  O   UNL     1       1.097  10.910  21.942  0.00  0.00    +0.000 OA
ATOM      7  N   UNL     1       0.417  10.314  19.851  0.00  0.00    +0.000 N 
ATOM      8  C   UNL     1      -0.599  10.288  18.912  0.00  0.00    +0.000 A 
ATOM      9  O   UNL     1      -0.644   9.402  18.053  0.00  0.00    +0.000 OA
ENDROOT
BRANCH   1  14
ATOM     10  C   UNL     1      -4.956  11.446  17.533  0.00  0.00    +0.000 A 
ATOM     11  C   UNL     1      -4.665  11.314  16.174  0.00  0.00    +0.000 A 
ATOM     12  C   UNL     1      -3.341  11.232  15.736  0.00  0.00    +0.000 A 
ATOM     13  C   UNL     1      -2.296  11.283  16.659  0.00  0.00    +0.000 A 
ATOM     14  C   UNL     1      -2.577  11.373  18.028  0.00  0.00    +0.000 A 
ATOM     15  C   UNL     1      -3.909  11.462  18.454  0.00  0.00    +0.000 A 
BRANCH  10  17
ATOM     16  C   UNL     1      -6.967  12.694  17.351  0.00  0.00    +0.000 C 
ATOM     17  O   UNL     1      -6.286  11.542  17.839  0.00  0.00    +0.000 OA
ENDBRANCH  10  17
ENDBRANCH   1  14
BRANCH   4  18
ATOM     18  C   UNL     1      -0.448  13.199  21.973  0.00  0.00    +0.000 C 
BRANCH  18  19
ATOM     19  C   UNL     1      -1.710  13.291  22.798  0.00  0.00    +0.000 A 
ATOM     20  C   UNL     1      -2.359  14.526  22.917  0.00  0.00    +0.000 A 
ATOM     21  F   UNL     1      -1.810  15.622  22.373  0.00  0.00    +0.000 F 
ATOM     22  C   UNL     1      -3.587  14.660  23.567  0.00  0.00    +0.000 A 
ATOM     23  C   UNL     1      -4.207  13.538  24.109  0.00  0.00    +0.000 A 
ATOM     24  C   UNL     1      -3.582  12.297  24.008  0.00  0.00    +0.000 A 
ATOM     25  C   UNL     1      -2.349  12.184  23.359  0.00  0.00    +0.000 A 
ATOM     26  F   UNL     1      -1.795  10.966  23.280  0.00  0.00    +0.000 F 
ENDBRANCH  18  19
ENDBRANCH   4  18
BRANCH   7  27
ATOM     27  C   UNL     1       1.530   9.365  19.723  0.00  0.00    +0.000 C 
BRANCH  27  28
ATOM     28  C   UNL     1       1.524   8.192  20.744  0.00  0.00    +0.000 C 
BRANCH  28  29
ATOM     29  C   UNL     1       1.935   6.909  20.029  0.00  0.00    +0.000 A 
ATOM     30  C   UNL     1       2.496   6.983  18.742  0.00  0.00    +0.000 A 
ATOM     31  C   UNL     1       2.817   5.823  18.032  0.00  0.00    +0.000 A 
ATOM     32  C   UNL     1       2.581   4.571  18.595  0.00  0.00    +0.000 A 
ATOM     33  C   UNL     1       2.034   4.478  19.873  0.00  0.00    +0.000 A 
ATOM     34  C   UNL     1       1.711   5.637  20.582  0.00  0.00    +0.000 A 
ENDBRANCH  28  29
BRANCH  28  35
ATOM     35  N   UNL     1       0.237   8.022  21.438  0.00  0.00    +0.000 NA
ATOM     36  H   UNL     1      -0.327   8.864  21.290  0.00  0.00    +0.000 HD
ATOM     37  H   UNL     1       0.395   8.027  22.443  0.00  0.00    +0.000 HD
ENDBRANCH  28  35
ENDBRANCH  27  28
ENDBRANCH   7  27
TORSDOF 8
ENDMDL
