MODEL 1
REMARK VINA RESULT:      -7.9      0.000      0.000
REMARK  Name = 
REMARK  6 active torsions:
REMARK  status: ('A' for Active; 'I' for Inactive)
REMARK    1  A    between atoms: C_1  and  O_2
REMARK    2  A    between atoms: O_2  and  C_3
REMARK    3  A    between atoms: C_3  and  C_4
REMARK    4  A    between atoms: C_6  and  C_7
REMARK    5  A    between atoms: C_11  and  C_13
REMARK    6  A    between atoms: C_13  and  C_14
REMARK                            x       y       z     vdW  Elec       q    Type
REMARK                         _______ _______ _______ _____ _____    ______ ____
ROOT
ATOM      1  C   UNL     1       6.206   4.354  17.022  0.00  0.00    +0.000 C 
ATOM      2  C   UNL     1       6.444   5.627  17.845  0.00  0.00    +0.000 C 
ATOM      3  C   UNL     1       5.436   5.516  18.977  0.00  0.00    +0.000 C 
ATOM      4  N   UNL     1       4.297   4.871  18.353  0.00  0.00    +0.000 N 
ATOM      5  C   UNL     1       2.961   5.000  18.666  0.00  0.00    +0.000 C 
ATOM      6  O   UNL     1       2.094   4.400  18.025  0.00  0.00    +0.000 OA
ATOM      7  C   UNL     1       4.716   4.059  17.219  0.00  0.00    +0.000 C 
ENDROOT
BRANCH   1  10
ATOM      8  C   UNL     1       6.707   4.145  13.534  0.00  0.00    +0.000 A 
ATOM      9  N   UNL     1       6.138   3.649  14.614  0.00  0.00    +0.000 NA
ATOM     10  C   UNL     1       6.577   4.509  15.591  0.00  0.00    +0.000 A 
ATOM     11  N   UNL     1       7.347   5.514  15.155  0.00  0.00    +0.000 NA
ATOM     12  O   UNL     1       7.438   5.273  13.783  0.00  0.00    +0.000 OA
BRANCH   8  13
ATOM     13  C   UNL     1       6.632   3.699  12.122  0.00  0.00    +0.000 C 
BRANCH  13  15
ATOM     14  C   UNL     1       4.400   3.249  11.502  0.00  0.00    +0.000 C 
ATOM     15  O   UNL     1       5.605   2.709  12.027  0.00  0.00    +0.000 OA
ENDBRANCH  13  15
ENDBRANCH   8  13
ENDBRANCH   1  10
BRANCH   5  16
ATOM     16  C   UNL     1       2.576   5.908  19.820  0.00  0.00    +0.000 C 
BRANCH  16  17
ATOM     17  C   UNL     1       2.124   7.311  19.458  0.00  0.00    +0.000 A 
ATOM     18  C   UNL     1       2.290   7.879  18.189  0.00  0.00    +0.000 A 
ATOM     19  C   UNL     1       1.832   9.175  17.922  0.00  0.00    +0.000 A 
ATOM     20  C   UNL     1       1.202   9.915  18.921  0.00  0.00    +0.000 A 
ATOM     21  C   UNL     1       1.024   9.366  20.185  0.00  0.00    +0.000 A 
ATOM     22  C   UNL     1       1.482   8.071  20.450  0.00  0.00    +0.000 A 
ENDBRANCH  16  17
ENDBRANCH   5  16
TORSDOF 5
ENDMDL
MODEL 2
REMARK VINA RESULT:      -7.8      0.442      1.117
REMARK  Name = 
REMARK  6 active torsions:
REMARK  status: ('A' for Active; 'I' for Inactive)
REMARK    1  A    between atoms: C_1  and  O_2
REMARK    2  A    between atoms: O_2  and  C_3
REMARK    3  A    between atoms: C_3  and  C_4
REMARK    4  A    between atoms: C_6  and  C_7
REMARK    5  A    between atoms: C_11  and  C_13
REMARK    6  A    between atoms: C_13  and  C_14
REMARK                            x       y       z     vdW  Elec       q    Type
REMARK                         _______ _______ _______ _____ _____    ______ ____
ROOT
ATOM      1  C   UNL     1       6.179   4.349  17.148  0.00  0.00    +0.000 C 
ATOM      2  C   UNL     1       6.486   5.549  18.052  0.00  0.00    +0.000 C 
ATOM      3  C   UNL     1       5.415   5.471  19.129  0.00  0.00    +0.000 C 
ATOM      4  N   UNL     1       4.257   4.967  18.416  0.00  0.00    +0.000 N 
ATOM      5  C   UNL     1       2.923   5.201  18.674  0.00  0.00    +0.000 C 
ATOM      6  O   UNL     1       2.041   4.717  17.960  0.00  0.00    +0.000 OA
ATOM      7  C   UNL     1       4.660   4.181  17.258  0.00  0.00    +0.000 C 
ENDROOT
BRANCH   1  10
ATOM      8  C   UNL     1       6.839   4.279  13.681  0.00  0.00    +0.000 A 
ATOM      9  N   UNL     1       6.175   3.780  14.703  0.00  0.00    +0.000 NA
ATOM     10  C   UNL     1       6.635   4.544  15.747  0.00  0.00    +0.000 A 
ATOM     11  N   UNL     1       7.510   5.499  15.406  0.00  0.00    +0.000 NA
ATOM     12  O   UNL     1       7.651   5.323  14.028  0.00  0.00    +0.000 OA
BRANCH   8  13
ATOM     13  C   UNL     1       6.799   3.916  12.244  0.00  0.00    +0.000 C 
BRANCH  13  15
ATOM     14  C   UNL     1       5.599   2.026  11.498  0.00  0.00    +0.000 C 
ATOM     15  O   UNL     1       5.510   3.365  11.965  0.00  0.00    +0.000 OA
ENDBRANCH  13  15
ENDBRANCH   8  13
ENDBRANCH   1  10
BRANCH   5  16
ATOM     16  C   UNL     1       2.562   6.077  19.859  0.00  0.00    +0.000 C 
BRANCH  16  17
ATOM     17  C   UNL     1       2.055   7.472  19.542  0.00  0.00    +0.000 A 
ATOM     18  C   UNL     1       1.344   8.267  20.449  0.00  0.00    +0.000 A 
ATOM     19  C   UNL     1       0.921   9.553  20.091  0.00  0.00    +0.000 A 
ATOM     20  C   UNL     1       1.206  10.057  18.824  0.00  0.00    +0.000 A 
ATOM     21  C   UNL     1       1.915   9.285  17.912  0.00  0.00    +0.000 A 
ATOM     22  C   UNL     1       2.337   8.000  18.271  0.00  0.00    +0.000 A 
ENDBRANCH  16  17
ENDBRANCH   5  16
TORSDOF 5
ENDMDL
MODEL 3
REMARK VINA RESULT:      -7.4      2.559      3.451
REMARK  Name = 
REMARK  6 active torsions:
REMARK  status: ('A' for Active; 'I' for Inactive)
REMARK    1  A    between atoms: C_1  and  O_2
REMARK    2  A    between atoms: O_2  and  C_3
REMARK    3  A    between atoms: C_3  and  C_4
REMARK    4  A    between atoms: C_6  and  C_7
REMARK    5  A    between atoms: C_11  and  C_13
REMARK    6  A    between atoms: C_13  and  C_14
REMARK                            x       y       z     vdW  Elec       q    Type
REMARK                         _______ _______ _______ _____ _____    ______ ____
ROOT
ATOM      1  C   UNL     1       6.513   5.861  15.693  0.00  0.00    +0.000 C 
ATOM      2  C   UNL     1       5.159   6.569  15.825  0.00  0.00    +0.000 C 
ATOM      3  C   UNL     1       4.946   6.662  17.327  0.00  0.00    +0.000 C 
ATOM      4  N   UNL     1       5.540   5.438  17.829  0.00  0.00    +0.000 N 
ATOM      5  C   UNL     1       5.192   4.712  18.947  0.00  0.00    +0.000 C 
ATOM      6  O   UNL     1       5.779   3.667  19.239  0.00  0.00    +0.000 OA
ATOM      7  C   UNL     1       6.581   4.958  16.929  0.00  0.00    +0.000 C 
ENDROOT
BRANCH   1  10
ATOM      8  C   UNL     1       6.245   3.772  12.861  0.00  0.00    +0.000 A 
ATOM      9  N   UNL     1       5.719   4.195  13.992  0.00  0.00    +0.000 NA
ATOM     10  C   UNL     1       6.654   5.105  14.422  0.00  0.00    +0.000 A 
ATOM     11  N   UNL     1       7.692   5.281  13.595  0.00  0.00    +0.000 NA
ATOM     12  O   UNL     1       7.425   4.391  12.554  0.00  0.00    +0.000 OA
BRANCH   8  13
ATOM     13  C   UNL     1       5.735   2.787  11.877  0.00  0.00    +0.000 C 
BRANCH  13  15
ATOM     14  C   UNL     1       6.449   0.690  11.064  0.00  0.00    +0.000 C 
ATOM     15  O   UNL     1       6.843   2.008  11.419  0.00  0.00    +0.000 OA
ENDBRANCH  13  15
ENDBRANCH   8  13
ENDBRANCH   1  10
BRANCH   5  16
ATOM     16  C   UNL     1       4.060   5.227  19.817  0.00  0.00    +0.000 C 
BRANCH  16  17
ATOM     17  C   UNL     1       2.821   4.354  19.905  0.00  0.00    +0.000 A 
ATOM     18  C   UNL     1       2.304   3.855  21.107  0.00  0.00    +0.000 A 
ATOM     19  C   UNL     1       1.147   3.068  21.114  0.00  0.00    +0.000 A 
ATOM     20  C   UNL     1       0.494   2.772  19.918  0.00  0.00    +0.000 A 
ATOM     21  C   UNL     1       0.989   3.262  18.716  0.00  0.00    +0.000 A 
ATOM     22  C   UNL     1       2.146   4.048  18.711  0.00  0.00    +0.000 A 
ENDBRANCH  16  17
ENDBRANCH   5  16
TORSDOF 5
ENDMDL
MODEL 4
REMARK VINA RESULT:      -7.4      3.754      6.012
REMARK  Name = 
REMARK  6 active torsions:
REMARK  status: ('A' for Active; 'I' for Inactive)
REMARK    1  A    between atoms: C_1  and  O_2
REMARK    2  A    between atoms: O_2  and  C_3
REMARK    3  A    between atoms: C_3  and  C_4
REMARK    4  A    between atoms: C_6  and  C_7
REMARK    5  A    between atoms: C_11  and  C_13
REMARK    6  A    between atoms: C_13  and  C_14
REMARK                            x       y       z     vdW  Elec       q    Type
REMARK                         _______ _______ _______ _____ _____    ______ ____
ROOT
ATOM      1  C   UNL     1       6.325   6.368  16.744  0.00  0.00    +0.000 C 
ATOM      2  C   UNL     1       6.452   4.885  17.113  0.00  0.00    +0.000 C 
ATOM      3  C   UNL     1       5.072   4.321  16.813  0.00  0.00    +0.000 C 
ATOM      4  N   UNL     1       4.180   5.412  17.155  0.00  0.00    +0.000 N 
ATOM      5  C   UNL     1       2.883   5.347  17.618  0.00  0.00    +0.000 C 
ATOM      6  O   UNL     1       2.250   6.369  17.891  0.00  0.00    +0.000 OA
ATOM      7  C   UNL     1       4.855   6.696  17.026  0.00  0.00    +0.000 C 
ENDROOT
BRANCH   1  10
ATOM      8  C   UNL     1       8.338   8.930  18.102  0.00  0.00    +0.000 A 
ATOM      9  N   UNL     1       7.429   8.572  17.218  0.00  0.00    +0.000 NA
ATOM     10  C   UNL     1       7.263   7.238  17.500  0.00  0.00    +0.000 A 
ATOM     11  N   UNL     1       7.992   6.783  18.526  0.00  0.00    +0.000 NA
ATOM     12  O   UNL     1       8.714   7.908  18.929  0.00  0.00    +0.000 OA
BRANCH   8  13
ATOM     13  C   UNL     1       8.960  10.253  18.353  0.00  0.00    +0.000 C 
BRANCH  13  15
ATOM     14  C   UNL     1       9.767  11.502  20.185  0.00  0.00    +0.000 C 
ATOM     15  O   UNL     1       9.596  10.204  19.632  0.00  0.00    +0.000 OA
ENDBRANCH  13  15
ENDBRANCH   8  13
ENDBRANCH   1  10
BRANCH   5  16
ATOM     16  C   UNL     1       2.249   3.979  17.791  0.00  0.00    +0.000 C 
BRANCH  16  17
ATOM     17  C   UNL     1       2.254   3.402  19.195  0.00  0.00    +0.000 A 
ATOM     18  C   UNL     1       3.387   2.850  19.806  0.00  0.00    +0.000 A 
ATOM     19  C   UNL     1       3.321   2.350  21.112  0.00  0.00    +0.000 A 
ATOM     20  C   UNL     1       2.122   2.399  21.821  0.00  0.00    +0.000 A 
ATOM     21  C   UNL     1       0.989   2.947  21.234  0.00  0.00    +0.000 A 
ATOM     22  C   UNL     1       1.056   3.445  19.928  0.00  0.00    +0.000 A 
ENDBRANCH  16  17
ENDBRANCH   5  16
TORSDOF 5
ENDMDL
MODEL 5
REMARK VINA RESULT:      -7.4      2.511      3.229
REMARK  Name = 
REMARK  6 active torsions:
REMARK  status: ('A' for Active; 'I' for Inactive)
REMARK    1  A    between atoms: C_1  and  O_2
REMARK    2  A    between atoms: O_2  and  C_3
REMARK    3  A    between atoms: C_3  and  C_4
REMARK    4  A    between atoms: C_6  and  C_7
REMARK    5  A    between atoms: C_11  and  C_13
REMARK    6  A    between atoms: C_13  and  C_14
REMARK                            x       y       z     vdW  Elec       q    Type
REMARK                         _______ _______ _______ _____ _____    ______ ____
ROOT
ATOM      1  C   UNL     1       6.468   5.985  15.669  0.00  0.00    +0.000 C 
ATOM      2  C   UNL     1       5.074   6.615  15.786  0.00  0.00    +0.000 C 
ATOM      3  C   UNL     1       4.856   6.727  17.286  0.00  0.00    +0.000 C 
ATOM      4  N   UNL     1       5.520   5.550  17.813  0.00  0.00    +0.000 N 
ATOM      5  C   UNL     1       5.215   4.829  18.947  0.00  0.00    +0.000 C 
ATOM      6  O   UNL     1       5.862   3.826  19.260  0.00  0.00    +0.000 OA
ATOM      7  C   UNL     1       6.588   5.114  16.924  0.00  0.00    +0.000 C 
ENDROOT
BRANCH   1  10
ATOM      8  C   UNL     1       6.297   3.866  12.852  0.00  0.00    +0.000 A 
ATOM      9  N   UNL     1       5.728   4.308  13.954  0.00  0.00    +0.000 NA
ATOM     10  C   UNL     1       6.654   5.212  14.413  0.00  0.00    +0.000 A 
ATOM     11  N   UNL     1       7.730   5.366  13.631  0.00  0.00    +0.000 NA
ATOM     12  O   UNL     1       7.497   4.466  12.589  0.00  0.00    +0.000 OA
BRANCH   8  13
ATOM     13  C   UNL     1       5.817   2.875  11.858  0.00  0.00    +0.000 C 
BRANCH  13  15
ATOM     14  C   UNL     1       3.838   3.357  10.668  0.00  0.00    +0.000 C 
ATOM     15  O   UNL     1       4.388   2.879  11.887  0.00  0.00    +0.000 OA
ENDBRANCH  13  15
ENDBRANCH   8  13
ENDBRANCH   1  10
BRANCH   5  16
ATOM     16  C   UNL     1       4.053   5.294  19.806  0.00  0.00    +0.000 C 
BRANCH  16  17
ATOM     17  C   UNL     1       2.806   4.430  19.785  0.00  0.00    +0.000 A 
ATOM     18  C   UNL     1       2.097   4.113  18.620  0.00  0.00    +0.000 A 
ATOM     19  C   UNL     1       0.962   3.296  18.675  0.00  0.00    +0.000 A 
ATOM     20  C   UNL     1       0.525   2.785  19.896  0.00  0.00    +0.000 A 
ATOM     21  C   UNL     1       1.218   3.084  21.062  0.00  0.00    +0.000 A 
ATOM     22  C   UNL     1       2.352   3.902  21.006  0.00  0.00    +0.000 A 
ENDBRANCH  16  17
ENDBRANCH   5  16
TORSDOF 5
ENDMDL
MODEL 6
REMARK VINA RESULT:      -7.3      4.827      8.336
REMARK  Name = 
REMARK  6 active torsions:
REMARK  status: ('A' for Active; 'I' for Inactive)
REMARK    1  A    between atoms: C_1  and  O_2
REMARK    2  A    between atoms: O_2  and  C_3
REMARK    3  A    between atoms: C_3  and  C_4
REMARK    4  A    between atoms: C_6  and  C_7
REMARK    5  A    between atoms: C_11  and  C_13
REMARK    6  A    between atoms: C_13  and  C_14
REMARK                            x       y       z     vdW  Elec       q    Type
REMARK                         _______ _______ _______ _____ _____    ______ ____
ROOT
ATOM      1  C   UNL     1      -0.044  10.579  19.245  0.00  0.00    +0.000 C 
ATOM      2  C   UNL     1      -0.260   9.591  20.398  0.00  0.00    +0.000 C 
ATOM      3  C   UNL     1       1.088   8.901  20.537  0.00  0.00    +0.000 C 
ATOM      4  N   UNL     1       1.572   8.827  19.172  0.00  0.00    +0.000 N 
ATOM      5  C   UNL     1       2.398   7.880  18.606  0.00  0.00    +0.000 C 
ATOM      6  O   UNL     1       2.709   7.934  17.414  0.00  0.00    +0.000 OA
ATOM      7  C   UNL     1       1.001   9.892  18.359  0.00  0.00    +0.000 C 
ENDROOT
BRANCH   1  10
ATOM      8  C   UNL     1      -2.777  10.890  17.033  0.00  0.00    +0.000 A 
ATOM      9  N   UNL     1      -1.626  10.315  17.314  0.00  0.00    +0.000 NA
ATOM     10  C   UNL     1      -1.296  10.900  18.512  0.00  0.00    +0.000 A 
ATOM     11  N   UNL     1      -2.200  11.767  18.985  0.00  0.00    +0.000 NA
ATOM     12  O   UNL     1      -3.189  11.766  18.000  0.00  0.00    +0.000 OA
BRANCH   8  13
ATOM     13  C   UNL     1      -3.687  10.697  15.878  0.00  0.00    +0.000 C 
BRANCH  13  15
ATOM     14  C   UNL     1      -3.695  10.009  13.622  0.00  0.00    +0.000 C 
ATOM     15  O   UNL     1      -2.891  10.338  14.746  0.00  0.00    +0.000 OA
ENDBRANCH  13  15
ENDBRANCH   8  13
ENDBRANCH   1  10
BRANCH   5  16
ATOM     16  C   UNL     1       2.915   6.757  19.486  0.00  0.00    +0.000 C 
BRANCH  16  17
ATOM     17  C   UNL     1       2.196   5.424  19.378  0.00  0.00    +0.000 A 
ATOM     18  C   UNL     1       2.052   4.713  18.180  0.00  0.00    +0.000 A 
ATOM     19  C   UNL     1       1.389   3.479  18.158  0.00  0.00    +0.000 A 
ATOM     20  C   UNL     1       0.866   2.944  19.334  0.00  0.00    +0.000 A 
ATOM     21  C   UNL     1       1.004   3.633  20.532  0.00  0.00    +0.000 A 
ATOM     22  C   UNL     1       1.665   4.866  20.553  0.00  0.00    +0.000 A 
ENDBRANCH  16  17
ENDBRANCH   5  16
TORSDOF 5
ENDMDL
MODEL 7
REMARK VINA RESULT:      -7.3      2.623      3.364
REMARK  Name = 
REMARK  6 active torsions:
REMARK  status: ('A' for Active; 'I' for Inactive)
REMARK    1  A    between atoms: C_1  and  O_2
REMARK    2  A    between atoms: O_2  and  C_3
REMARK    3  A    between atoms: C_3  and  C_4
REMARK    4  A    between atoms: C_6  and  C_7
REMARK    5  A    between atoms: C_11  and  C_13
REMARK    6  A    between atoms: C_13  and  C_14
REMARK                            x       y       z     vdW  Elec       q    Type
REMARK                         _______ _______ _______ _____ _____    ______ ____
ROOT
ATOM      1  C   UNL     1       6.636   5.670  15.561  0.00  0.00    +0.000 C 
ATOM      2  C   UNL     1       5.380   6.539  15.710  0.00  0.00    +0.000 C 
ATOM      3  C   UNL     1       5.174   6.617  17.215  0.00  0.00    +0.000 C 
ATOM      4  N   UNL     1       5.608   5.314  17.683  0.00  0.00    +0.000 N 
ATOM      5  C   UNL     1       5.166   4.607  18.781  0.00  0.00    +0.000 C 
ATOM      6  O   UNL     1       5.616   3.489  19.044  0.00  0.00    +0.000 OA
ATOM      7  C   UNL     1       6.584   4.733  16.772  0.00  0.00    +0.000 C 
ENDROOT
BRANCH   1  10
ATOM      8  C   UNL     1       6.179   3.622  12.724  0.00  0.00    +0.000 A 
ATOM      9  N   UNL     1       5.739   4.015  13.902  0.00  0.00    +0.000 NA
ATOM     10  C   UNL     1       6.687   4.938  14.270  0.00  0.00    +0.000 A 
ATOM     11  N   UNL     1       7.651   5.150  13.365  0.00  0.00    +0.000 NA
ATOM     12  O   UNL     1       7.317   4.270  12.333  0.00  0.00    +0.000 OA
BRANCH   8  13
ATOM     13  C   UNL     1       5.610   2.641  11.768  0.00  0.00    +0.000 C 
BRANCH  13  15
ATOM     14  C   UNL     1       6.226   0.448  11.152  0.00  0.00    +0.000 C 
ATOM     15  O   UNL     1       6.669   1.786  11.332  0.00  0.00    +0.000 OA
ENDBRANCH  13  15
ENDBRANCH   8  13
ENDBRANCH   1  10
BRANCH   5  16
ATOM     16  C   UNL     1       4.103   5.237  19.662  0.00  0.00    +0.000 C 
BRANCH  16  17
ATOM     17  C   UNL     1       2.882   4.386  19.964  0.00  0.00    +0.000 A 
ATOM     18  C   UNL     1       1.929   4.024  19.005  0.00  0.00    +0.000 A 
ATOM     19  C   UNL     1       0.835   3.222  19.353  0.00  0.00    +0.000 A 
ATOM     20  C   UNL     1       0.685   2.773  20.664  0.00  0.00    +0.000 A 
ATOM     21  C   UNL     1       1.623   3.118  21.629  0.00  0.00    +0.000 A 
ATOM     22  C   UNL     1       2.715   3.920  21.279  0.00  0.00    +0.000 A 
ENDBRANCH  16  17
ENDBRANCH   5  16
TORSDOF 5
ENDMDL
MODEL 8
REMARK VINA RESULT:      -7.3      3.855      6.168
REMARK  Name = 
REMARK  6 active torsions:
REMARK  status: ('A' for Active; 'I' for Inactive)
REMARK    1  A    between atoms: C_1  and  O_2
REMARK    2  A    between atoms: O_2  and  C_3
REMARK    3  A    between atoms: C_3  and  C_4
REMARK    4  A    between atoms: C_6  and  C_7
REMARK    5  A    between atoms: C_11  and  C_13
REMARK    6  A    between atoms: C_13  and  C_14
REMARK                            x       y       z     vdW  Elec       q    Type
REMARK                         _______ _______ _______ _____ _____    ______ ____
ROOT
ATOM      1  C   UNL     1       6.883   6.509  16.839  0.00  0.00    +0.000 C 
ATOM      2  C   UNL     1       7.167   5.064  17.266  0.00  0.00    +0.000 C 
ATOM      3  C   UNL     1       5.889   4.325  16.904  0.00  0.00    +0.000 C 
ATOM      4  N   UNL     1       4.850   5.305  17.154  0.00  0.00    +0.000 N 
ATOM      5  C   UNL     1       3.544   5.091  17.540  0.00  0.00    +0.000 C 
ATOM      6  O   UNL     1       2.774   6.034  17.740  0.00  0.00    +0.000 OA
ATOM      7  C   UNL     1       5.369   6.659  17.021  0.00  0.00    +0.000 C 
ENDROOT
BRANCH   1  10
ATOM      8  C   UNL     1       8.502   9.332  18.207  0.00  0.00    +0.000 A 
ATOM      9  N   UNL     1       7.719   8.836  17.271  0.00  0.00    +0.000 NA
ATOM     10  C   UNL     1       7.657   7.509  17.619  0.00  0.00    +0.000 A 
ATOM     11  N   UNL     1       8.328   7.185  18.732  0.00  0.00    +0.000 NA
ATOM     12  O   UNL     1       8.896   8.399  19.126  0.00  0.00    +0.000 OA
BRANCH   8  13
ATOM     13  C   UNL     1       8.966  10.723  18.430  0.00  0.00    +0.000 C 
BRANCH  13  15
ATOM     14  C   UNL     1       9.522  11.446  20.606  0.00  0.00    +0.000 C 
ATOM     15  O   UNL     1       9.943  10.699  19.473  0.00  0.00    +0.000 OA
ENDBRANCH  13  15
ENDBRANCH   8  13
ENDBRANCH   1  10
BRANCH   5  16
ATOM     16  C   UNL     1       3.073   3.659  17.723  0.00  0.00    +0.000 C 
BRANCH  16  17
ATOM     17  C   UNL     1       2.518   3.297  19.088  0.00  0.00    +0.000 A 
ATOM     18  C   UNL     1       1.163   3.393  19.429  0.00  0.00    +0.000 A 
ATOM     19  C   UNL     1       0.720   3.025  20.705  0.00  0.00    +0.000 A 
ATOM     20  C   UNL     1       1.628   2.556  21.653  0.00  0.00    +0.000 A 
ATOM     21  C   UNL     1       2.976   2.450  21.332  0.00  0.00    +0.000 A 
ATOM     22  C   UNL     1       3.417   2.818  20.057  0.00  0.00    +0.000 A 
ENDBRANCH  16  17
ENDBRANCH   5  16
TORSDOF 5
ENDMDL
MODEL 9
REMARK VINA RESULT:      -7.1      4.828      8.350
REMARK  Name = 
REMARK  6 active torsions:
REMARK  status: ('A' for Active; 'I' for Inactive)
REMARK    1  A    between atoms: C_1  and  O_2
REMARK    2  A    between atoms: O_2  and  C_3
REMARK    3  A    between atoms: C_3  and  C_4
REMARK    4  A    between atoms: C_6  and  C_7
REMARK    5  A    between atoms: C_11  and  C_13
REMARK    6  A    between atoms: C_13  and  C_14
REMARK                            x       y       z     vdW  Elec       q    Type
REMARK                         _______ _______ _______ _____ _____    ______ ____
ROOT
ATOM      1  C   UNL     1      -0.079  10.588  19.068  0.00  0.00    +0.000 C 
ATOM      2  C   UNL     1      -0.301   9.647  20.259  0.00  0.00    +0.000 C 
ATOM      3  C   UNL     1       1.053   8.981  20.447  0.00  0.00    +0.000 C 
ATOM      4  N   UNL     1       1.559   8.856  19.094  0.00  0.00    +0.000 N 
ATOM      5  C   UNL     1       2.405   7.897  18.580  0.00  0.00    +0.000 C 
ATOM      6  O   UNL     1       2.734   7.906  17.391  0.00  0.00    +0.000 OA
ATOM      7  C   UNL     1       0.988   9.879  18.228  0.00  0.00    +0.000 C 
ENDROOT
BRANCH   1  10
ATOM      8  C   UNL     1      -2.813  10.725  16.840  0.00  0.00    +0.000 A 
ATOM      9  N   UNL     1      -1.681  10.147  17.187  0.00  0.00    +0.000 NA
ATOM     10  C   UNL     1      -1.324  10.862  18.304  0.00  0.00    +0.000 A 
ATOM     11  N   UNL     1      -2.194  11.811  18.670  0.00  0.00    +0.000 NA
ATOM     12  O   UNL     1      -3.188  11.725  17.694  0.00  0.00    +0.000 OA
BRANCH   8  13
ATOM     13  C   UNL     1      -3.737  10.425  15.719  0.00  0.00    +0.000 C 
BRANCH  13  15
ATOM     14  C   UNL     1      -3.724   9.923  13.414  0.00  0.00    +0.000 C 
ATOM     15  O   UNL     1      -2.977  10.434  14.509  0.00  0.00    +0.000 OA
ENDBRANCH  13  15
ENDBRANCH   8  13
ENDBRANCH   1  10
BRANCH   5  16
ATOM     16  C   UNL     1       2.923   6.819  19.515  0.00  0.00    +0.000 C 
BRANCH  16  17
ATOM     17  C   UNL     1       2.206   5.481  19.470  0.00  0.00    +0.000 A 
ATOM     18  C   UNL     1       1.659   4.853  20.595  0.00  0.00    +0.000 A 
ATOM     19  C   UNL     1       0.996   3.625  20.476  0.00  0.00    +0.000 A 
ATOM     20  C   UNL     1       0.873   3.014  19.229  0.00  0.00    +0.000 A 
ATOM     21  C   UNL     1       1.406   3.625  18.100  0.00  0.00    +0.000 A 
ATOM     22  C   UNL     1       2.068   4.851  18.222  0.00  0.00    +0.000 A 
ENDBRANCH  16  17
ENDBRANCH   5  16
TORSDOF 5
ENDMDL
