MODEL 1
REMARK VINA RESULT:      -7.2      0.000      0.000
REMARK  Name = 
REMARK  19 active torsions:
REMARK  status: ('A' for Active; 'I' for Inactive)
REMARK    1  A    between atoms: C_1  and  C_2
REMARK    2  A    between atoms: C_2  and  C_3
REMARK    3  A    between atoms: N_5  and  C_6
REMARK    4  A    between atoms: N_5  and  C_7
REMARK    5  A    between atoms: C_7  and  C_8
REMARK    6  A    between atoms: C_8  and  C_9
REMARK    7  A    between atoms: C_9  and  C_10
REMARK    8  A    between atoms: C_10  and  C_13
REMARK    9  A    between atoms: C_13  and  C_14
REMARK   10  A    between atoms: C_15  and  C_16
REMARK   11  A    between atoms: C_15  and  C_17
REMARK   12  A    between atoms: C_17  and  C_18
REMARK   13  A    between atoms: C_18  and  C_19
REMARK   14  A    between atoms: C_18  and  C_20
REMARK   15  A    between atoms: C_20  and  C_21
REMARK   16  A    between atoms: C_21  and  C_22
REMARK   17  A    between atoms: C_21  and  C_23
REMARK   18  A    between atoms: C_25  and  O_26
REMARK   19  A    between atoms: O_26  and  C_27
REMARK                            x       y       z     vdW  Elec       q    Type
REMARK                         _______ _______ _______ _____ _____    ______ ____
ROOT
ATOM      1  C   UNL     1       2.218   7.242  19.309  0.00  0.00    +0.000 C 
ATOM      2  C   UNL     1       2.487   7.943  18.187  0.00  0.00    +0.000 C 
ATOM      3  C   UNL     1       3.648   7.647  17.283  0.00  0.00    +0.000 C 
ENDROOT
BRANCH   1   4
ATOM      4  C   UNL     1       2.967   6.049  19.819  0.00  0.00    +0.000 C 
BRANCH   4   5
ATOM      5  C   UNL     1       2.127   4.786  19.978  0.00  0.00    +0.000 C 
ATOM      6  C   UNL     1       2.004   4.173  21.170  0.00  0.00    +0.000 C 
ATOM      7 CL   UNL     1       1.327   2.633  21.486  0.00  0.00    +0.000 Cl
BRANCH   5   8
ATOM      8  C   UNL     1       1.568   4.291  18.663  0.00  0.00    +0.000 C 
BRANCH   8   9
ATOM      9  C   UNL     1       2.590   3.934  17.563  0.00  0.00    +0.000 C 
BRANCH   9  10
ATOM     10  C   UNL     1       3.946   3.492  18.109  0.00  0.00    +0.000 C 
BRANCH  10  13
ATOM     11  C   UNL     1       6.134   4.550  18.230  0.00  0.00    +0.000 C 
ATOM     12  O   UNL     1       6.161   4.354  19.446  0.00  0.00    +0.000 OA
ATOM     13  N   UNL     1       5.069   4.138  17.436  0.00  0.00    +0.000 N 
ATOM     14  C   UNL     1       4.974   4.278  15.991  0.00  0.00    +0.000 C 
BRANCH  11  16
ATOM     15  C   UNL     1       7.217   6.762  17.720  0.00  0.00    +0.000 C 
ATOM     16  C   UNL     1       7.276   5.251  17.529  0.00  0.00    +0.000 C 
ENDBRANCH  11  16
ENDBRANCH  10  13
ENDBRANCH   9  10
ENDBRANCH   8   9
ENDBRANCH   5   8
ENDBRANCH   4   5
ENDBRANCH   1   4
BRANCH   2  17
ATOM     17  C   UNL     1       1.559   9.084  17.815  0.00  0.00    +0.000 C 
BRANCH  17  18
ATOM     18  C   UNL     1       1.485  10.266  18.804  0.00  0.00    +0.000 C 
ATOM     19  C   UNL     1       1.995  11.577  18.179  0.00  0.00    +0.000 C 
BRANCH  18  20
ATOM     20  C   UNL     1       0.045  10.478  19.335  0.00  0.00    +0.000 C 
BRANCH  20  21
ATOM     21  C   UNL     1      -0.561  11.891  19.129  0.00  0.00    +0.000 C 
ATOM     22  C   UNL     1      -1.656  11.888  18.060  0.00  0.00    +0.000 C 
BRANCH  21  23
ATOM     23  C   UNL     1      -1.073  12.519  20.451  0.00  0.00    +0.000 C 
ATOM     24  C   UNL     1      -1.617  11.499  21.452  0.00  0.00    +0.000 C 
ATOM     25  C   UNL     1      -1.912  12.187  22.749  0.00  0.00    +0.000 C 
ATOM     26  C   UNL     1      -1.277  13.313  23.082  0.00  0.00    +0.000 C 
ATOM     27  C   UNL     1      -0.205  13.873  22.242  0.00  0.00    +0.000 C 
ATOM     28  O   UNL     1       0.495  14.793  22.646  0.00  0.00    +0.000 OA
ATOM     29  O   UNL     1       0.006  13.273  21.041  0.00  0.00    +0.000 OA
BRANCH  25  30
ATOM     30  O   UNL     1      -2.877  11.666  23.593  0.00  0.00    +0.000 OA
ATOM     31  C   UNL     1      -3.869  12.594  24.031  0.00  0.00    +0.000 C 
ENDBRANCH  25  30
ENDBRANCH  21  23
ENDBRANCH  20  21
ENDBRANCH  18  20
ENDBRANCH  17  18
ENDBRANCH   2  17
TORSDOF 13
ENDMDL
MODEL 2
REMARK VINA RESULT:      -7.1      4.270     11.250
REMARK  Name = 
REMARK  19 active torsions:
REMARK  status: ('A' for Active; 'I' for Inactive)
REMARK    1  A    between atoms: C_1  and  C_2
REMARK    2  A    between atoms: C_2  and  C_3
REMARK    3  A    between atoms: N_5  and  C_6
REMARK    4  A    between atoms: N_5  and  C_7
REMARK    5  A    between atoms: C_7  and  C_8
REMARK    6  A    between atoms: C_8  and  C_9
REMARK    7  A    between atoms: C_9  and  C_10
REMARK    8  A    between atoms: C_10  and  C_13
REMARK    9  A    between atoms: C_13  and  C_14
REMARK   10  A    between atoms: C_15  and  C_16
REMARK   11  A    between atoms: C_15  and  C_17
REMARK   12  A    between atoms: C_17  and  C_18
REMARK   13  A    between atoms: C_18  and  C_19
REMARK   14  A    between atoms: C_18  and  C_20
REMARK   15  A    between atoms: C_20  and  C_21
REMARK   16  A    between atoms: C_21  and  C_22
REMARK   17  A    between atoms: C_21  and  C_23
REMARK   18  A    between atoms: C_25  and  O_26
REMARK   19  A    between atoms: O_26  and  C_27
REMARK                            x       y       z     vdW  Elec       q    Type
REMARK                         _______ _______ _______ _____ _____    ______ ____
ROOT
ATOM      1  C   UNL     1       2.859   8.178  17.971  0.00  0.00    +0.000 C 
ATOM      2  C   UNL     1       3.188   6.908  18.285  0.00  0.00    +0.000 C 
ATOM      3  C   UNL     1       2.177   5.839  18.582  0.00  0.00    +0.000 C 
ENDROOT
BRANCH   1   4
ATOM      4  C   UNL     1       1.476   8.732  17.815  0.00  0.00    +0.000 C 
BRANCH   4   5
ATOM      5  C   UNL     1       0.963   9.521  19.016  0.00  0.00    +0.000 C 
ATOM      6  C   UNL     1       1.242   9.138  20.275  0.00  0.00    +0.000 C 
ATOM      7 CL   UNL     1       0.556   9.736  21.725  0.00  0.00    +0.000 Cl
BRANCH   5   8
ATOM      8  C   UNL     1       0.061  10.667  18.615  0.00  0.00    +0.000 C 
BRANCH   8   9
ATOM      9  C   UNL     1      -1.190  10.311  17.785  0.00  0.00    +0.000 C 
BRANCH   9  10
ATOM     10  C   UNL     1      -1.974  11.531  17.307  0.00  0.00    +0.000 C 
BRANCH  10  13
ATOM     11  C   UNL     1      -4.384  11.240  17.140  0.00  0.00    +0.000 C 
ATOM     12  O   UNL     1      -4.251  10.790  16.001  0.00  0.00    +0.000 OA
ATOM     13  N   UNL     1      -3.298  11.632  17.914  0.00  0.00    +0.000 N 
ATOM     14  C   UNL     1      -3.354  12.123  19.283  0.00  0.00    +0.000 C 
BRANCH  11  16
ATOM     15  C   UNL     1      -6.490  12.612  17.240  0.00  0.00    +0.000 C 
ATOM     16  C   UNL     1      -5.754  11.384  17.764  0.00  0.00    +0.000 C 
ENDBRANCH  11  16
ENDBRANCH  10  13
ENDBRANCH   9  10
ENDBRANCH   8   9
ENDBRANCH   5   8
ENDBRANCH   4   5
ENDBRANCH   1   4
BRANCH   2  17
ATOM     17  C   UNL     1       4.659   6.538  18.328  0.00  0.00    +0.000 C 
BRANCH  17  18
ATOM     18  C   UNL     1       5.523   6.996  17.134  0.00  0.00    +0.000 C 
ATOM     19  C   UNL     1       7.027   6.958  17.459  0.00  0.00    +0.000 C 
BRANCH  18  20
ATOM     20  C   UNL     1       5.250   6.143  15.870  0.00  0.00    +0.000 C 
BRANCH  20  21
ATOM     21  C   UNL     1       5.742   4.673  15.915  0.00  0.00    +0.000 C 
ATOM     22  C   UNL     1       4.609   3.706  16.264  0.00  0.00    +0.000 C 
BRANCH  21  23
ATOM     23  C   UNL     1       6.461   4.245  14.610  0.00  0.00    +0.000 C 
ATOM     24  C   UNL     1       5.532   3.624  13.566  0.00  0.00    +0.000 C 
ATOM     25  C   UNL     1       6.289   3.417  12.289  0.00  0.00    +0.000 C 
ATOM     26  C   UNL     1       7.361   4.160  12.006  0.00  0.00    +0.000 C 
ATOM     27  C   UNL     1       7.788   5.266  12.880  0.00  0.00    +0.000 C 
ATOM     28  O   UNL     1       8.651   6.056  12.518  0.00  0.00    +0.000 OA
ATOM     29  O   UNL     1       7.130   5.400  14.061  0.00  0.00    +0.000 OA
BRANCH  25  30
ATOM     30  O   UNL     1       5.890   2.422  11.415  0.00  0.00    +0.000 OA
ATOM     31  C   UNL     1       6.885   1.444  11.111  0.00  0.00    +0.000 C 
ENDBRANCH  25  30
ENDBRANCH  21  23
ENDBRANCH  20  21
ENDBRANCH  18  20
ENDBRANCH  17  18
ENDBRANCH   2  17
TORSDOF 13
ENDMDL
MODEL 3
REMARK VINA RESULT:      -7.0      3.269      4.600
REMARK  Name = 
REMARK  19 active torsions:
REMARK  status: ('A' for Active; 'I' for Inactive)
REMARK    1  A    between atoms: C_1  and  C_2
REMARK    2  A    between atoms: C_2  and  C_3
REMARK    3  A    between atoms: N_5  and  C_6
REMARK    4  A    between atoms: N_5  and  C_7
REMARK    5  A    between atoms: C_7  and  C_8
REMARK    6  A    between atoms: C_8  and  C_9
REMARK    7  A    between atoms: C_9  and  C_10
REMARK    8  A    between atoms: C_10  and  C_13
REMARK    9  A    between atoms: C_13  and  C_14
REMARK   10  A    between atoms: C_15  and  C_16
REMARK   11  A    between atoms: C_15  and  C_17
REMARK   12  A    between atoms: C_17  and  C_18
REMARK   13  A    between atoms: C_18  and  C_19
REMARK   14  A    between atoms: C_18  and  C_20
REMARK   15  A    between atoms: C_20  and  C_21
REMARK   16  A    between atoms: C_21  and  C_22
REMARK   17  A    between atoms: C_21  and  C_23
REMARK   18  A    between atoms: C_25  and  O_26
REMARK   19  A    between atoms: O_26  and  C_27
REMARK                            x       y       z     vdW  Elec       q    Type
REMARK                         _______ _______ _______ _____ _____    ______ ____
ROOT
ATOM      1  C   UNL     1       2.376   7.832  18.056  0.00  0.00    +0.000 C 
ATOM      2  C   UNL     1       1.581   8.675  18.746  0.00  0.00    +0.000 C 
ATOM      3  C   UNL     1       1.390   8.604  20.233  0.00  0.00    +0.000 C 
ENDROOT
BRANCH   1   4
ATOM      4  C   UNL     1       3.230   6.739  18.624  0.00  0.00    +0.000 C 
BRANCH   4   5
ATOM      5  C   UNL     1       4.366   6.277  17.718  0.00  0.00    +0.000 C 
ATOM      6  C   UNL     1       4.542   6.804  16.492  0.00  0.00    +0.000 C 
ATOM      7 CL   UNL     1       5.583   6.244  15.255  0.00  0.00    +0.000 Cl
BRANCH   5   8
ATOM      8  C   UNL     1       5.158   5.136  18.316  0.00  0.00    +0.000 C 
BRANCH   8   9
ATOM      9  C   UNL     1       5.215   3.827  17.502  0.00  0.00    +0.000 C 
BRANCH   9  10
ATOM     10  C   UNL     1       3.844   3.318  17.064  0.00  0.00    +0.000 C 
BRANCH  10  13
ATOM     11  C   UNL     1       1.712   3.362  18.237  0.00  0.00    +0.000 C 
ATOM     12  O   UNL     1       1.250   4.104  17.370  0.00  0.00    +0.000 OA
ATOM     13  N   UNL     1       3.015   2.878  18.182  0.00  0.00    +0.000 N 
ATOM     14  C   UNL     1       3.628   1.959  19.128  0.00  0.00    +0.000 C 
BRANCH  11  16
ATOM     15  C   UNL     1       0.954   3.928  20.568  0.00  0.00    +0.000 C 
ATOM     16  C   UNL     1       0.874   2.929  19.419  0.00  0.00    +0.000 C 
ENDBRANCH  11  16
ENDBRANCH  10  13
ENDBRANCH   9  10
ENDBRANCH   8   9
ENDBRANCH   5   8
ENDBRANCH   4   5
ENDBRANCH   1   4
BRANCH   2  17
ATOM     17  C   UNL     1       0.848   9.759  17.978  0.00  0.00    +0.000 C 
BRANCH  17  18
ATOM     18  C   UNL     1      -0.356  10.416  18.686  0.00  0.00    +0.000 C 
ATOM     19  C   UNL     1      -0.235  11.950  18.728  0.00  0.00    +0.000 C 
BRANCH  18  20
ATOM     20  C   UNL     1      -1.696  10.025  18.015  0.00  0.00    +0.000 C 
BRANCH  20  21
ATOM     21  C   UNL     1      -2.528  11.189  17.416  0.00  0.00    +0.000 C 
ATOM     22  C   UNL     1      -2.731  11.025  15.908  0.00  0.00    +0.000 C 
BRANCH  21  23
ATOM     23  C   UNL     1      -3.883  11.389  18.143  0.00  0.00    +0.000 C 
ATOM     24  C   UNL     1      -3.772  12.159  19.460  0.00  0.00    +0.000 C 
ATOM     25  C   UNL     1      -5.146  12.451  19.981  0.00  0.00    +0.000 C 
ATOM     26  C   UNL     1      -6.190  12.512  19.150  0.00  0.00    +0.000 C 
ATOM     27  C   UNL     1      -6.025  12.391  17.692  0.00  0.00    +0.000 C 
ATOM     28  O   UNL     1      -6.953  12.636  16.932  0.00  0.00    +0.000 OA
ATOM     29  O   UNL     1      -4.785  12.065  17.243  0.00  0.00    +0.000 OA
BRANCH  25  30
ATOM     30  O   UNL     1      -5.337  12.622  21.341  0.00  0.00    +0.000 OA
ATOM     31  C   UNL     1      -4.816  13.837  21.881  0.00  0.00    +0.000 C 
ENDBRANCH  25  30
ENDBRANCH  21  23
ENDBRANCH  20  21
ENDBRANCH  18  20
ENDBRANCH  17  18
ENDBRANCH   2  17
TORSDOF 13
ENDMDL
MODEL 4
REMARK VINA RESULT:      -6.9      3.694     10.469
REMARK  Name = 
REMARK  19 active torsions:
REMARK  status: ('A' for Active; 'I' for Inactive)
REMARK    1  A    between atoms: C_1  and  C_2
REMARK    2  A    between atoms: C_2  and  C_3
REMARK    3  A    between atoms: N_5  and  C_6
REMARK    4  A    between atoms: N_5  and  C_7
REMARK    5  A    between atoms: C_7  and  C_8
REMARK    6  A    between atoms: C_8  and  C_9
REMARK    7  A    between atoms: C_9  and  C_10
REMARK    8  A    between atoms: C_10  and  C_13
REMARK    9  A    between atoms: C_13  and  C_14
REMARK   10  A    between atoms: C_15  and  C_16
REMARK   11  A    between atoms: C_15  and  C_17
REMARK   12  A    between atoms: C_17  and  C_18
REMARK   13  A    between atoms: C_18  and  C_19
REMARK   14  A    between atoms: C_18  and  C_20
REMARK   15  A    between atoms: C_20  and  C_21
REMARK   16  A    between atoms: C_21  and  C_22
REMARK   17  A    between atoms: C_21  and  C_23
REMARK   18  A    between atoms: C_25  and  O_26
REMARK   19  A    between atoms: O_26  and  C_27
REMARK                            x       y       z     vdW  Elec       q    Type
REMARK                         _______ _______ _______ _____ _____    ______ ____
ROOT
ATOM      1  C   UNL     1       3.218   6.591  18.712  0.00  0.00    +0.000 C 
ATOM      2  C   UNL     1       2.785   5.320  18.575  0.00  0.00    +0.000 C 
ATOM      3  C   UNL     1       1.509   4.948  17.877  0.00  0.00    +0.000 C 
ENDROOT
BRANCH   1   4
ATOM      4  C   UNL     1       2.560   7.823  18.169  0.00  0.00    +0.000 C 
BRANCH   4   5
ATOM      5  C   UNL     1       1.702   8.586  19.173  0.00  0.00    +0.000 C 
ATOM      6  C   UNL     1       1.540   8.144  20.434  0.00  0.00    +0.000 C 
ATOM      7 CL   UNL     1       0.432   8.715  21.606  0.00  0.00    +0.000 Cl
BRANCH   5   8
ATOM      8  C   UNL     1       1.015   9.784  18.557  0.00  0.00    +0.000 C 
BRANCH   8   9
ATOM      9  C   UNL     1       1.886  11.033  18.305  0.00  0.00    +0.000 C 
BRANCH   9  10
ATOM     10  C   UNL     1       1.165  12.349  18.585  0.00  0.00    +0.000 C 
BRANCH  10  13
ATOM     11  C   UNL     1       2.472  13.849  19.985  0.00  0.00    +0.000 C 
ATOM     12  O   UNL     1       3.073  14.255  18.990  0.00  0.00    +0.000 OA
ATOM     13  N   UNL     1       1.464  12.894  19.905  0.00  0.00    +0.000 N 
ATOM     14  C   UNL     1       0.667  12.396  21.016  0.00  0.00    +0.000 C 
BRANCH  11  16
ATOM     15  C   UNL     1       4.286  14.258  21.679  0.00  0.00    +0.000 C 
ATOM     16  C   UNL     1       2.800  14.380  21.362  0.00  0.00    +0.000 C 
ENDBRANCH  11  16
ENDBRANCH  10  13
ENDBRANCH   9  10
ENDBRANCH   8   9
ENDBRANCH   5   8
ENDBRANCH   4   5
ENDBRANCH   1   4
BRANCH   2  17
ATOM     17  C   UNL     1       3.641   4.207  19.150  0.00  0.00    +0.000 C 
BRANCH  17  18
ATOM     18  C   UNL     1       4.391   3.317  18.136  0.00  0.00    +0.000 C 
ATOM     19  C   UNL     1       3.703   1.953  17.943  0.00  0.00    +0.000 C 
BRANCH  18  20
ATOM     20  C   UNL     1       4.537   4.015  16.760  0.00  0.00    +0.000 C 
BRANCH  20  21
ATOM     21  C   UNL     1       5.897   4.707  16.484  0.00  0.00    +0.000 C 
ATOM     22  C   UNL     1       6.893   4.477  17.623  0.00  0.00    +0.000 C 
BRANCH  21  23
ATOM     23  C   UNL     1       6.507   4.297  15.118  0.00  0.00    +0.000 C 
ATOM     24  C   UNL     1       5.470   3.872  14.078  0.00  0.00    +0.000 C 
ATOM     25  C   UNL     1       6.145   3.675  12.756  0.00  0.00    +0.000 C 
ATOM     26  C   UNL     1       7.288   4.305  12.475  0.00  0.00    +0.000 C 
ATOM     27  C   UNL     1       7.879   5.283  13.403  0.00  0.00    +0.000 C 
ATOM     28  O   UNL     1       8.817   5.990  13.058  0.00  0.00    +0.000 OA
ATOM     29  O   UNL     1       7.289   5.403  14.621  0.00  0.00    +0.000 OA
BRANCH  25  30
ATOM     30  O   UNL     1       5.595   2.803  11.833  0.00  0.00    +0.000 OA
ATOM     31  C   UNL     1       4.301   3.165  11.348  0.00  0.00    +0.000 C 
ENDBRANCH  25  30
ENDBRANCH  21  23
ENDBRANCH  20  21
ENDBRANCH  18  20
ENDBRANCH  17  18
ENDBRANCH   2  17
TORSDOF 13
ENDMDL
MODEL 5
REMARK VINA RESULT:      -6.8      2.228      3.623
REMARK  Name = 
REMARK  19 active torsions:
REMARK  status: ('A' for Active; 'I' for Inactive)
REMARK    1  A    between atoms: C_1  and  C_2
REMARK    2  A    between atoms: C_2  and  C_3
REMARK    3  A    between atoms: N_5  and  C_6
REMARK    4  A    between atoms: N_5  and  C_7
REMARK    5  A    between atoms: C_7  and  C_8
REMARK    6  A    between atoms: C_8  and  C_9
REMARK    7  A    between atoms: C_9  and  C_10
REMARK    8  A    between atoms: C_10  and  C_13
REMARK    9  A    between atoms: C_13  and  C_14
REMARK   10  A    between atoms: C_15  and  C_16
REMARK   11  A    between atoms: C_15  and  C_17
REMARK   12  A    between atoms: C_17  and  C_18
REMARK   13  A    between atoms: C_18  and  C_19
REMARK   14  A    between atoms: C_18  and  C_20
REMARK   15  A    between atoms: C_20  and  C_21
REMARK   16  A    between atoms: C_21  and  C_22
REMARK   17  A    between atoms: C_21  and  C_23
REMARK   18  A    between atoms: C_25  and  O_26
REMARK   19  A    between atoms: O_26  and  C_27
REMARK                            x       y       z     vdW  Elec       q    Type
REMARK                         _______ _______ _______ _____ _____    ______ ____
ROOT
ATOM      1  C   UNL     1       3.076   7.122  18.470  0.00  0.00    +0.000 C 
ATOM      2  C   UNL     1       2.202   8.093  18.807  0.00  0.00    +0.000 C 
ATOM      3  C   UNL     1       1.624   9.068  17.822  0.00  0.00    +0.000 C 
ENDROOT
BRANCH   1   4
ATOM      4  C   UNL     1       3.579   6.809  17.093  0.00  0.00    +0.000 C 
BRANCH   4   5
ATOM      5  C   UNL     1       4.949   6.141  17.049  0.00  0.00    +0.000 C 
ATOM      6  C   UNL     1       5.610   5.975  15.889  0.00  0.00    +0.000 C 
ATOM      7 CL   UNL     1       7.014   5.037  15.611  0.00  0.00    +0.000 Cl
BRANCH   5   8
ATOM      8  C   UNL     1       5.388   5.626  18.402  0.00  0.00    +0.000 C 
BRANCH   8   9
ATOM      9  C   UNL     1       5.548   4.098  18.547  0.00  0.00    +0.000 C 
BRANCH   9  10
ATOM     10  C   UNL     1       4.379   3.304  17.972  0.00  0.00    +0.000 C 
BRANCH  10  13
ATOM     11  C   UNL     1       2.010   3.395  18.521  0.00  0.00    +0.000 C 
ATOM     12  O   UNL     1       1.761   3.791  17.382  0.00  0.00    +0.000 OA
ATOM     13  N   UNL     1       3.303   3.093  18.935  0.00  0.00    +0.000 N 
ATOM     14  C   UNL     1       3.685   2.572  20.239  0.00  0.00    +0.000 C 
BRANCH  11  16
ATOM     15  C   UNL     1       0.831   4.379  20.514  0.00  0.00    +0.000 C 
ATOM     16  C   UNL     1       0.907   3.209  19.539  0.00  0.00    +0.000 C 
ENDBRANCH  11  16
ENDBRANCH  10  13
ENDBRANCH   9  10
ENDBRANCH   8   9
ENDBRANCH   5   8
ENDBRANCH   4   5
ENDBRANCH   1   4
BRANCH   2  17
ATOM     17  C   UNL     1       1.772   8.197  20.258  0.00  0.00    +0.000 C 
BRANCH  17  18
ATOM     18  C   UNL     1       0.478   8.989  20.541  0.00  0.00    +0.000 C 
ATOM     19  C   UNL     1      -0.379   8.326  21.636  0.00  0.00    +0.000 C 
BRANCH  18  20
ATOM     20  C   UNL     1       0.780  10.454  20.945  0.00  0.00    +0.000 C 
BRANCH  20  21
ATOM     21  C   UNL     1      -0.073  11.546  20.250  0.00  0.00    +0.000 C 
ATOM     22  C   UNL     1      -0.920  10.968  19.114  0.00  0.00    +0.000 C 
BRANCH  21  23
ATOM     23  C   UNL     1      -0.951  12.342  21.251  0.00  0.00    +0.000 C 
ATOM     24  C   UNL     1      -1.719  11.463  22.238  0.00  0.00    +0.000 C 
ATOM     25  C   UNL     1      -2.383  12.330  23.263  0.00  0.00    +0.000 C 
ATOM     26  C   UNL     1      -1.900  13.544  23.542  0.00  0.00    +0.000 C 
ATOM     27  C   UNL     1      -0.655  14.040  22.933  0.00  0.00    +0.000 C 
ATOM     28  O   UNL     1      -0.124  15.067  23.335  0.00  0.00    +0.000 OA
ATOM     29  O   UNL     1      -0.102  13.268  21.961  0.00  0.00    +0.000 OA
BRANCH  25  30
ATOM     30  O   UNL     1      -3.527  11.881  23.899  0.00  0.00    +0.000 OA
ATOM     31  C   UNL     1      -4.229  12.866  24.658  0.00  0.00    +0.000 C 
ENDBRANCH  25  30
ENDBRANCH  21  23
ENDBRANCH  20  21
ENDBRANCH  18  20
ENDBRANCH  17  18
ENDBRANCH   2  17
TORSDOF 13
ENDMDL
MODEL 6
REMARK VINA RESULT:      -6.8      2.300      3.788
REMARK  Name = 
REMARK  19 active torsions:
REMARK  status: ('A' for Active; 'I' for Inactive)
REMARK    1  A    between atoms: C_1  and  C_2
REMARK    2  A    between atoms: C_2  and  C_3
REMARK    3  A    between atoms: N_5  and  C_6
REMARK    4  A    between atoms: N_5  and  C_7
REMARK    5  A    between atoms: C_7  and  C_8
REMARK    6  A    between atoms: C_8  and  C_9
REMARK    7  A    between atoms: C_9  and  C_10
REMARK    8  A    between atoms: C_10  and  C_13
REMARK    9  A    between atoms: C_13  and  C_14
REMARK   10  A    between atoms: C_15  and  C_16
REMARK   11  A    between atoms: C_15  and  C_17
REMARK   12  A    between atoms: C_17  and  C_18
REMARK   13  A    between atoms: C_18  and  C_19
REMARK   14  A    between atoms: C_18  and  C_20
REMARK   15  A    between atoms: C_20  and  C_21
REMARK   16  A    between atoms: C_21  and  C_22
REMARK   17  A    between atoms: C_21  and  C_23
REMARK   18  A    between atoms: C_25  and  O_26
REMARK   19  A    between atoms: O_26  and  C_27
REMARK                            x       y       z     vdW  Elec       q    Type
REMARK                         _______ _______ _______ _____ _____    ______ ____
ROOT
ATOM      1  C   UNL     1       1.993   7.283  19.181  0.00  0.00    +0.000 C 
ATOM      2  C   UNL     1       2.288   8.128  18.171  0.00  0.00    +0.000 C 
ATOM      3  C   UNL     1       3.560   8.058  17.376  0.00  0.00    +0.000 C 
ENDROOT
BRANCH   1   4
ATOM      4  C   UNL     1       2.821   6.126  19.651  0.00  0.00    +0.000 C 
BRANCH   4   5
ATOM      5  C   UNL     1       2.045   4.832  19.872  0.00  0.00    +0.000 C 
ATOM      6  C   UNL     1       1.963   4.263  21.089  0.00  0.00    +0.000 C 
ATOM      7 CL   UNL     1       1.366   2.708  21.476  0.00  0.00    +0.000 Cl
BRANCH   5   8
ATOM      8  C   UNL     1       1.499   4.256  18.584  0.00  0.00    +0.000 C 
BRANCH   8   9
ATOM      9  C   UNL     1       2.507   4.038  17.437  0.00  0.00    +0.000 C 
BRANCH   9  10
ATOM     10  C   UNL     1       3.807   3.372  17.882  0.00  0.00    +0.000 C 
BRANCH  10  13
ATOM     11  C   UNL     1       5.927   4.480  18.329  0.00  0.00    +0.000 C 
ATOM     12  O   UNL     1       5.783   4.267  19.534  0.00  0.00    +0.000 OA
ATOM     13  N   UNL     1       4.998   4.054  17.386  0.00  0.00    +0.000 N 
ATOM     14  C   UNL     1       5.108   4.213  15.944  0.00  0.00    +0.000 C 
BRANCH  11  16
ATOM     15  C   UNL     1       7.809   6.048  18.897  0.00  0.00    +0.000 C 
ATOM     16  C   UNL     1       7.138   5.219  17.808  0.00  0.00    +0.000 C 
ENDBRANCH  11  16
ENDBRANCH  10  13
ENDBRANCH   9  10
ENDBRANCH   8   9
ENDBRANCH   5   8
ENDBRANCH   4   5
ENDBRANCH   1   4
BRANCH   2  17
ATOM     17  C   UNL     1       1.275   9.199  17.814  0.00  0.00    +0.000 C 
BRANCH  17  18
ATOM     18  C   UNL     1       0.456   9.794  18.979  0.00  0.00    +0.000 C 
ATOM     19  C   UNL     1       1.244   9.790  20.302  0.00  0.00    +0.000 C 
BRANCH  18  20
ATOM     20  C   UNL     1      -0.016  11.236  18.669  0.00  0.00    +0.000 C 
BRANCH  20  21
ATOM     21  C   UNL     1      -1.301  11.708  19.398  0.00  0.00    +0.000 C 
ATOM     22  C   UNL     1      -1.056  12.981  20.212  0.00  0.00    +0.000 C 
BRANCH  21  23
ATOM     23  C   UNL     1      -2.503  11.884  18.434  0.00  0.00    +0.000 C 
ATOM     24  C   UNL     1      -2.382  11.080  17.139  0.00  0.00    +0.000 C 
ATOM     25  C   UNL     1      -3.665  11.179  16.372  0.00  0.00    +0.000 C 
ATOM     26  C   UNL     1      -4.814  11.442  17.000  0.00  0.00    +0.000 C 
ATOM     27  C   UNL     1      -4.887  11.550  18.467  0.00  0.00    +0.000 C 
ATOM     28  O   UNL     1      -5.967  11.602  19.040  0.00  0.00    +0.000 OA
ATOM     29  O   UNL     1      -3.707  11.520  19.140  0.00  0.00    +0.000 OA
BRANCH  25  30
ATOM     30  O   UNL     1      -3.650  11.032  14.996  0.00  0.00    +0.000 OA
ATOM     31  C   UNL     1      -2.826   9.974  14.506  0.00  0.00    +0.000 C 
ENDBRANCH  25  30
ENDBRANCH  21  23
ENDBRANCH  20  21
ENDBRANCH  18  20
ENDBRANCH  17  18
ENDBRANCH   2  17
TORSDOF 13
ENDMDL
MODEL 7
REMARK VINA RESULT:      -6.7      1.440      2.157
REMARK  Name = 
REMARK  19 active torsions:
REMARK  status: ('A' for Active; 'I' for Inactive)
REMARK    1  A    between atoms: C_1  and  C_2
REMARK    2  A    between atoms: C_2  and  C_3
REMARK    3  A    between atoms: N_5  and  C_6
REMARK    4  A    between atoms: N_5  and  C_7
REMARK    5  A    between atoms: C_7  and  C_8
REMARK    6  A    between atoms: C_8  and  C_9
REMARK    7  A    between atoms: C_9  and  C_10
REMARK    8  A    between atoms: C_10  and  C_13
REMARK    9  A    between atoms: C_13  and  C_14
REMARK   10  A    between atoms: C_15  and  C_16
REMARK   11  A    between atoms: C_15  and  C_17
REMARK   12  A    between atoms: C_17  and  C_18
REMARK   13  A    between atoms: C_18  and  C_19
REMARK   14  A    between atoms: C_18  and  C_20
REMARK   15  A    between atoms: C_20  and  C_21
REMARK   16  A    between atoms: C_21  and  C_22
REMARK   17  A    between atoms: C_21  and  C_23
REMARK   18  A    between atoms: C_25  and  O_26
REMARK   19  A    between atoms: O_26  and  C_27
REMARK                            x       y       z     vdW  Elec       q    Type
REMARK                         _______ _______ _______ _____ _____    ______ ____
ROOT
ATOM      1  C   UNL     1       2.177   7.370  19.685  0.00  0.00    +0.000 C 
ATOM      2  C   UNL     1       1.686   8.582  19.353  0.00  0.00    +0.000 C 
ATOM      3  C   UNL     1       1.482   9.035  17.937  0.00  0.00    +0.000 C 
ENDROOT
BRANCH   1   4
ATOM      4  C   UNL     1       2.551   6.267  18.742  0.00  0.00    +0.000 C 
BRANCH   4   5
ATOM      5  C   UNL     1       2.110   4.874  19.179  0.00  0.00    +0.000 C 
ATOM      6  C   UNL     1       1.510   4.670  20.366  0.00  0.00    +0.000 C 
ATOM      7 CL   UNL     1       1.182   3.173  21.127  0.00  0.00    +0.000 Cl
BRANCH   5   8
ATOM      8  C   UNL     1       2.513   3.801  18.192  0.00  0.00    +0.000 C 
BRANCH   8   9
ATOM      9  C   UNL     1       3.470   4.223  17.057  0.00  0.00    +0.000 C 
BRANCH   9  10
ATOM     10  C   UNL     1       4.780   3.439  17.038  0.00  0.00    +0.000 C 
BRANCH  10  13
ATOM     11  C   UNL     1       6.466   4.791  18.156  0.00  0.00    +0.000 C 
ATOM     12  O   UNL     1       5.977   4.498  19.248  0.00  0.00    +0.000 OA
ATOM     13  N   UNL     1       5.957   4.298  16.959  0.00  0.00    +0.000 N 
ATOM     14  C   UNL     1       6.499   4.546  15.632  0.00  0.00    +0.000 C 
BRANCH  11  16
ATOM     15  C   UNL     1       7.264   7.122  17.650  0.00  0.00    +0.000 C 
ATOM     16  C   UNL     1       7.663   5.710  18.061  0.00  0.00    +0.000 C 
ENDBRANCH  11  16
ENDBRANCH  10  13
ENDBRANCH   9  10
ENDBRANCH   8   9
ENDBRANCH   5   8
ENDBRANCH   4   5
ENDBRANCH   1   4
BRANCH   2  17
ATOM     17  C   UNL     1       1.309   9.532  20.474  0.00  0.00    +0.000 C 
BRANCH  17  18
ATOM     18  C   UNL     1      -0.183   9.582  20.867  0.00  0.00    +0.000 C 
ATOM     19  C   UNL     1      -0.416   9.113  22.315  0.00  0.00    +0.000 C 
BRANCH  18  20
ATOM     20  C   UNL     1      -0.774  11.003  20.687  0.00  0.00    +0.000 C 
BRANCH  20  21
ATOM     21  C   UNL     1      -0.447  12.028  21.804  0.00  0.00    +0.000 C 
ATOM     22  C   UNL     1       0.572  13.070  21.338  0.00  0.00    +0.000 C 
BRANCH  21  23
ATOM     23  C   UNL     1      -1.717  12.707  22.380  0.00  0.00    +0.000 C 
ATOM     24  C   UNL     1      -2.534  11.808  23.309  0.00  0.00    +0.000 C 
ATOM     25  C   UNL     1      -3.626  12.613  23.944  0.00  0.00    +0.000 C 
ATOM     26  C   UNL     1      -3.504  13.936  24.080  0.00  0.00    +0.000 C 
ATOM     27  C   UNL     1      -2.268  14.641  23.703  0.00  0.00    +0.000 C 
ATOM     28  O   UNL     1      -2.097  15.815  24.005  0.00  0.00    +0.000 OA
ATOM     29  O   UNL     1      -1.315  13.907  23.072  0.00  0.00    +0.000 OA
BRANCH  25  30
ATOM     30  O   UNL     1      -4.785  11.982  24.361  0.00  0.00    +0.000 OA
ATOM     31  C   UNL     1      -5.983  12.743  24.204  0.00  0.00    +0.000 C 
ENDBRANCH  25  30
ENDBRANCH  21  23
ENDBRANCH  20  21
ENDBRANCH  18  20
ENDBRANCH  17  18
ENDBRANCH   2  17
TORSDOF 13
ENDMDL
MODEL 8
REMARK VINA RESULT:      -6.7      2.462      3.535
REMARK  Name = 
REMARK  19 active torsions:
REMARK  status: ('A' for Active; 'I' for Inactive)
REMARK    1  A    between atoms: C_1  and  C_2
REMARK    2  A    between atoms: C_2  and  C_3
REMARK    3  A    between atoms: N_5  and  C_6
REMARK    4  A    between atoms: N_5  and  C_7
REMARK    5  A    between atoms: C_7  and  C_8
REMARK    6  A    between atoms: C_8  and  C_9
REMARK    7  A    between atoms: C_9  and  C_10
REMARK    8  A    between atoms: C_10  and  C_13
REMARK    9  A    between atoms: C_13  and  C_14
REMARK   10  A    between atoms: C_15  and  C_16
REMARK   11  A    between atoms: C_15  and  C_17
REMARK   12  A    between atoms: C_17  and  C_18
REMARK   13  A    between atoms: C_18  and  C_19
REMARK   14  A    between atoms: C_18  and  C_20
REMARK   15  A    between atoms: C_20  and  C_21
REMARK   16  A    between atoms: C_21  and  C_22
REMARK   17  A    between atoms: C_21  and  C_23
REMARK   18  A    between atoms: C_25  and  O_26
REMARK   19  A    between atoms: O_26  and  C_27
REMARK                            x       y       z     vdW  Elec       q    Type
REMARK                         _______ _______ _______ _____ _____    ______ ____
ROOT
ATOM      1  C   UNL     1       1.976   7.674  19.903  0.00  0.00    +0.000 C 
ATOM      2  C   UNL     1       1.519   8.522  18.959  0.00  0.00    +0.000 C 
ATOM      3  C   UNL     1       1.915   8.446  17.513  0.00  0.00    +0.000 C 
ENDROOT
BRANCH   1   4
ATOM      4  C   UNL     1       2.891   6.507  19.690  0.00  0.00    +0.000 C 
BRANCH   4   5
ATOM      5  C   UNL     1       2.243   5.141  19.889  0.00  0.00    +0.000 C 
ATOM      6  C   UNL     1       2.210   4.552  21.099  0.00  0.00    +0.000 C 
ATOM      7 CL   UNL     1       1.763   2.940  21.463  0.00  0.00    +0.000 Cl
BRANCH   5   8
ATOM      8  C   UNL     1       1.763   4.531  18.591  0.00  0.00    +0.000 C 
BRANCH   8   9
ATOM      9  C   UNL     1       2.814   4.353  17.475  0.00  0.00    +0.000 C 
BRANCH   9  10
ATOM     10  C   UNL     1       4.057   3.587  17.921  0.00  0.00    +0.000 C 
BRANCH  10  13
ATOM     11  C   UNL     1       6.205   4.679  18.259  0.00  0.00    +0.000 C 
ATOM     12  O   UNL     1       6.011   4.684  19.475  0.00  0.00    +0.000 OA
ATOM     13  N   UNL     1       5.292   4.130  17.365  0.00  0.00    +0.000 N 
ATOM     14  C   UNL     1       5.460   4.032  15.923  0.00  0.00    +0.000 C 
BRANCH  11  16
ATOM     15  C   UNL     1       7.527   6.782  17.865  0.00  0.00    +0.000 C 
ATOM     16  C   UNL     1       7.465   5.272  17.670  0.00  0.00    +0.000 C 
ENDBRANCH  11  16
ENDBRANCH  10  13
ENDBRANCH   9  10
ENDBRANCH   8   9
ENDBRANCH   5   8
ENDBRANCH   4   5
ENDBRANCH   1   4
BRANCH   2  17
ATOM     17  C   UNL     1       0.543   9.604  19.381  0.00  0.00    +0.000 C 
BRANCH  17  18
ATOM     18  C   UNL     1       1.028  11.064  19.250  0.00  0.00    +0.000 C 
ATOM     19  C   UNL     1       2.224  11.192  18.289  0.00  0.00    +0.000 C 
BRANCH  18  20
ATOM     20  C   UNL     1      -0.110  12.005  18.781  0.00  0.00    +0.000 C 
BRANCH  20  21
ATOM     21  C   UNL     1      -1.483  11.821  19.478  0.00  0.00    +0.000 C 
ATOM     22  C   UNL     1      -1.976  13.123  20.113  0.00  0.00    +0.000 C 
BRANCH  21  23
ATOM     23  C   UNL     1      -2.555  11.219  18.533  0.00  0.00    +0.000 C 
ATOM     24  C   UNL     1      -3.943  11.837  18.696  0.00  0.00    +0.000 C 
ATOM     25  C   UNL     1      -4.848  11.317  17.622  0.00  0.00    +0.000 C 
ATOM     26  C   UNL     1      -4.346  10.869  16.468  0.00  0.00    +0.000 C 
ATOM     27  C   UNL     1      -2.908  10.954  16.166  0.00  0.00    +0.000 C 
ATOM     28  O   UNL     1      -2.487  10.719  15.041  0.00  0.00    +0.000 OA
ATOM     29  O   UNL     1      -2.096  11.370  17.173  0.00  0.00    +0.000 OA
BRANCH  25  30
ATOM     30  O   UNL     1      -6.213  11.267  17.845  0.00  0.00    +0.000 OA
ATOM     31  C   UNL     1      -6.858  12.536  17.959  0.00  0.00    +0.000 C 
ENDBRANCH  25  30
ENDBRANCH  21  23
ENDBRANCH  20  21
ENDBRANCH  18  20
ENDBRANCH  17  18
ENDBRANCH   2  17
TORSDOF 13
ENDMDL
MODEL 9
REMARK VINA RESULT:      -6.6      2.897      9.766
REMARK  Name = 
REMARK  19 active torsions:
REMARK  status: ('A' for Active; 'I' for Inactive)
REMARK    1  A    between atoms: C_1  and  C_2
REMARK    2  A    between atoms: C_2  and  C_3
REMARK    3  A    between atoms: N_5  and  C_6
REMARK    4  A    between atoms: N_5  and  C_7
REMARK    5  A    between atoms: C_7  and  C_8
REMARK    6  A    between atoms: C_8  and  C_9
REMARK    7  A    between atoms: C_9  and  C_10
REMARK    8  A    between atoms: C_10  and  C_13
REMARK    9  A    between atoms: C_13  and  C_14
REMARK   10  A    between atoms: C_15  and  C_16
REMARK   11  A    between atoms: C_15  and  C_17
REMARK   12  A    between atoms: C_17  and  C_18
REMARK   13  A    between atoms: C_18  and  C_19
REMARK   14  A    between atoms: C_18  and  C_20
REMARK   15  A    between atoms: C_20  and  C_21
REMARK   16  A    between atoms: C_21  and  C_22
REMARK   17  A    between atoms: C_21  and  C_23
REMARK   18  A    between atoms: C_25  and  O_26
REMARK   19  A    between atoms: O_26  and  C_27
REMARK                            x       y       z     vdW  Elec       q    Type
REMARK                         _______ _______ _______ _____ _____    ______ ____
ROOT
ATOM      1  C   UNL     1       2.320   4.854  20.979  0.00  0.00    +0.000 C 
ATOM      2  C   UNL     1       1.740   3.698  20.594  0.00  0.00    +0.000 C 
ATOM      3  C   UNL     1       0.340   3.611  20.058  0.00  0.00    +0.000 C 
ENDROOT
BRANCH   1   4
ATOM      4  C   UNL     1       1.721   6.226  20.900  0.00  0.00    +0.000 C 
BRANCH   4   5
ATOM      5  C   UNL     1       2.175   7.054  19.703  0.00  0.00    +0.000 C 
ATOM      6  C   UNL     1       3.010   6.547  18.778  0.00  0.00    +0.000 C 
ATOM      7 CL   UNL     1       3.818   7.391  17.527  0.00  0.00    +0.000 Cl
BRANCH   5   8
ATOM      8  C   UNL     1       1.666   8.477  19.755  0.00  0.00    +0.000 C 
BRANCH   8   9
ATOM      9  C   UNL     1       0.980   8.924  21.064  0.00  0.00    +0.000 C 
BRANCH   9  10
ATOM     10  C   UNL     1      -0.336   9.665  20.842  0.00  0.00    +0.000 C 
BRANCH  10  13
ATOM     11  C   UNL     1      -0.083  12.068  21.134  0.00  0.00    +0.000 C 
ATOM     12  O   UNL     1       0.328  12.165  19.977  0.00  0.00    +0.000 OA
ATOM     13  N   UNL     1      -0.471  10.851  21.683  0.00  0.00    +0.000 N 
ATOM     14  C   UNL     1      -1.017  10.648  23.017  0.00  0.00    +0.000 C 
BRANCH  11  16
ATOM     15  C   UNL     1      -1.348  14.188  21.615  0.00  0.00    +0.000 C 
ATOM     16  C   UNL     1      -0.192  13.284  22.026  0.00  0.00    +0.000 C 
ENDBRANCH  11  16
ENDBRANCH  10  13
ENDBRANCH   9  10
ENDBRANCH   8   9
ENDBRANCH   5   8
ENDBRANCH   4   5
ENDBRANCH   1   4
BRANCH   2  17
ATOM     17  C   UNL     1       2.551   2.420  20.699  0.00  0.00    +0.000 C 
BRANCH  17  18
ATOM     18  C   UNL     1       3.882   2.380  19.921  0.00  0.00    +0.000 C 
ATOM     19  C   UNL     1       4.971   1.595  20.676  0.00  0.00    +0.000 C 
BRANCH  18  20
ATOM     20  C   UNL     1       3.700   1.772  18.507  0.00  0.00    +0.000 C 
BRANCH  20  21
ATOM     21  C   UNL     1       3.838   2.755  17.316  0.00  0.00    +0.000 C 
ATOM     22  C   UNL     1       2.688   3.763  17.275  0.00  0.00    +0.000 C 
BRANCH  21  23
ATOM     23  C   UNL     1       5.212   3.475  17.293  0.00  0.00    +0.000 C 
ATOM     24  C   UNL     1       5.430   4.357  16.063  0.00  0.00    +0.000 C 
ATOM     25  C   UNL     1       6.697   5.137  16.231  0.00  0.00    +0.000 C 
ATOM     26  C   UNL     1       7.179   5.399  17.449  0.00  0.00    +0.000 C 
ATOM     27  C   UNL     1       6.446   5.019  18.668  0.00  0.00    +0.000 C 
ATOM     28  O   UNL     1       6.799   5.428  19.767  0.00  0.00    +0.000 OA
ATOM     29  O   UNL     1       5.333   4.259  18.499  0.00  0.00    +0.000 OA
BRANCH  25  30
ATOM     30  O   UNL     1       7.392   5.559  15.111  0.00  0.00    +0.000 OA
ATOM     31  C   UNL     1       7.160   4.795  13.927  0.00  0.00    +0.000 C 
ENDBRANCH  25  30
ENDBRANCH  21  23
ENDBRANCH  20  21
ENDBRANCH  18  20
ENDBRANCH  17  18
ENDBRANCH   2  17
TORSDOF 13
ENDMDL
