MODEL 1
REMARK VINA RESULT:      -8.3      0.000      0.000
REMARK  Name = 
REMARK  6 active torsions:
REMARK  status: ('A' for Active; 'I' for Inactive)
REMARK    1  A    between atoms: C_7  and  N_8
REMARK    2  A    between atoms: N_8  and  C_9
REMARK    3  A    between atoms: C_9  and  C_10
REMARK    4  A    between atoms: C_10  and  C_11
REMARK    5  A    between atoms: C_11  and  N_12
REMARK    6  A    between atoms: N_12  and  C_13
REMARK                            x       y       z     vdW  Elec       q    Type
REMARK                         _______ _______ _______ _____ _____    ______ ____
ROOT
ATOM      1  C   UNL     1       0.814   3.391  19.616  0.00  0.00    +0.000 A 
ATOM      2  C   UNL     1       1.261   4.353  20.520  0.00  0.00    +0.000 A 
ATOM      3  C   UNL     1       2.521   4.929  20.363  0.00  0.00    +0.000 A 
ATOM      4  C   UNL     1       3.335   4.587  19.273  0.00  0.00    +0.000 A 
ATOM      5  C   UNL     1       4.558   5.235  19.030  0.00  0.00    +0.000 A 
ATOM      6  C   UNL     1       5.290   5.014  17.837  0.00  0.00    +0.000 A 
ATOM      7  C   UNL     1       6.411   5.789  17.418  0.00  0.00    +0.000 A 
ATOM      8  C   UNL     1       7.047   5.416  16.224  0.00  0.00    +0.000 A 
ATOM      9  C   UNL     1       6.529   4.386  15.465  0.00  0.00    +0.000 A 
ATOM     10  N   UNL     1       5.445   3.680  15.812  0.00  0.00    +0.000 NA
ATOM     11  C   UNL     1       4.838   3.993  16.962  0.00  0.00    +0.000 A 
ATOM     12  C   UNL     1       3.678   3.299  17.255  0.00  0.00    +0.000 A 
ATOM     13  C   UNL     1       2.884   3.613  18.363  0.00  0.00    +0.000 A 
ATOM     14  C   UNL     1       1.633   3.006  18.553  0.00  0.00    +0.000 A 
ENDROOT
BRANCH   7  15
ATOM     15  N   UNL     1       6.919   6.870  18.207  0.00  0.00    +0.000 N 
ATOM     16  H   UNL     1       6.156   7.421  18.591  0.00  0.00    +0.000 HD
BRANCH  15  17
ATOM     17  C   UNL     1       7.881   7.721  17.499  0.00  0.00    +0.000 C 
BRANCH  17  18
ATOM     18  C   UNL     1       7.717   9.218  17.774  0.00  0.00    +0.000 C 
BRANCH  18  19
ATOM     19  C   UNL     1       8.889   9.605  18.688  0.00  0.00    +0.000 C 
BRANCH  19  20
ATOM     20  N   UNL     1       9.704  10.723  18.217  0.00  0.00    +0.000 NA
ATOM     21  H   UNL     1       9.372  11.013  17.296  0.00  0.00    +0.000 HD
BRANCH  20  22
ATOM     22  C   UNL     1       9.599  11.879  19.143  0.00  0.00    +0.000 C 
ATOM     23  C   UNL     1      10.570  11.792  20.343  0.00  0.00    +0.000 C 
ATOM     24  C   UNL     1      12.031  11.942  19.925  0.00  0.00    +0.000 C 
ATOM     25  C   UNL     1      12.245  13.266  19.200  0.00  0.00    +0.000 C 
ATOM     26  C   UNL     1      11.318  13.397  17.995  0.00  0.00    +0.000 C 
ATOM     27  C   UNL     1       9.853  13.194  18.384  0.00  0.00    +0.000 C 
ENDBRANCH  20  22
ENDBRANCH  19  20
ENDBRANCH  18  19
ENDBRANCH  17  18
ENDBRANCH  15  17
ENDBRANCH   7  15
TORSDOF 6
ENDMDL
MODEL 2
REMARK VINA RESULT:      -8.1      0.748      1.250
REMARK  Name = 
REMARK  6 active torsions:
REMARK  status: ('A' for Active; 'I' for Inactive)
REMARK    1  A    between atoms: C_7  and  N_8
REMARK    2  A    between atoms: N_8  and  C_9
REMARK    3  A    between atoms: C_9  and  C_10
REMARK    4  A    between atoms: C_10  and  C_11
REMARK    5  A    between atoms: C_11  and  N_12
REMARK    6  A    between atoms: N_12  and  C_13
REMARK                            x       y       z     vdW  Elec       q    Type
REMARK                         _______ _______ _______ _____ _____    ______ ____
ROOT
ATOM      1  C   UNL     1       0.949   2.873  19.691  0.00  0.00    +0.000 A 
ATOM      2  C   UNL     1       1.190   4.000  20.474  0.00  0.00    +0.000 A 
ATOM      3  C   UNL     1       2.337   4.764  20.267  0.00  0.00    +0.000 A 
ATOM      4  C   UNL     1       3.239   4.442  19.241  0.00  0.00    +0.000 A 
ATOM      5  C   UNL     1       4.341   5.260  18.939  0.00  0.00    +0.000 A 
ATOM      6  C   UNL     1       5.144   5.028  17.795  0.00  0.00    +0.000 A 
ATOM      7  C   UNL     1       6.131   5.931  17.300  0.00  0.00    +0.000 A 
ATOM      8  C   UNL     1       6.866   5.533  16.173  0.00  0.00    +0.000 A 
ATOM      9  C   UNL     1       6.562   4.345  15.541  0.00  0.00    +0.000 A 
ATOM     10  N   UNL     1       5.603   3.507  15.956  0.00  0.00    +0.000 NA
ATOM     11  C   UNL     1       4.908   3.846  17.048  0.00  0.00    +0.000 A 
ATOM     12  C   UNL     1       3.874   2.999  17.407  0.00  0.00    +0.000 A 
ATOM     13  C   UNL     1       2.996   3.301  18.453  0.00  0.00    +0.000 A 
ATOM     14  C   UNL     1       1.862   2.512  18.698  0.00  0.00    +0.000 A 
ENDROOT
BRANCH   7  15
ATOM     15  N   UNL     1       6.415   7.171  17.956  0.00  0.00    +0.000 N 
ATOM     16  H   UNL     1       5.584   7.755  17.991  0.00  0.00    +0.000 HD
BRANCH  15  17
ATOM     17  C   UNL     1       7.549   7.901  17.380  0.00  0.00    +0.000 C 
BRANCH  17  18
ATOM     18  C   UNL     1       8.547   8.429  18.414  0.00  0.00    +0.000 C 
BRANCH  18  19
ATOM     19  C   UNL     1       8.543   9.957  18.254  0.00  0.00    +0.000 C 
BRANCH  19  20
ATOM     20  N   UNL     1       9.549  10.668  19.042  0.00  0.00    +0.000 NA
ATOM     21  H   UNL     1      10.080   9.991  19.593  0.00  0.00    +0.000 HD
BRANCH  20  22
ATOM     22  C   UNL     1      10.489  11.400  18.158  0.00  0.00    +0.000 C 
ATOM     23  C   UNL     1       9.895  12.704  17.579  0.00  0.00    +0.000 C 
ATOM     24  C   UNL     1       9.678  13.773  18.648  0.00  0.00    +0.000 C 
ATOM     25  C   UNL     1      10.989  14.091  19.359  0.00  0.00    +0.000 C 
ATOM     26  C   UNL     1      11.612  12.835  19.963  0.00  0.00    +0.000 C 
ATOM     27  C   UNL     1      11.787  11.732  18.918  0.00  0.00    +0.000 C 
ENDBRANCH  20  22
ENDBRANCH  19  20
ENDBRANCH  18  19
ENDBRANCH  17  18
ENDBRANCH  15  17
ENDBRANCH   7  15
TORSDOF 6
ENDMDL
MODEL 3
REMARK VINA RESULT:      -8.0      4.797      8.257
REMARK  Name = 
REMARK  6 active torsions:
REMARK  status: ('A' for Active; 'I' for Inactive)
REMARK    1  A    between atoms: C_7  and  N_8
REMARK    2  A    between atoms: N_8  and  C_9
REMARK    3  A    between atoms: C_9  and  C_10
REMARK    4  A    between atoms: C_10  and  C_11
REMARK    5  A    between atoms: C_11  and  N_12
REMARK    6  A    between atoms: N_12  and  C_13
REMARK                            x       y       z     vdW  Elec       q    Type
REMARK                         _______ _______ _______ _____ _____    ______ ____
ROOT
ATOM      1  C   UNL     1       6.856   4.882  15.810  0.00  0.00    +0.000 A 
ATOM      2  C   UNL     1       6.983   6.072  16.522  0.00  0.00    +0.000 A 
ATOM      3  C   UNL     1       5.984   6.465  17.411  0.00  0.00    +0.000 A 
ATOM      4  C   UNL     1       4.864   5.651  17.637  0.00  0.00    +0.000 A 
ATOM      5  C   UNL     1       3.901   5.970  18.610  0.00  0.00    +0.000 A 
ATOM      6  C   UNL     1       2.870   5.061  18.958  0.00  0.00    +0.000 A 
ATOM      7  C   UNL     1       1.999   5.213  20.076  0.00  0.00    +0.000 A 
ATOM      8  C   UNL     1       1.006   4.239  20.261  0.00  0.00    +0.000 A 
ATOM      9  C   UNL     1       0.957   3.144  19.423  0.00  0.00    +0.000 A 
ATOM     10  N   UNL     1       1.799   2.953  18.399  0.00  0.00    +0.000 NA
ATOM     11  C   UNL     1       2.736   3.883  18.180  0.00  0.00    +0.000 A 
ATOM     12  C   UNL     1       3.638   3.621  17.165  0.00  0.00    +0.000 A 
ATOM     13  C   UNL     1       4.735   4.451  16.914  0.00  0.00    +0.000 A 
ATOM     14  C   UNL     1       5.724   4.085  15.988  0.00  0.00    +0.000 A 
ENDROOT
BRANCH   7  15
ATOM     15  N   UNL     1       2.082   6.344  20.950  0.00  0.00    +0.000 N 
ATOM     16  H   UNL     1       2.306   6.050  21.896  0.00  0.00    +0.000 HD
BRANCH  15  17
ATOM     17  C   UNL     1       0.889   7.197  20.930  0.00  0.00    +0.000 C 
BRANCH  17  18
ATOM     18  C   UNL     1       1.163   8.669  21.246  0.00  0.00    +0.000 C 
BRANCH  18  19
ATOM     19  C   UNL     1       0.876   9.435  19.945  0.00  0.00    +0.000 C 
BRANCH  19  20
ATOM     20  N   UNL     1      -0.350  10.233  19.949  0.00  0.00    +0.000 NA
ATOM     21  H   UNL     1      -0.295  10.922  20.701  0.00  0.00    +0.000 HD
BRANCH  20  22
ATOM     22  C   UNL     1      -0.515  10.950  18.661  0.00  0.00    +0.000 C 
ATOM     23  C   UNL     1      -1.200  10.097  17.569  0.00  0.00    +0.000 C 
ATOM     24  C   UNL     1      -2.667   9.812  17.883  0.00  0.00    +0.000 C 
ATOM     25  C   UNL     1      -3.438  11.115  18.060  0.00  0.00    +0.000 C 
ATOM     26  C   UNL     1      -2.810  11.992  19.140  0.00  0.00    +0.000 C 
ATOM     27  C   UNL     1      -1.325  12.243  18.871  0.00  0.00    +0.000 C 
ENDBRANCH  20  22
ENDBRANCH  19  20
ENDBRANCH  18  19
ENDBRANCH  17  18
ENDBRANCH  15  17
ENDBRANCH   7  15
TORSDOF 6
ENDMDL
MODEL 4
REMARK VINA RESULT:      -7.9      0.992      1.410
REMARK  Name = 
REMARK  6 active torsions:
REMARK  status: ('A' for Active; 'I' for Inactive)
REMARK    1  A    between atoms: C_7  and  N_8
REMARK    2  A    between atoms: N_8  and  C_9
REMARK    3  A    between atoms: C_9  and  C_10
REMARK    4  A    between atoms: C_10  and  C_11
REMARK    5  A    between atoms: C_11  and  N_12
REMARK    6  A    between atoms: N_12  and  C_13
REMARK                            x       y       z     vdW  Elec       q    Type
REMARK                         _______ _______ _______ _____ _____    ______ ____
ROOT
ATOM      1  C   UNL     1       0.929   3.019  19.090  0.00  0.00    +0.000 A 
ATOM      2  C   UNL     1       1.075   4.201  19.811  0.00  0.00    +0.000 A 
ATOM      3  C   UNL     1       2.202   4.999  19.625  0.00  0.00    +0.000 A 
ATOM      4  C   UNL     1       3.181   4.651  18.682  0.00  0.00    +0.000 A 
ATOM      5  C   UNL     1       4.268   5.494  18.396  0.00  0.00    +0.000 A 
ATOM      6  C   UNL     1       5.153   5.225  17.322  0.00  0.00    +0.000 A 
ATOM      7  C   UNL     1       6.135   6.136  16.832  0.00  0.00    +0.000 A 
ATOM      8  C   UNL     1       6.957   5.699  15.782  0.00  0.00    +0.000 A 
ATOM      9  C   UNL     1       6.740   4.462  15.212  0.00  0.00    +0.000 A 
ATOM     10  N   UNL     1       5.788   3.611  15.620  0.00  0.00    +0.000 NA
ATOM     11  C   UNL     1       5.011   3.989  16.642  0.00  0.00    +0.000 A 
ATOM     12  C   UNL     1       3.989   3.124  16.990  0.00  0.00    +0.000 A 
ATOM     13  C   UNL     1       3.034   3.454  17.957  0.00  0.00    +0.000 A 
ATOM     14  C   UNL     1       1.917   2.634  18.182  0.00  0.00    +0.000 A 
ENDROOT
BRANCH   7  15
ATOM     15  N   UNL     1       6.327   7.426  17.422  0.00  0.00    +0.000 N 
ATOM     16  H   UNL     1       5.908   8.149  16.844  0.00  0.00    +0.000 HD
BRANCH  15  17
ATOM     17  C   UNL     1       7.729   7.737  17.723  0.00  0.00    +0.000 C 
BRANCH  17  18
ATOM     18  C   UNL     1       8.064   9.230  17.681  0.00  0.00    +0.000 C 
BRANCH  18  19
ATOM     19  C   UNL     1       8.940   9.495  18.915  0.00  0.00    +0.000 C 
BRANCH  19  20
ATOM     20  N   UNL     1       9.597  10.801  18.944  0.00  0.00    +0.000 NA
ATOM     21  H   UNL     1       8.907  11.526  18.737  0.00  0.00    +0.000 HD
BRANCH  20  22
ATOM     22  C   UNL     1      10.176  11.070  20.284  0.00  0.00    +0.000 C 
ATOM     23  C   UNL     1      11.353  12.071  20.252  0.00  0.00    +0.000 C 
ATOM     24  C   UNL     1      10.909  13.485  19.887  0.00  0.00    +0.000 C 
ATOM     25  C   UNL     1       9.853  13.983  20.868  0.00  0.00    +0.000 C 
ATOM     26  C   UNL     1       8.659  13.035  20.928  0.00  0.00    +0.000 C 
ATOM     27  C   UNL     1       9.090  11.600  21.238  0.00  0.00    +0.000 C 
ENDBRANCH  20  22
ENDBRANCH  19  20
ENDBRANCH  18  19
ENDBRANCH  17  18
ENDBRANCH  15  17
ENDBRANCH   7  15
TORSDOF 6
ENDMDL
MODEL 5
REMARK VINA RESULT:      -7.8      3.411      5.795
REMARK  Name = 
REMARK  6 active torsions:
REMARK  status: ('A' for Active; 'I' for Inactive)
REMARK    1  A    between atoms: C_7  and  N_8
REMARK    2  A    between atoms: N_8  and  C_9
REMARK    3  A    between atoms: C_9  and  C_10
REMARK    4  A    between atoms: C_10  and  C_11
REMARK    5  A    between atoms: C_11  and  N_12
REMARK    6  A    between atoms: N_12  and  C_13
REMARK                            x       y       z     vdW  Elec       q    Type
REMARK                         _______ _______ _______ _____ _____    ______ ____
ROOT
ATOM      1  C   UNL     1       1.164   9.463  19.205  0.00  0.00    +0.000 A 
ATOM      2  C   UNL     1       2.000   9.304  18.102  0.00  0.00    +0.000 A 
ATOM      3  C   UNL     1       2.764   8.147  17.964  0.00  0.00    +0.000 A 
ATOM      4  C   UNL     1       2.670   7.109  18.903  0.00  0.00    +0.000 A 
ATOM      5  C   UNL     1       3.343   5.887  18.727  0.00  0.00    +0.000 A 
ATOM      6  C   UNL     1       3.107   4.781  19.581  0.00  0.00    +0.000 A 
ATOM      7  C   UNL     1       3.574   3.456  19.340  0.00  0.00    +0.000 A 
ATOM      8  C   UNL     1       3.283   2.480  20.305  0.00  0.00    +0.000 A 
ATOM      9  C   UNL     1       2.498   2.806  21.393  0.00  0.00    +0.000 A 
ATOM     10  N   UNL     1       2.003   4.031  21.612  0.00  0.00    +0.000 NA
ATOM     11  C   UNL     1       2.293   4.989  20.724  0.00  0.00    +0.000 A 
ATOM     12  C   UNL     1       1.705   6.223  20.936  0.00  0.00    +0.000 A 
ATOM     13  C   UNL     1       1.828   7.272  20.018  0.00  0.00    +0.000 A 
ATOM     14  C   UNL     1       1.096   8.459  20.172  0.00  0.00    +0.000 A 
ENDROOT
BRANCH   7  15
ATOM     15  N   UNL     1       4.366   3.133  18.192  0.00  0.00    +0.000 N 
ATOM     16  H   UNL     1       5.258   3.618  18.225  0.00  0.00    +0.000 HD
BRANCH  15  17
ATOM     17  C   UNL     1       3.683   3.368  16.915  0.00  0.00    +0.000 C 
BRANCH  17  18
ATOM     18  C   UNL     1       4.521   4.128  15.885  0.00  0.00    +0.000 C 
BRANCH  18  19
ATOM     19  C   UNL     1       5.986   3.809  16.222  0.00  0.00    +0.000 C 
BRANCH  19  20
ATOM     20  N   UNL     1       6.826   4.971  16.512  0.00  0.00    +0.000 NA
ATOM     21  H   UNL     1       6.941   5.520  15.658  0.00  0.00    +0.000 HD
BRANCH  20  22
ATOM     22  C   UNL     1       6.197   5.830  17.546  0.00  0.00    +0.000 C 
ATOM     23  C   UNL     1       6.768   5.598  18.963  0.00  0.00    +0.000 C 
ATOM     24  C   UNL     1       8.214   6.071  19.096  0.00  0.00    +0.000 C 
ATOM     25  C   UNL     1       8.327   7.550  18.744  0.00  0.00    +0.000 C 
ATOM     26  C   UNL     1       7.788   7.831  17.344  0.00  0.00    +0.000 C 
ATOM     27  C   UNL     1       6.358   7.315  17.174  0.00  0.00    +0.000 C 
ENDBRANCH  20  22
ENDBRANCH  19  20
ENDBRANCH  18  19
ENDBRANCH  17  18
ENDBRANCH  15  17
ENDBRANCH   7  15
TORSDOF 6
ENDMDL
MODEL 6
REMARK VINA RESULT:      -7.7      1.916      4.330
REMARK  Name = 
REMARK  6 active torsions:
REMARK  status: ('A' for Active; 'I' for Inactive)
REMARK    1  A    between atoms: C_7  and  N_8
REMARK    2  A    between atoms: N_8  and  C_9
REMARK    3  A    between atoms: C_9  and  C_10
REMARK    4  A    between atoms: C_10  and  C_11
REMARK    5  A    between atoms: C_11  and  N_12
REMARK    6  A    between atoms: N_12  and  C_13
REMARK                            x       y       z     vdW  Elec       q    Type
REMARK                         _______ _______ _______ _____ _____    ______ ____
ROOT
ATOM      1  C   UNL     1       6.325   3.568  12.136  0.00  0.00    +0.000 A 
ATOM      2  C   UNL     1       7.413   4.435  12.182  0.00  0.00    +0.000 A 
ATOM      3  C   UNL     1       7.676   5.167  13.339  0.00  0.00    +0.000 A 
ATOM      4  C   UNL     1       6.882   5.008  14.485  0.00  0.00    +0.000 A 
ATOM      5  C   UNL     1       7.193   5.647  15.697  0.00  0.00    +0.000 A 
ATOM      6  C   UNL     1       6.496   5.347  16.893  0.00  0.00    +0.000 A 
ATOM      7  C   UNL     1       6.892   5.780  18.193  0.00  0.00    +0.000 A 
ATOM      8  C   UNL     1       6.070   5.425  19.273  0.00  0.00    +0.000 A 
ATOM      9  C   UNL     1       4.973   4.615  19.061  0.00  0.00    +0.000 A 
ATOM     10  N   UNL     1       4.613   4.151  17.857  0.00  0.00    +0.000 NA
ATOM     11  C   UNL     1       5.361   4.502  16.804  0.00  0.00    +0.000 A 
ATOM     12  C   UNL     1       5.010   3.946  15.587  0.00  0.00    +0.000 A 
ATOM     13  C   UNL     1       5.780   4.134  14.435  0.00  0.00    +0.000 A 
ATOM     14  C   UNL     1       5.497   3.435  13.252  0.00  0.00    +0.000 A 
ENDROOT
BRANCH   7  15
ATOM     15  N   UNL     1       8.048   6.600  18.395  0.00  0.00    +0.000 N 
ATOM     16  H   UNL     1       8.352   6.556  19.363  0.00  0.00    +0.000 HD
BRANCH  15  17
ATOM     17  C   UNL     1       7.873   7.990  17.959  0.00  0.00    +0.000 C 
BRANCH  17  18
ATOM     18  C   UNL     1       8.744   8.999  18.711  0.00  0.00    +0.000 C 
BRANCH  18  19
ATOM     19  C   UNL     1       8.586  10.329  17.959  0.00  0.00    +0.000 C 
BRANCH  19  20
ATOM     20  N   UNL     1       9.228  11.482  18.589  0.00  0.00    +0.000 NA
ATOM     21  H   UNL     1       9.533  11.220  19.528  0.00  0.00    +0.000 HD
BRANCH  20  22
ATOM     22  C   UNL     1      10.413  11.916  17.810  0.00  0.00    +0.000 C 
ATOM     23  C   UNL     1      10.483  13.446  17.604  0.00  0.00    +0.000 C 
ATOM     24  C   UNL     1      10.754  14.200  18.904  0.00  0.00    +0.000 C 
ATOM     25  C   UNL     1      12.053  13.719  19.540  0.00  0.00    +0.000 C 
ATOM     26  C   UNL     1      12.030  12.211  19.778  0.00  0.00    +0.000 C 
ATOM     27  C   UNL     1      11.707  11.441  18.497  0.00  0.00    +0.000 C 
ENDBRANCH  20  22
ENDBRANCH  19  20
ENDBRANCH  18  19
ENDBRANCH  17  18
ENDBRANCH  15  17
ENDBRANCH   7  15
TORSDOF 6
ENDMDL
MODEL 7
REMARK VINA RESULT:      -7.7      5.247      7.955
REMARK  Name = 
REMARK  6 active torsions:
REMARK  status: ('A' for Active; 'I' for Inactive)
REMARK    1  A    between atoms: C_7  and  N_8
REMARK    2  A    between atoms: N_8  and  C_9
REMARK    3  A    between atoms: C_9  and  C_10
REMARK    4  A    between atoms: C_10  and  C_11
REMARK    5  A    between atoms: C_11  and  N_12
REMARK    6  A    between atoms: N_12  and  C_13
REMARK                            x       y       z     vdW  Elec       q    Type
REMARK                         _______ _______ _______ _____ _____    ______ ____
ROOT
ATOM      1  C   UNL     1       6.403   4.340  15.235  0.00  0.00    +0.000 A 
ATOM      2  C   UNL     1       6.287   5.728  15.224  0.00  0.00    +0.000 A 
ATOM      3  C   UNL     1       5.346   6.358  16.036  0.00  0.00    +0.000 A 
ATOM      4  C   UNL     1       4.536   5.614  16.907  0.00  0.00    +0.000 A 
ATOM      5  C   UNL     1       3.661   6.232  17.817  0.00  0.00    +0.000 A 
ATOM      6  C   UNL     1       2.980   5.489  18.812  0.00  0.00    +0.000 A 
ATOM      7  C   UNL     1       2.258   6.062  19.900  0.00  0.00    +0.000 A 
ATOM      8  C   UNL     1       1.609   5.185  20.781  0.00  0.00    +0.000 A 
ATOM      9  C   UNL     1       1.755   3.822  20.621  0.00  0.00    +0.000 A 
ATOM     10  N   UNL     1       2.473   3.261  19.639  0.00  0.00    +0.000 NA
ATOM     11  C   UNL     1       3.076   4.075  18.765  0.00  0.00    +0.000 A 
ATOM     12  C   UNL     1       3.872   3.470  17.809  0.00  0.00    +0.000 A 
ATOM     13  C   UNL     1       4.652   4.211  16.914  0.00  0.00    +0.000 A 
ATOM     14  C   UNL     1       5.571   3.582  16.061  0.00  0.00    +0.000 A 
ENDROOT
BRANCH   7  15
ATOM     15  N   UNL     1       2.139   7.480  20.063  0.00  0.00    +0.000 N 
ATOM     16  H   UNL     1       3.015   7.877  20.389  0.00  0.00    +0.000 HD
BRANCH  15  17
ATOM     17  C   UNL     1       1.022   7.886  20.923  0.00  0.00    +0.000 C 
BRANCH  17  18
ATOM     18  C   UNL     1       1.412   8.851  22.045  0.00  0.00    +0.000 C 
BRANCH  18  19
ATOM     19  C   UNL     1       0.659  10.158  21.751  0.00  0.00    +0.000 C 
BRANCH  19  20
ATOM     20  N   UNL     1      -0.312  10.086  20.660  0.00  0.00    +0.000 NA
ATOM     21  H   UNL     1      -1.234  10.339  21.018  0.00  0.00    +0.000 HD
BRANCH  20  22
ATOM     22  C   UNL     1       0.048  11.030  19.572  0.00  0.00    +0.000 C 
ATOM     23  C   UNL     1       0.102  10.365  18.178  0.00  0.00    +0.000 C 
ATOM     24  C   UNL     1      -1.276   9.932  17.683  0.00  0.00    +0.000 C 
ATOM     25  C   UNL     1      -2.225  11.124  17.635  0.00  0.00    +0.000 C 
ATOM     26  C   UNL     1      -2.325  11.810  18.994  0.00  0.00    +0.000 C 
ATOM     27  C   UNL     1      -0.948  12.203  19.533  0.00  0.00    +0.000 C 
ENDBRANCH  20  22
ENDBRANCH  19  20
ENDBRANCH  18  19
ENDBRANCH  17  18
ENDBRANCH  15  17
ENDBRANCH   7  15
TORSDOF 6
ENDMDL
MODEL 8
REMARK VINA RESULT:      -7.7      4.017      8.541
REMARK  Name = 
REMARK  6 active torsions:
REMARK  status: ('A' for Active; 'I' for Inactive)
REMARK    1  A    between atoms: C_7  and  N_8
REMARK    2  A    between atoms: N_8  and  C_9
REMARK    3  A    between atoms: C_9  and  C_10
REMARK    4  A    between atoms: C_10  and  C_11
REMARK    5  A    between atoms: C_11  and  N_12
REMARK    6  A    between atoms: N_12  and  C_13
REMARK                            x       y       z     vdW  Elec       q    Type
REMARK                         _______ _______ _______ _____ _____    ______ ____
ROOT
ATOM      1  C   UNL     1       6.770   3.659  11.498  0.00  0.00    +0.000 A 
ATOM      2  C   UNL     1       5.495   3.153  11.736  0.00  0.00    +0.000 A 
ATOM      3  C   UNL     1       4.906   3.302  12.991  0.00  0.00    +0.000 A 
ATOM      4  C   UNL     1       5.565   4.000  14.014  0.00  0.00    +0.000 A 
ATOM      5  C   UNL     1       4.948   4.262  15.250  0.00  0.00    +0.000 A 
ATOM      6  C   UNL     1       5.544   5.116  16.210  0.00  0.00    +0.000 A 
ATOM      7  C   UNL     1       4.889   5.604  17.379  0.00  0.00    +0.000 A 
ATOM      8  C   UNL     1       5.634   6.415  18.249  0.00  0.00    +0.000 A 
ATOM      9  C   UNL     1       6.922   6.776  17.912  0.00  0.00    +0.000 A 
ATOM     10  N   UNL     1       7.540   6.374  16.793  0.00  0.00    +0.000 NA
ATOM     11  C   UNL     1       6.863   5.573  15.962  0.00  0.00    +0.000 A 
ATOM     12  C   UNL     1       7.498   5.237  14.779  0.00  0.00    +0.000 A 
ATOM     13  C   UNL     1       6.855   4.508  13.773  0.00  0.00    +0.000 A 
ATOM     14  C   UNL     1       7.458   4.315  12.521  0.00  0.00    +0.000 A 
ENDROOT
BRANCH   7  15
ATOM     15  N   UNL     1       3.542   5.238  17.697  0.00  0.00    +0.000 N 
ATOM     16  H   UNL     1       3.111   4.749  16.918  0.00  0.00    +0.000 HD
BRANCH  15  17
ATOM     17  C   UNL     1       2.711   6.363  18.140  0.00  0.00    +0.000 C 
BRANCH  17  18
ATOM     18  C   UNL     1       2.753   6.619  19.649  0.00  0.00    +0.000 C 
BRANCH  18  19
ATOM     19  C   UNL     1       2.104   5.388  20.299  0.00  0.00    +0.000 C 
BRANCH  19  20
ATOM     20  N   UNL     1       1.306   4.556  19.400  0.00  0.00    +0.000 NA
ATOM     21  H   UNL     1       1.732   4.564  18.472  0.00  0.00    +0.000 HD
BRANCH  20  22
ATOM     22  C   UNL     1       1.257   3.154  19.885  0.00  0.00    +0.000 C 
ATOM     23  C   UNL     1       1.080   2.120  18.751  0.00  0.00    +0.000 C 
ATOM     24  C   UNL     1       2.308   2.026  17.848  0.00  0.00    +0.000 C 
ATOM     25  C   UNL     1       3.545   1.669  18.665  0.00  0.00    +0.000 C 
ATOM     26  C   UNL     1       3.774   2.670  19.794  0.00  0.00    +0.000 C 
ATOM     27  C   UNL     1       2.534   2.819  20.678  0.00  0.00    +0.000 C 
ENDBRANCH  20  22
ENDBRANCH  19  20
ENDBRANCH  18  19
ENDBRANCH  17  18
ENDBRANCH  15  17
ENDBRANCH   7  15
TORSDOF 6
ENDMDL
MODEL 9
REMARK VINA RESULT:      -7.6      4.605      7.811
REMARK  Name = 
REMARK  6 active torsions:
REMARK  status: ('A' for Active; 'I' for Inactive)
REMARK    1  A    between atoms: C_7  and  N_8
REMARK    2  A    between atoms: N_8  and  C_9
REMARK    3  A    between atoms: C_9  and  C_10
REMARK    4  A    between atoms: C_10  and  C_11
REMARK    5  A    between atoms: C_11  and  N_12
REMARK    6  A    between atoms: N_12  and  C_13
REMARK                            x       y       z     vdW  Elec       q    Type
REMARK                         _______ _______ _______ _____ _____    ______ ____
ROOT
ATOM      1  C   UNL     1      -1.494  12.011  22.442  0.00  0.00    +0.000 A 
ATOM      2  C   UNL     1      -1.385  10.947  23.334  0.00  0.00    +0.000 A 
ATOM      3  C   UNL     1      -0.762   9.764  22.940  0.00  0.00    +0.000 A 
ATOM      4  C   UNL     1      -0.196   9.643  21.662  0.00  0.00    +0.000 A 
ATOM      5  C   UNL     1       0.535   8.505  21.279  0.00  0.00    +0.000 A 
ATOM      6  C   UNL     1       1.252   8.460  20.058  0.00  0.00    +0.000 A 
ATOM      7  C   UNL     1       2.188   7.444  19.704  0.00  0.00    +0.000 A 
ATOM      8  C   UNL     1       2.788   7.529  18.438  0.00  0.00    +0.000 A 
ATOM      9  C   UNL     1       2.525   8.614  17.627  0.00  0.00    +0.000 A 
ATOM     10  N   UNL     1       1.691   9.608  17.961  0.00  0.00    +0.000 NA
ATOM     11  C   UNL     1       1.080   9.535  19.150  0.00  0.00    +0.000 A 
ATOM     12  C   UNL     1       0.286  10.613  19.499  0.00  0.00    +0.000 A 
ATOM     13  C   UNL     1      -0.310  10.718  20.760  0.00  0.00    +0.000 A 
ATOM     14  C   UNL     1      -0.978  11.889  21.151  0.00  0.00    +0.000 A 
ENDROOT
BRANCH   7  15
ATOM     15  N   UNL     1       2.466   6.340  20.571  0.00  0.00    +0.000 N 
ATOM     16  H   UNL     1       3.465   6.155  20.605  0.00  0.00    +0.000 HD
BRANCH  15  17
ATOM     17  C   UNL     1       1.715   5.124  20.242  0.00  0.00    +0.000 C 
BRANCH  17  18
ATOM     18  C   UNL     1       1.976   4.585  18.833  0.00  0.00    +0.000 C 
BRANCH  18  19
ATOM     19  C   UNL     1       3.284   3.785  18.929  0.00  0.00    +0.000 C 
BRANCH  19  20
ATOM     20  N   UNL     1       4.458   4.555  19.335  0.00  0.00    +0.000 NA
ATOM     21  H   UNL     1       4.689   4.325  20.303  0.00  0.00    +0.000 HD
BRANCH  20  22
ATOM     22  C   UNL     1       5.625   4.227  18.479  0.00  0.00    +0.000 C 
ATOM     23  C   UNL     1       5.236   3.847  17.033  0.00  0.00    +0.000 C 
ATOM     24  C   UNL     1       4.678   5.031  16.246  0.00  0.00    +0.000 C 
ATOM     25  C   UNL     1       5.689   6.172  16.211  0.00  0.00    +0.000 C 
ATOM     26  C   UNL     1       6.098   6.597  17.619  0.00  0.00    +0.000 C 
ATOM     27  C   UNL     1       6.608   5.412  18.441  0.00  0.00    +0.000 C 
ENDBRANCH  20  22
ENDBRANCH  19  20
ENDBRANCH  18  19
ENDBRANCH  17  18
ENDBRANCH  15  17
ENDBRANCH   7  15
TORSDOF 6
ENDMDL
