MODEL 1
REMARK VINA RESULT:      -8.0      0.000      0.000
REMARK  Name = 
REMARK  3 active torsions:
REMARK  status: ('A' for Active; 'I' for Inactive)
REMARK    1  A    between atoms: O_1  and  C_2
REMARK    2  A    between atoms: C_6  and  C_7
REMARK    3  A    between atoms: C_6  and  N_13
REMARK                            x       y       z     vdW  Elec       q    Type
REMARK                         _______ _______ _______ _____ _____    ______ ____
ROOT
ATOM      1  C   UNL     1       2.037   4.127  20.706  0.00  0.00    +0.000 C 
ATOM      2  C   UNL     1       1.292   3.220  19.736  0.00  0.00    +0.000 C 
ATOM      3  C   UNL     1       1.230   3.835  18.351  0.00  0.00    +0.000 C 
ATOM      4  C   UNL     1       2.621   4.238  17.846  0.00  0.00    +0.000 C 
ATOM      5  C   UNL     1       3.398   5.237  18.790  0.00  0.00    +0.000 C 
ATOM      6  C   UNL     1       3.433   4.487  20.174  0.00  0.00    +0.000 C 
ENDROOT
BRANCH   5   7
ATOM      7  C   UNL     1       2.677   6.612  18.912  0.00  0.00    +0.000 A 
ATOM      8  C   UNL     1       2.154   7.068  20.143  0.00  0.00    +0.000 A 
ATOM      9  C   UNL     1       1.511   8.306  20.255  0.00  0.00    +0.000 A 
ATOM     10  C   UNL     1       1.379   9.126  19.143  0.00  0.00    +0.000 A 
ATOM     11  C   UNL     1       1.899   8.716  17.922  0.00  0.00    +0.000 A 
ATOM     12  C   UNL     1       2.544   7.481  17.813  0.00  0.00    +0.000 A 
ENDBRANCH   5   7
BRANCH   5  13
ATOM     13  N   UNL     1       4.809   5.390  18.242  0.00  0.00    +0.000 NA
ATOM     14  C   UNL     1       5.862   5.340  19.278  0.00  0.00    +0.000 C 
ATOM     15  C   UNL     1       7.278   5.563  18.738  0.00  0.00    +0.000 C 
ATOM     16  C   UNL     1       7.600   4.591  17.618  0.00  0.00    +0.000 C 
ATOM     17  C   UNL     1       6.533   4.704  16.543  0.00  0.00    +0.000 C 
ATOM     18  C   UNL     1       5.131   4.479  17.126  0.00  0.00    +0.000 C 
ENDBRANCH   5  13
BRANCH   1  19
ATOM     19  O   UNL     1       2.172   3.455  21.958  0.00  0.00    +0.000 OA
ATOM     20  H   UNL     1       1.348   3.606  22.458  0.00  0.00    +0.000 HD
ENDBRANCH   1  19
TORSDOF 3
ENDMDL
MODEL 2
REMARK VINA RESULT:      -7.9      0.080      1.104
REMARK  Name = 
REMARK  3 active torsions:
REMARK  status: ('A' for Active; 'I' for Inactive)
REMARK    1  A    between atoms: O_1  and  C_2
REMARK    2  A    between atoms: C_6  and  C_7
REMARK    3  A    between atoms: C_6  and  N_13
REMARK                            x       y       z     vdW  Elec       q    Type
REMARK                         _______ _______ _______ _____ _____    ______ ____
ROOT
ATOM      1  C   UNL     1       2.040   4.190  20.696  0.00  0.00    +0.000 C 
ATOM      2  C   UNL     1       1.298   3.283  19.724  0.00  0.00    +0.000 C 
ATOM      3  C   UNL     1       1.241   3.897  18.338  0.00  0.00    +0.000 C 
ATOM      4  C   UNL     1       2.634   4.300  17.838  0.00  0.00    +0.000 C 
ATOM      5  C   UNL     1       3.408   5.299  18.783  0.00  0.00    +0.000 C 
ATOM      6  C   UNL     1       3.439   4.550  20.168  0.00  0.00    +0.000 C 
ENDROOT
BRANCH   5   7
ATOM      7  C   UNL     1       2.687   6.675  18.903  0.00  0.00    +0.000 A 
ATOM      8  C   UNL     1       2.509   7.518  17.784  0.00  0.00    +0.000 A 
ATOM      9  C   UNL     1       1.857   8.752  17.889  0.00  0.00    +0.000 A 
ATOM     10  C   UNL     1       1.358   9.173  19.114  0.00  0.00    +0.000 A 
ATOM     11  C   UNL     1       1.499   8.359  20.231  0.00  0.00    +0.000 A 
ATOM     12  C   UNL     1       2.148   7.126  20.122  0.00  0.00    +0.000 A 
ENDBRANCH   5   7
BRANCH   5  13
ATOM     13  N   UNL     1       4.821   5.452  18.240  0.00  0.00    +0.000 NA
ATOM     14  C   UNL     1       5.876   5.288  19.262  0.00  0.00    +0.000 C 
ATOM     15  C   UNL     1       7.296   5.509  18.732  0.00  0.00    +0.000 C 
ATOM     16  C   UNL     1       7.583   4.619  17.537  0.00  0.00    +0.000 C 
ATOM     17  C   UNL     1       6.515   4.850  16.481  0.00  0.00    +0.000 C 
ATOM     18  C   UNL     1       5.110   4.622  17.054  0.00  0.00    +0.000 C 
ENDBRANCH   5  13
BRANCH   1  19
ATOM     19  O   UNL     1       2.171   3.519  21.948  0.00  0.00    +0.000 OA
ATOM     20  H   UNL     1       3.125   3.430  22.131  0.00  0.00    +0.000 HD
ENDBRANCH   1  19
TORSDOF 3
ENDMDL
MODEL 3
REMARK VINA RESULT:      -7.5      0.667      1.708
REMARK  Name = 
REMARK  3 active torsions:
REMARK  status: ('A' for Active; 'I' for Inactive)
REMARK    1  A    between atoms: O_1  and  C_2
REMARK    2  A    between atoms: C_6  and  C_7
REMARK    3  A    between atoms: C_6  and  N_13
REMARK                            x       y       z     vdW  Elec       q    Type
REMARK                         _______ _______ _______ _____ _____    ______ ____
ROOT
ATOM      1  C   UNL     1       1.704   3.527  20.751  0.00  0.00    +0.000 C 
ATOM      2  C   UNL     1       0.954   2.711  19.707  0.00  0.00    +0.000 C 
ATOM      3  C   UNL     1       1.088   3.329  18.329  0.00  0.00    +0.000 C 
ATOM      4  C   UNL     1       2.555   3.574  17.957  0.00  0.00    +0.000 C 
ATOM      5  C   UNL     1       3.350   4.479  18.978  0.00  0.00    +0.000 C 
ATOM      6  C   UNL     1       3.175   3.729  20.351  0.00  0.00    +0.000 C 
ENDROOT
BRANCH   5   7
ATOM      7  C   UNL     1       2.778   5.927  19.050  0.00  0.00    +0.000 A 
ATOM      8  C   UNL     1       2.704   6.752  17.906  0.00  0.00    +0.000 A 
ATOM      9  C   UNL     1       2.187   8.051  17.968  0.00  0.00    +0.000 A 
ATOM     10  C   UNL     1       1.721   8.558  19.173  0.00  0.00    +0.000 A 
ATOM     11  C   UNL     1       1.762   7.766  20.314  0.00  0.00    +0.000 A 
ATOM     12  C   UNL     1       2.277   6.468  20.249  0.00  0.00    +0.000 A 
ENDBRANCH   5   7
BRANCH   5  13
ATOM     13  N   UNL     1       4.813   4.474  18.561  0.00  0.00    +0.000 NA
ATOM     14  C   UNL     1       5.019   4.503  17.098  0.00  0.00    +0.000 C 
ATOM     15  C   UNL     1       6.489   4.429  16.673  0.00  0.00    +0.000 C 
ATOM     16  C   UNL     1       7.310   5.518  17.339  0.00  0.00    +0.000 C 
ATOM     17  C   UNL     1       7.123   5.429  18.844  0.00  0.00    +0.000 C 
ATOM     18  C   UNL     1       5.638   5.502  19.224  0.00  0.00    +0.000 C 
ENDBRANCH   5  13
BRANCH   1  19
ATOM     19  O   UNL     1       1.649   2.844  22.002  0.00  0.00    +0.000 OA
ATOM     20  H   UNL     1       0.711   2.652  22.186  0.00  0.00    +0.000 HD
ENDBRANCH   1  19
TORSDOF 3
ENDMDL
MODEL 4
REMARK VINA RESULT:      -7.5      0.673      1.309
REMARK  Name = 
REMARK  3 active torsions:
REMARK  status: ('A' for Active; 'I' for Inactive)
REMARK    1  A    between atoms: O_1  and  C_2
REMARK    2  A    between atoms: C_6  and  C_7
REMARK    3  A    between atoms: C_6  and  N_13
REMARK                            x       y       z     vdW  Elec       q    Type
REMARK                         _______ _______ _______ _____ _____    ______ ____
ROOT
ATOM      1  C   UNL     1       1.674   3.509  20.712  0.00  0.00    +0.000 C 
ATOM      2  C   UNL     1       0.946   2.698  19.649  0.00  0.00    +0.000 C 
ATOM      3  C   UNL     1       1.097   3.330  18.279  0.00  0.00    +0.000 C 
ATOM      4  C   UNL     1       2.569   3.587  17.932  0.00  0.00    +0.000 C 
ATOM      5  C   UNL     1       3.342   4.486  18.974  0.00  0.00    +0.000 C 
ATOM      6  C   UNL     1       3.150   3.723  20.337  0.00  0.00    +0.000 C 
ENDROOT
BRANCH   5   7
ATOM      7  C   UNL     1       2.761   5.930  19.050  0.00  0.00    +0.000 A 
ATOM      8  C   UNL     1       2.289   6.476  20.264  0.00  0.00    +0.000 A 
ATOM      9  C   UNL     1       1.772   7.774  20.334  0.00  0.00    +0.000 A 
ATOM     10  C   UNL     1       1.719   8.566  19.195  0.00  0.00    +0.000 A 
ATOM     11  C   UNL     1       2.193   8.066  17.989  0.00  0.00    +0.000 A 
ATOM     12  C   UNL     1       2.712   6.770  17.922  0.00  0.00    +0.000 A 
ENDBRANCH   5   7
BRANCH   5  13
ATOM     13  N   UNL     1       4.812   4.493  18.581  0.00  0.00    +0.000 NA
ATOM     14  C   UNL     1       5.041   4.534  17.121  0.00  0.00    +0.000 C 
ATOM     15  C   UNL     1       6.518   4.472  16.720  0.00  0.00    +0.000 C 
ATOM     16  C   UNL     1       7.321   5.562  17.406  0.00  0.00    +0.000 C 
ATOM     17  C   UNL     1       7.111   5.460  18.907  0.00  0.00    +0.000 C 
ATOM     18  C   UNL     1       5.620   5.522  19.264  0.00  0.00    +0.000 C 
ENDBRANCH   5  13
BRANCH   1  19
ATOM     19  O   UNL     1       1.603   2.814  21.956  0.00  0.00    +0.000 OA
ATOM     20  H   UNL     1       1.764   1.870  21.770  0.00  0.00    +0.000 HD
ENDBRANCH   1  19
TORSDOF 3
ENDMDL
MODEL 5
REMARK VINA RESULT:      -7.2      1.740      4.806
REMARK  Name = 
REMARK  3 active torsions:
REMARK  status: ('A' for Active; 'I' for Inactive)
REMARK    1  A    between atoms: O_1  and  C_2
REMARK    2  A    between atoms: C_6  and  C_7
REMARK    3  A    between atoms: C_6  and  N_13
REMARK                            x       y       z     vdW  Elec       q    Type
REMARK                         _______ _______ _______ _____ _____    ______ ____
ROOT
ATOM      1  C   UNL     1       5.520   4.881  19.229  0.00  0.00    +0.000 C 
ATOM      2  C   UNL     1       5.710   4.442  17.783  0.00  0.00    +0.000 C 
ATOM      3  C   UNL     1       4.379   4.135  17.125  0.00  0.00    +0.000 C 
ATOM      4  C   UNL     1       3.391   5.300  17.273  0.00  0.00    +0.000 C 
ATOM      5  C   UNL     1       3.111   5.739  18.763  0.00  0.00    +0.000 C 
ATOM      6  C   UNL     1       4.543   6.064  19.329  0.00  0.00    +0.000 C 
ENDROOT
BRANCH   5   7
ATOM      7  C   UNL     1       2.421   4.611  19.589  0.00  0.00    +0.000 A 
ATOM      8  C   UNL     1       2.741   4.386  20.946  0.00  0.00    +0.000 A 
ATOM      9  C   UNL     1       2.118   3.376  21.689  0.00  0.00    +0.000 A 
ATOM     10  C   UNL     1       1.155   2.571  21.100  0.00  0.00    +0.000 A 
ATOM     11  C   UNL     1       0.803   2.778  19.772  0.00  0.00    +0.000 A 
ATOM     12  C   UNL     1       1.424   3.789  19.032  0.00  0.00    +0.000 A 
ENDBRANCH   5   7
BRANCH   5  13
ATOM     13  N   UNL     1       2.264   7.002  18.723  0.00  0.00    +0.000 NA
ATOM     14  C   UNL     1       2.008   7.592  20.054  0.00  0.00    +0.000 C 
ATOM     15  C   UNL     1       1.099   8.825  20.025  0.00  0.00    +0.000 C 
ATOM     16  C   UNL     1       1.636   9.883  19.078  0.00  0.00    +0.000 C 
ATOM     17  C   UNL     1       1.837   9.262  17.706  0.00  0.00    +0.000 C 
ATOM     18  C   UNL     1       2.748   8.030  17.782  0.00  0.00    +0.000 C 
ENDBRANCH   5  13
BRANCH   1  19
ATOM     19  O   UNL     1       6.784   5.271  19.765  0.00  0.00    +0.000 OA
ATOM     20  H   UNL     1       6.903   6.218  19.567  0.00  0.00    +0.000 HD
ENDBRANCH   1  19
TORSDOF 3
ENDMDL
MODEL 6
REMARK VINA RESULT:      -7.2      1.747      4.889
REMARK  Name = 
REMARK  3 active torsions:
REMARK  status: ('A' for Active; 'I' for Inactive)
REMARK    1  A    between atoms: O_1  and  C_2
REMARK    2  A    between atoms: C_6  and  C_7
REMARK    3  A    between atoms: C_6  and  N_13
REMARK                            x       y       z     vdW  Elec       q    Type
REMARK                         _______ _______ _______ _____ _____    ______ ____
ROOT
ATOM      1  C   UNL     1       5.493   4.871  19.224  0.00  0.00    +0.000 C 
ATOM      2  C   UNL     1       5.663   4.417  17.781  0.00  0.00    +0.000 C 
ATOM      3  C   UNL     1       4.322   4.109  17.143  0.00  0.00    +0.000 C 
ATOM      4  C   UNL     1       3.342   5.279  17.291  0.00  0.00    +0.000 C 
ATOM      5  C   UNL     1       3.082   5.734  18.780  0.00  0.00    +0.000 C 
ATOM      6  C   UNL     1       4.522   6.059  19.325  0.00  0.00    +0.000 C 
ENDROOT
BRANCH   5   7
ATOM      7  C   UNL     1       2.398   4.618  19.626  0.00  0.00    +0.000 A 
ATOM      8  C   UNL     1       1.413   3.770  19.075  0.00  0.00    +0.000 A 
ATOM      9  C   UNL     1       0.802   2.763  19.832  0.00  0.00    +0.000 A 
ATOM     10  C   UNL     1       1.164   2.572  21.157  0.00  0.00    +0.000 A 
ATOM     11  C   UNL     1       2.144   3.377  21.725  0.00  0.00    +0.000 A 
ATOM     12  C   UNL     1       2.755   4.379  20.966  0.00  0.00    +0.000 A 
ENDBRANCH   5   7
BRANCH   5  13
ATOM     13  N   UNL     1       2.240   7.000  18.739  0.00  0.00    +0.000 NA
ATOM     14  C   UNL     1       1.996   7.601  20.067  0.00  0.00    +0.000 C 
ATOM     15  C   UNL     1       1.092   8.837  20.037  0.00  0.00    +0.000 C 
ATOM     16  C   UNL     1       1.626   9.886  19.078  0.00  0.00    +0.000 C 
ATOM     17  C   UNL     1       1.813   9.255  17.709  0.00  0.00    +0.000 C 
ATOM     18  C   UNL     1       2.720   8.020  17.786  0.00  0.00    +0.000 C 
ENDBRANCH   5  13
BRANCH   1  19
ATOM     19  O   UNL     1       6.765   5.261  19.740  0.00  0.00    +0.000 OA
ATOM     20  H   UNL     1       7.428   4.650  19.368  0.00  0.00    +0.000 HD
ENDBRANCH   1  19
TORSDOF 3
ENDMDL
MODEL 7
REMARK VINA RESULT:      -7.0      1.009      1.831
REMARK  Name = 
REMARK  3 active torsions:
REMARK  status: ('A' for Active; 'I' for Inactive)
REMARK    1  A    between atoms: O_1  and  C_2
REMARK    2  A    between atoms: C_6  and  C_7
REMARK    3  A    between atoms: C_6  and  N_13
REMARK                            x       y       z     vdW  Elec       q    Type
REMARK                         _______ _______ _______ _____ _____    ______ ____
ROOT
ATOM      1  C   UNL     1       2.184   3.399  19.869  0.00  0.00    +0.000 C 
ATOM      2  C   UNL     1       1.648   2.723  18.615  0.00  0.00    +0.000 C 
ATOM      3  C   UNL     1       1.812   3.616  17.400  0.00  0.00    +0.000 C 
ATOM      4  C   UNL     1       3.258   4.105  17.246  0.00  0.00    +0.000 C 
ATOM      5  C   UNL     1       3.827   4.877  18.500  0.00  0.00    +0.000 C 
ATOM      6  C   UNL     1       3.641   3.853  19.681  0.00  0.00    +0.000 C 
ENDROOT
BRANCH   5   7
ATOM      7  C   UNL     1       3.055   6.202  18.776  0.00  0.00    +0.000 A 
ATOM      8  C   UNL     1       2.788   7.132  17.748  0.00  0.00    +0.000 A 
ATOM      9  C   UNL     1       2.090   8.320  17.994  0.00  0.00    +0.000 A 
ATOM     10  C   UNL     1       1.633   8.607  19.273  0.00  0.00    +0.000 A 
ATOM     11  C   UNL     1       1.862   7.704  20.304  0.00  0.00    +0.000 A 
ATOM     12  C   UNL     1       2.556   6.517  20.055  0.00  0.00    +0.000 A 
ENDBRANCH   5   7
BRANCH   5  13
ATOM     13  N   UNL     1       5.307   5.131  18.256  0.00  0.00    +0.000 NA
ATOM     14  C   UNL     1       5.578   6.080  17.156  0.00  0.00    +0.000 C 
ATOM     15  C   UNL     1       7.067   6.286  16.862  0.00  0.00    +0.000 C 
ATOM     16  C   UNL     1       7.822   6.704  18.111  0.00  0.00    +0.000 C 
ATOM     17  C   UNL     1       7.570   5.681  19.206  0.00  0.00    +0.000 C 
ATOM     18  C   UNL     1       6.068   5.503  19.464  0.00  0.00    +0.000 C 
ENDBRANCH   5  13
BRANCH   1  19
ATOM     19  O   UNL     1       2.117   2.478  20.957  0.00  0.00    +0.000 OA
ATOM     20  H   UNL     1       2.575   2.889  21.714  0.00  0.00    +0.000 HD
ENDBRANCH   1  19
TORSDOF 3
ENDMDL
MODEL 8
REMARK VINA RESULT:      -7.0      1.662      4.868
REMARK  Name = 
REMARK  3 active torsions:
REMARK  status: ('A' for Active; 'I' for Inactive)
REMARK    1  A    between atoms: O_1  and  C_2
REMARK    2  A    between atoms: C_6  and  C_7
REMARK    3  A    between atoms: C_6  and  N_13
REMARK                            x       y       z     vdW  Elec       q    Type
REMARK                         _______ _______ _______ _____ _____    ______ ____
ROOT
ATOM      1  C   UNL     1       2.834   2.416  17.868  0.00  0.00    +0.000 C 
ATOM      2  C   UNL     1       3.223   1.805  19.207  0.00  0.00    +0.000 C 
ATOM      3  C   UNL     1       4.392   2.545  19.827  0.00  0.00    +0.000 C 
ATOM      4  C   UNL     1       4.127   4.054  19.912  0.00  0.00    +0.000 C 
ATOM      5  C   UNL     1       3.792   4.740  18.530  0.00  0.00    +0.000 C 
ATOM      6  C   UNL     1       2.555   3.922  18.001  0.00  0.00    +0.000 C 
ENDROOT
BRANCH   5   7
ATOM      7  C   UNL     1       4.985   4.667  17.531  0.00  0.00    +0.000 A 
ATOM      8  C   UNL     1       6.317   4.876  17.951  0.00  0.00    +0.000 A 
ATOM      9  C   UNL     1       7.390   4.805  17.055  0.00  0.00    +0.000 A 
ATOM     10  C   UNL     1       7.162   4.516  15.717  0.00  0.00    +0.000 A 
ATOM     11  C   UNL     1       5.866   4.285  15.275  0.00  0.00    +0.000 A 
ATOM     12  C   UNL     1       4.796   4.354  16.172  0.00  0.00    +0.000 A 
ENDBRANCH   5   7
BRANCH   5  13
ATOM     13  N   UNL     1       3.385   6.178  18.813  0.00  0.00    +0.000 NA
ATOM     14  C   UNL     1       3.103   6.971  17.598  0.00  0.00    +0.000 C 
ATOM     15  C   UNL     1       2.760   8.438  17.875  0.00  0.00    +0.000 C 
ATOM     16  C   UNL     1       1.609   8.558  18.857  0.00  0.00    +0.000 C 
ATOM     17  C   UNL     1       1.951   7.781  20.117  0.00  0.00    +0.000 C 
ATOM     18  C   UNL     1       2.292   6.321  19.794  0.00  0.00    +0.000 C 
ENDBRANCH   5  13
BRANCH   1  19
ATOM     19  O   UNL     1       1.661   1.763  17.384  0.00  0.00    +0.000 OA
ATOM     20  H   UNL     1       0.909   2.087  17.915  0.00  0.00    +0.000 HD
ENDBRANCH   1  19
TORSDOF 3
ENDMDL
MODEL 9
REMARK VINA RESULT:      -7.0      1.668      4.932
REMARK  Name = 
REMARK  3 active torsions:
REMARK  status: ('A' for Active; 'I' for Inactive)
REMARK    1  A    between atoms: O_1  and  C_2
REMARK    2  A    between atoms: C_6  and  C_7
REMARK    3  A    between atoms: C_6  and  N_13
REMARK                            x       y       z     vdW  Elec       q    Type
REMARK                         _______ _______ _______ _____ _____    ______ ____
ROOT
ATOM      1  C   UNL     1       2.824   2.413  17.857  0.00  0.00    +0.000 C 
ATOM      2  C   UNL     1       3.213   1.797  19.194  0.00  0.00    +0.000 C 
ATOM      3  C   UNL     1       4.383   2.533  19.816  0.00  0.00    +0.000 C 
ATOM      4  C   UNL     1       4.121   4.042  19.906  0.00  0.00    +0.000 C 
ATOM      5  C   UNL     1       3.786   4.733  18.527  0.00  0.00    +0.000 C 
ATOM      6  C   UNL     1       2.548   3.919  17.996  0.00  0.00    +0.000 C 
ENDROOT
BRANCH   5   7
ATOM      7  C   UNL     1       4.979   4.661  17.527  0.00  0.00    +0.000 A 
ATOM      8  C   UNL     1       4.786   4.344  16.165  0.00  0.00    +0.000 A 
ATOM      9  C   UNL     1       5.856   4.284  15.265  0.00  0.00    +0.000 A 
ATOM     10  C   UNL     1       7.147   4.546  15.699  0.00  0.00    +0.000 A 
ATOM     11  C   UNL     1       7.370   4.879  17.029  0.00  0.00    +0.000 A 
ATOM     12  C   UNL     1       6.300   4.942  17.926  0.00  0.00    +0.000 A 
ENDBRANCH   5   7
BRANCH   5  13
ATOM     13  N   UNL     1       3.383   6.171  18.815  0.00  0.00    +0.000 NA
ATOM     14  C   UNL     1       3.096   6.967  17.602  0.00  0.00    +0.000 C 
ATOM     15  C   UNL     1       2.756   8.433  17.885  0.00  0.00    +0.000 C 
ATOM     16  C   UNL     1       1.610   8.553  18.872  0.00  0.00    +0.000 C 
ATOM     17  C   UNL     1       1.956   7.773  20.129  0.00  0.00    +0.000 C 
ATOM     18  C   UNL     1       2.294   6.313  19.801  0.00  0.00    +0.000 C 
ENDBRANCH   5  13
BRANCH   1  19
ATOM     19  O   UNL     1       1.650   1.765  17.371  0.00  0.00    +0.000 OA
ATOM     20  H   UNL     1       1.927   0.911  16.989  0.00  0.00    +0.000 HD
ENDBRANCH   1  19
TORSDOF 3
ENDMDL
