MODEL 1
REMARK VINA RESULT:      -5.8      0.000      0.000
REMARK  Name = 
REMARK  6 active torsions:
REMARK  status: ('A' for Active; 'I' for Inactive)
REMARK    1  A    between atoms: C_2  and  C_3
REMARK    2  A    between atoms: C_3  and  N_4
REMARK    3  A    between atoms: N_4  and  C_5
REMARK    4  A    between atoms: N_4  and  C_6
REMARK    5  A    between atoms: N_4  and  C_7
REMARK    6  A    between atoms: C_11  and  O_12
REMARK                            x       y       z     vdW  Elec       q    Type
REMARK                         _______ _______ _______ _____ _____    ______ ____
ROOT
ATOM      1  C   UNL     1       4.338   4.960  17.502  0.00  0.00    +0.000 A 
ATOM      2  C   UNL     1       3.286   5.831  17.806  0.00  0.00    +0.000 A 
ATOM      3  C   UNL     1       1.986   5.348  18.027  0.00  0.00    +0.000 A 
ATOM      4  C   UNL     1       1.717   3.985  17.954  0.00  0.00    +0.000 A 
ATOM      5  C   UNL     1       2.741   3.121  17.601  0.00  0.00    +0.000 A 
ATOM      6  C   UNL     1       4.027   3.596  17.346  0.00  0.00    +0.000 A 
ENDROOT
BRANCH   1   7
ATOM      7  N   UNL     1       5.794   5.365  17.660  0.00  0.00    +0.000 NA
ATOM      8  C   UNL     1       6.100   5.218  19.155  0.00  0.00    +0.000 C 
ATOM      9  C   UNL     1       6.724   4.458  16.859  0.00  0.00    +0.000 C 
BRANCH   7  10
ATOM     10  C   UNL     1       6.127   6.830  17.290  0.00  0.00    +0.000 C 
BRANCH  10  12
ATOM     11  C   UNL     1       7.904   8.520  17.774  0.00  0.00    +0.000 C 
ATOM     12  C   UNL     1       7.555   7.264  17.475  0.00  0.00    +0.000 C 
ENDBRANCH  10  12
ENDBRANCH   7  10
ENDBRANCH   1   7
BRANCH   5  13
ATOM     13  O   UNL     1       2.554   1.771  17.555  0.00  0.00    +0.000 OA
ATOM     14  H   UNL     1       1.615   1.579  17.390  0.00  0.00    +0.000 HD
ENDBRANCH   5  13
TORSDOF 4
ENDMDL
MODEL 2
REMARK VINA RESULT:      -5.8      1.747      2.479
REMARK  Name = 
REMARK  6 active torsions:
REMARK  status: ('A' for Active; 'I' for Inactive)
REMARK    1  A    between atoms: C_2  and  C_3
REMARK    2  A    between atoms: C_3  and  N_4
REMARK    3  A    between atoms: N_4  and  C_5
REMARK    4  A    between atoms: N_4  and  C_6
REMARK    5  A    between atoms: N_4  and  C_7
REMARK    6  A    between atoms: C_11  and  O_12
REMARK                            x       y       z     vdW  Elec       q    Type
REMARK                         _______ _______ _______ _____ _____    ______ ____
ROOT
ATOM      1  C   UNL     1       3.592   4.343  17.458  0.00  0.00    +0.000 A 
ATOM      2  C   UNL     1       2.234   4.548  17.730  0.00  0.00    +0.000 A 
ATOM      3  C   UNL     1       1.424   3.502  18.202  0.00  0.00    +0.000 A 
ATOM      4  C   UNL     1       1.959   2.235  18.415  0.00  0.00    +0.000 A 
ATOM      5  C   UNL     1       3.289   2.010  18.097  0.00  0.00    +0.000 A 
ATOM      6  C   UNL     1       4.091   3.035  17.596  0.00  0.00    +0.000 A 
ENDROOT
BRANCH   1   7
ATOM      7  N   UNL     1       4.577   5.496  17.350  0.00  0.00    +0.000 NA
ATOM      8  C   UNL     1       3.793   6.744  17.772  0.00  0.00    +0.000 C 
ATOM      9  C   UNL     1       5.771   5.306  18.282  0.00  0.00    +0.000 C 
BRANCH   7  10
ATOM     10  C   UNL     1       5.122   5.782  15.932  0.00  0.00    +0.000 C 
BRANCH  10  12
ATOM     11  C   UNL     1       6.181   3.971  14.573  0.00  0.00    +0.000 C 
ATOM     12  C   UNL     1       6.290   4.950  15.478  0.00  0.00    +0.000 C 
ENDBRANCH  10  12
ENDBRANCH   7  10
ENDBRANCH   1   7
BRANCH   5  13
ATOM     13  O   UNL     1       3.884   0.804  18.323  0.00  0.00    +0.000 OA
ATOM     14  H   UNL     1       4.851   0.911  18.311  0.00  0.00    +0.000 HD
ENDBRANCH   5  13
TORSDOF 4
ENDMDL
MODEL 3
REMARK VINA RESULT:      -5.8      2.436      4.851
REMARK  Name = 
REMARK  6 active torsions:
REMARK  status: ('A' for Active; 'I' for Inactive)
REMARK    1  A    between atoms: C_2  and  C_3
REMARK    2  A    between atoms: C_3  and  N_4
REMARK    3  A    between atoms: N_4  and  C_5
REMARK    4  A    between atoms: N_4  and  C_6
REMARK    5  A    between atoms: N_4  and  C_7
REMARK    6  A    between atoms: C_11  and  O_12
REMARK                            x       y       z     vdW  Elec       q    Type
REMARK                         _______ _______ _______ _____ _____    ______ ____
ROOT
ATOM      1  C   UNL     1       5.392   5.437  18.258  0.00  0.00    +0.000 A 
ATOM      2  C   UNL     1       5.873   6.328  17.292  0.00  0.00    +0.000 A 
ATOM      3  C   UNL     1       7.144   6.914  17.414  0.00  0.00    +0.000 A 
ATOM      4  C   UNL     1       7.957   6.613  18.502  0.00  0.00    +0.000 A 
ATOM      5  C   UNL     1       7.467   5.775  19.490  0.00  0.00    +0.000 A 
ATOM      6  C   UNL     1       6.194   5.217  19.393  0.00  0.00    +0.000 A 
ENDROOT
BRANCH   1   7
ATOM      7  N   UNL     1       4.242   4.485  17.977  0.00  0.00    +0.000 NA
ATOM      8  C   UNL     1       4.385   4.094  16.501  0.00  0.00    +0.000 C 
ATOM      9  C   UNL     1       4.320   3.232  18.846  0.00  0.00    +0.000 C 
BRANCH   7  10
ATOM     10  C   UNL     1       2.823   5.081  18.132  0.00  0.00    +0.000 C 
BRANCH  10  12
ATOM     11  C   UNL     1       1.896   5.533  20.410  0.00  0.00    +0.000 C 
ATOM     12  C   UNL     1       2.584   5.946  19.340  0.00  0.00    +0.000 C 
ENDBRANCH  10  12
ENDBRANCH   7  10
ENDBRANCH   1   7
BRANCH   5  13
ATOM     13  O   UNL     1       8.231   5.407  20.559  0.00  0.00    +0.000 OA
ATOM     14  H   UNL     1       9.140   5.228  20.263  0.00  0.00    +0.000 HD
ENDBRANCH   5  13
TORSDOF 4
ENDMDL
MODEL 4
REMARK VINA RESULT:      -5.7      2.411      5.183
REMARK  Name = 
REMARK  6 active torsions:
REMARK  status: ('A' for Active; 'I' for Inactive)
REMARK    1  A    between atoms: C_2  and  C_3
REMARK    2  A    between atoms: C_3  and  N_4
REMARK    3  A    between atoms: N_4  and  C_5
REMARK    4  A    between atoms: N_4  and  C_6
REMARK    5  A    between atoms: N_4  and  C_7
REMARK    6  A    between atoms: C_11  and  O_12
REMARK                            x       y       z     vdW  Elec       q    Type
REMARK                         _______ _______ _______ _____ _____    ______ ____
ROOT
ATOM      1  C   UNL     1       5.479   5.505  18.232  0.00  0.00    +0.000 A 
ATOM      2  C   UNL     1       5.972   6.438  17.312  0.00  0.00    +0.000 A 
ATOM      3  C   UNL     1       7.238   7.023  17.481  0.00  0.00    +0.000 A 
ATOM      4  C   UNL     1       8.034   6.681  18.570  0.00  0.00    +0.000 A 
ATOM      5  C   UNL     1       7.531   5.799  19.513  0.00  0.00    +0.000 A 
ATOM      6  C   UNL     1       6.262   5.241  19.370  0.00  0.00    +0.000 A 
ENDROOT
BRANCH   1   7
ATOM      7  N   UNL     1       4.338   4.561  17.891  0.00  0.00    +0.000 NA
ATOM      8  C   UNL     1       3.069   5.420  17.932  0.00  0.00    +0.000 C 
ATOM      9  C   UNL     1       4.501   3.959  16.497  0.00  0.00    +0.000 C 
BRANCH   7  10
ATOM     10  C   UNL     1       4.109   3.399  18.885  0.00  0.00    +0.000 C 
BRANCH  10  12
ATOM     11  C   UNL     1       2.073   1.955  19.028  0.00  0.00    +0.000 C 
ATOM     12  C   UNL     1       3.219   2.279  18.419  0.00  0.00    +0.000 C 
ENDBRANCH  10  12
ENDBRANCH   7  10
ENDBRANCH   1   7
BRANCH   5  13
ATOM     13  O   UNL     1       8.278   5.390  20.579  0.00  0.00    +0.000 OA
ATOM     14  H   UNL     1       8.540   6.163  21.108  0.00  0.00    +0.000 HD
ENDBRANCH   5  13
TORSDOF 4
ENDMDL
MODEL 5
REMARK VINA RESULT:      -5.7      2.054      2.971
REMARK  Name = 
REMARK  6 active torsions:
REMARK  status: ('A' for Active; 'I' for Inactive)
REMARK    1  A    between atoms: C_2  and  C_3
REMARK    2  A    between atoms: C_3  and  N_4
REMARK    3  A    between atoms: N_4  and  C_5
REMARK    4  A    between atoms: N_4  and  C_6
REMARK    5  A    between atoms: N_4  and  C_7
REMARK    6  A    between atoms: C_11  and  O_12
REMARK                            x       y       z     vdW  Elec       q    Type
REMARK                         _______ _______ _______ _____ _____    ______ ____
ROOT
ATOM      1  C   UNL     1       2.882   4.539  18.696  0.00  0.00    +0.000 A 
ATOM      2  C   UNL     1       2.616   4.979  19.998  0.00  0.00    +0.000 A 
ATOM      3  C   UNL     1       1.593   4.397  20.764  0.00  0.00    +0.000 A 
ATOM      4  C   UNL     1       0.822   3.362  20.244  0.00  0.00    +0.000 A 
ATOM      5  C   UNL     1       1.043   2.957  18.937  0.00  0.00    +0.000 A 
ATOM      6  C   UNL     1       2.034   3.552  18.159  0.00  0.00    +0.000 A 
ENDROOT
BRANCH   1   7
ATOM      7  N   UNL     1       4.199   4.832  17.998  0.00  0.00    +0.000 NA
ATOM      8  C   UNL     1       4.098   6.288  17.527  0.00  0.00    +0.000 C 
ATOM      9  C   UNL     1       5.386   4.685  18.947  0.00  0.00    +0.000 C 
BRANCH   7  10
ATOM     10  C   UNL     1       4.493   3.986  16.737  0.00  0.00    +0.000 C 
BRANCH  10  12
ATOM     11  C   UNL     1       5.644   4.341  14.545  0.00  0.00    +0.000 C 
ATOM     12  C   UNL     1       5.647   4.433  15.880  0.00  0.00    +0.000 C 
ENDBRANCH  10  12
ENDBRANCH   7  10
ENDBRANCH   1   7
BRANCH   5  13
ATOM     13  O   UNL     1       0.352   1.920  18.384  0.00  0.00    +0.000 OA
ATOM     14  H   UNL     1       0.033   1.329  19.088  0.00  0.00    +0.000 HD
ENDBRANCH   5  13
TORSDOF 4
ENDMDL
MODEL 6
REMARK VINA RESULT:      -5.7      2.648      5.215
REMARK  Name = 
REMARK  6 active torsions:
REMARK  status: ('A' for Active; 'I' for Inactive)
REMARK    1  A    between atoms: C_2  and  C_3
REMARK    2  A    between atoms: C_3  and  N_4
REMARK    3  A    between atoms: N_4  and  C_5
REMARK    4  A    between atoms: N_4  and  C_6
REMARK    5  A    between atoms: N_4  and  C_7
REMARK    6  A    between atoms: C_11  and  O_12
REMARK                            x       y       z     vdW  Elec       q    Type
REMARK                         _______ _______ _______ _____ _____    ______ ____
ROOT
ATOM      1  C   UNL     1       4.803   4.723  18.228  0.00  0.00    +0.000 A 
ATOM      2  C   UNL     1       5.410   4.459  16.994  0.00  0.00    +0.000 A 
ATOM      3  C   UNL     1       6.801   4.567  16.832  0.00  0.00    +0.000 A 
ATOM      4  C   UNL     1       7.610   4.935  17.903  0.00  0.00    +0.000 A 
ATOM      5  C   UNL     1       7.013   5.250  19.113  0.00  0.00    +0.000 A 
ATOM      6  C   UNL     1       5.630   5.179  19.272  0.00  0.00    +0.000 A 
ENDROOT
BRANCH   1   7
ATOM      7  N   UNL     1       3.404   4.234  18.561  0.00  0.00    +0.000 NA
ATOM      8  C   UNL     1       2.605   5.492  18.920  0.00  0.00    +0.000 C 
ATOM      9  C   UNL     1       2.750   3.539  17.370  0.00  0.00    +0.000 C 
BRANCH   7  10
ATOM     10  C   UNL     1       3.296   3.288  19.780  0.00  0.00    +0.000 C 
BRANCH  10  12
ATOM     11  C   UNL     1       1.508   2.814  21.462  0.00  0.00    +0.000 C 
ATOM     12  C   UNL     1       2.323   3.685  20.857  0.00  0.00    +0.000 C 
ENDBRANCH  10  12
ENDBRANCH   7  10
ENDBRANCH   1   7
BRANCH   5  13
ATOM     13  O   UNL     1       7.752   5.575  20.212  0.00  0.00    +0.000 OA
ATOM     14  H   UNL     1       8.124   4.767  20.604  0.00  0.00    +0.000 HD
ENDBRANCH   5  13
TORSDOF 4
ENDMDL
MODEL 7
REMARK VINA RESULT:      -5.7      2.192      3.098
REMARK  Name = 
REMARK  6 active torsions:
REMARK  status: ('A' for Active; 'I' for Inactive)
REMARK    1  A    between atoms: C_2  and  C_3
REMARK    2  A    between atoms: C_3  and  N_4
REMARK    3  A    between atoms: N_4  and  C_5
REMARK    4  A    between atoms: N_4  and  C_6
REMARK    5  A    between atoms: N_4  and  C_7
REMARK    6  A    between atoms: C_11  and  O_12
REMARK                            x       y       z     vdW  Elec       q    Type
REMARK                         _______ _______ _______ _____ _____    ______ ____
ROOT
ATOM      1  C   UNL     1       2.706   4.684  18.990  0.00  0.00    +0.000 A 
ATOM      2  C   UNL     1       2.597   4.797  20.381  0.00  0.00    +0.000 A 
ATOM      3  C   UNL     1       1.741   3.957  21.112  0.00  0.00    +0.000 A 
ATOM      4  C   UNL     1       0.984   2.985  20.465  0.00  0.00    +0.000 A 
ATOM      5  C   UNL     1       1.046   2.901  19.083  0.00  0.00    +0.000 A 
ATOM      6  C   UNL     1       1.867   3.755  18.347  0.00  0.00    +0.000 A 
ENDROOT
BRANCH   1   7
ATOM      7  N   UNL     1       3.884   5.260  18.222  0.00  0.00    +0.000 NA
ATOM      8  C   UNL     1       5.035   5.333  19.233  0.00  0.00    +0.000 C 
ATOM      9  C   UNL     1       4.289   4.366  17.053  0.00  0.00    +0.000 C 
BRANCH   7  10
ATOM     10  C   UNL     1       3.692   6.695  17.678  0.00  0.00    +0.000 C 
BRANCH  10  12
ATOM     11  C   UNL     1       2.247   8.722  17.913  0.00  0.00    +0.000 C 
ATOM     12  C   UNL     1       2.432   7.408  18.086  0.00  0.00    +0.000 C 
ENDBRANCH  10  12
ENDBRANCH   7  10
ENDBRANCH   1   7
BRANCH   5  13
ATOM     13  O   UNL     1       0.363   1.943  18.394  0.00  0.00    +0.000 OA
ATOM     14  H   UNL     1       0.423   1.096  18.869  0.00  0.00    +0.000 HD
ENDBRANCH   5  13
TORSDOF 4
ENDMDL
MODEL 8
REMARK VINA RESULT:      -5.7      1.242      1.944
REMARK  Name = 
REMARK  6 active torsions:
REMARK  status: ('A' for Active; 'I' for Inactive)
REMARK    1  A    between atoms: C_2  and  C_3
REMARK    2  A    between atoms: C_3  and  N_4
REMARK    3  A    between atoms: N_4  and  C_5
REMARK    4  A    between atoms: N_4  and  C_6
REMARK    5  A    between atoms: N_4  and  C_7
REMARK    6  A    between atoms: C_11  and  O_12
REMARK                            x       y       z     vdW  Elec       q    Type
REMARK                         _______ _______ _______ _____ _____    ______ ____
ROOT
ATOM      1  C   UNL     1       3.696   4.334  17.449  0.00  0.00    +0.000 A 
ATOM      2  C   UNL     1       2.348   4.575  17.740  0.00  0.00    +0.000 A 
ATOM      3  C   UNL     1       1.517   3.551  18.222  0.00  0.00    +0.000 A 
ATOM      4  C   UNL     1       2.020   2.270  18.427  0.00  0.00    +0.000 A 
ATOM      5  C   UNL     1       3.339   2.009  18.091  0.00  0.00    +0.000 A 
ATOM      6  C   UNL     1       4.161   3.012  17.579  0.00  0.00    +0.000 A 
ENDROOT
BRANCH   1   7
ATOM      7  N   UNL     1       4.710   5.459  17.329  0.00  0.00    +0.000 NA
ATOM      8  C   UNL     1       5.273   5.353  15.907  0.00  0.00    +0.000 C 
ATOM      9  C   UNL     1       4.060   6.827  17.518  0.00  0.00    +0.000 C 
BRANCH   7  10
ATOM     10  C   UNL     1       5.923   5.374  18.284  0.00  0.00    +0.000 C 
BRANCH  10  12
ATOM     11  C   UNL     1       7.839   6.979  18.227  0.00  0.00    +0.000 C 
ATOM     12  C   UNL     1       7.236   5.884  17.753  0.00  0.00    +0.000 C 
ENDBRANCH  10  12
ENDBRANCH   7  10
ENDBRANCH   1   7
BRANCH   5  13
ATOM     13  O   UNL     1       3.904   0.787  18.308  0.00  0.00    +0.000 OA
ATOM     14  H   UNL     1       4.189   0.721  19.236  0.00  0.00    +0.000 HD
ENDBRANCH   5  13
TORSDOF 4
ENDMDL
MODEL 9
REMARK VINA RESULT:      -5.7      2.632      5.156
REMARK  Name = 
REMARK  6 active torsions:
REMARK  status: ('A' for Active; 'I' for Inactive)
REMARK    1  A    between atoms: C_2  and  C_3
REMARK    2  A    between atoms: C_3  and  N_4
REMARK    3  A    between atoms: N_4  and  C_5
REMARK    4  A    between atoms: N_4  and  C_6
REMARK    5  A    between atoms: N_4  and  C_7
REMARK    6  A    between atoms: C_11  and  O_12
REMARK                            x       y       z     vdW  Elec       q    Type
REMARK                         _______ _______ _______ _____ _____    ______ ____
ROOT
ATOM      1  C   UNL     1       4.534   4.078  17.730  0.00  0.00    +0.000 A 
ATOM      2  C   UNL     1       4.744   4.023  16.347  0.00  0.00    +0.000 A 
ATOM      3  C   UNL     1       6.012   4.270  15.796  0.00  0.00    +0.000 A 
ATOM      4  C   UNL     1       7.093   4.570  16.618  0.00  0.00    +0.000 A 
ATOM      5  C   UNL     1       6.883   4.679  17.984  0.00  0.00    +0.000 A 
ATOM      6  C   UNL     1       5.620   4.469  18.535  0.00  0.00    +0.000 A 
ENDROOT
BRANCH   1   7
ATOM      7  N   UNL     1       3.327   3.432  18.390  0.00  0.00    +0.000 NA
ATOM      8  C   UNL     1       2.105   4.107  17.756  0.00  0.00    +0.000 C 
ATOM      9  C   UNL     1       3.274   1.930  18.124  0.00  0.00    +0.000 C 
BRANCH   7  10
ATOM     10  C   UNL     1       3.201   3.648  19.916  0.00  0.00    +0.000 C 
BRANCH  10  12
ATOM     11  C   UNL     1       1.497   2.746  21.507  0.00  0.00    +0.000 C 
ATOM     12  C   UNL     1       1.816   3.562  20.496  0.00  0.00    +0.000 C 
ENDBRANCH  10  12
ENDBRANCH   7  10
ENDBRANCH   1   7
BRANCH   5  13
ATOM     13  O   UNL     1       7.909   4.927  18.847  0.00  0.00    +0.000 OA
ATOM     14  H   UNL     1       8.601   5.436  18.392  0.00  0.00    +0.000 HD
ENDBRANCH   5  13
TORSDOF 4
ENDMDL
