MODEL 1
REMARK VINA RESULT:      -7.6      0.000      0.000
REMARK  Name = 
REMARK  9 active torsions:
REMARK  status: ('A' for Active; 'I' for Inactive)
REMARK    1  A    between atoms: C_1  and  C_2
REMARK    2  A    between atoms: C_2  and  S_3
REMARK    3  A    between atoms: S_3  and  C_4
REMARK    4  A    between atoms: C_9  and  C_11
REMARK    5  A    between atoms: C_11  and  S_12
REMARK    6  A    between atoms: S_12  and  C_13
REMARK    7  A    between atoms: N_19  and  C_20
REMARK    8  A    between atoms: C_25  and  O_26
REMARK    9  A    between atoms: O_26  and  C_27
REMARK                            x       y       z     vdW  Elec       q    Type
REMARK                         _______ _______ _______ _____ _____    ______ ____
ROOT
ATOM      1  C   UNL     1       3.622   5.576  18.641  0.00  0.00    +0.000 A 
ATOM      2  N   UNL     1       2.747   5.522  19.604  0.00  0.00    +0.000 NA
ATOM      3  C   UNL     1       2.354   4.272  20.000  0.00  0.00    +0.000 A 
ATOM      4  C   UNL     1       2.682   3.136  19.388  0.00  0.00    +0.000 A 
ATOM      5  C   UNL     1       3.603   3.186  18.240  0.00  0.00    +0.000 A 
ATOM      6  O   UNL     1       3.855   2.177  17.578  0.00  0.00    +0.000 OA
ATOM      7  N   UNL     1       4.150   4.445  18.015  0.00  0.00    +0.000 N 
ATOM      8  S   UNL     1       2.031   1.695  20.045  0.00  0.00    +0.000 S 
ATOM      9  C   UNL     1       1.442   2.572  21.532  0.00  0.00    +0.000 C 
ATOM     10  C   UNL     1       1.483   4.074  21.211  0.00  0.00    +0.000 C 
ENDROOT
BRANCH   7  11
ATOM     11  C   UNL     1       5.176   4.520  17.033  0.00  0.00    +0.000 A 
ATOM     12  C   UNL     1       4.779   4.513  15.684  0.00  0.00    +0.000 A 
ATOM     13  C   UNL     1       5.716   4.651  14.665  0.00  0.00    +0.000 A 
ATOM     14  C   UNL     1       7.066   4.749  14.982  0.00  0.00    +0.000 A 
ATOM     15  C   UNL     1       7.473   4.720  16.318  0.00  0.00    +0.000 A 
ATOM     16  C   UNL     1       6.540   4.602  17.359  0.00  0.00    +0.000 A 
BRANCH  16  17
ATOM     17  O   UNL     1       7.106   4.690  18.603  0.00  0.00    +0.000 OA
ATOM     18  C   UNL     1       7.834   5.867  18.920  0.00  0.00    +0.000 C 
ENDBRANCH  16  17
ENDBRANCH   7  11
BRANCH   1  19
ATOM     19  S   UNL     1       4.161   7.176  18.129  0.00  0.00    +0.000 S 
BRANCH  19  20
ATOM     20  C   UNL     1       2.645   7.780  17.327  0.00  0.00    +0.000 C 
BRANCH  20  26
ATOM     21  C   UNL     1      -0.041  10.548  21.988  0.00  0.00    +0.000 A 
ATOM     22  N   UNL     1       0.543   9.574  22.653  0.00  0.00    +0.000 NA
ATOM     23  N   UNL     1       1.207   8.699  21.806  0.00  0.00    +0.000 NA
ATOM     24  C   UNL     1       1.142   9.076  20.545  0.00  0.00    +0.000 A 
ATOM     25  N   UNL     1       1.735   8.361  19.523  0.00  0.00    +0.000 N 
ATOM     26  C   UNL     1       1.932   8.797  18.223  0.00  0.00    +0.000 C 
ATOM     27  O   UNL     1       1.635   9.904  17.786  0.00  0.00    +0.000 OA
ATOM     28  S   UNL     1       0.210  10.484  20.292  0.00  0.00    +0.000 S 
ATOM     29  H   UNL     1       2.136   7.485  19.830  0.00  0.00    +0.000 HD
BRANCH  21  30
ATOM     30  S   UNL     1      -1.031  11.777  22.749  0.00  0.00    +0.000 S 
BRANCH  30  32
ATOM     31  C   UNL     1      -3.277  13.077  21.862  0.00  0.00    +0.000 C 
ATOM     32  C   UNL     1      -2.042  12.351  21.354  0.00  0.00    +0.000 C 
ENDBRANCH  30  32
ENDBRANCH  21  30
ENDBRANCH  20  26
ENDBRANCH  19  20
ENDBRANCH   1  19
TORSDOF 7
ENDMDL
MODEL 2
REMARK VINA RESULT:      -7.4      1.084      1.096
REMARK  Name = 
REMARK  9 active torsions:
REMARK  status: ('A' for Active; 'I' for Inactive)
REMARK    1  A    between atoms: C_1  and  C_2
REMARK    2  A    between atoms: C_2  and  S_3
REMARK    3  A    between atoms: S_3  and  C_4
REMARK    4  A    between atoms: C_9  and  C_11
REMARK    5  A    between atoms: C_11  and  S_12
REMARK    6  A    between atoms: S_12  and  C_13
REMARK    7  A    between atoms: N_19  and  C_20
REMARK    8  A    between atoms: C_25  and  O_26
REMARK    9  A    between atoms: O_26  and  C_27
REMARK                            x       y       z     vdW  Elec       q    Type
REMARK                         _______ _______ _______ _____ _____    ______ ____
ROOT
ATOM      1  C   UNL     1       3.353   5.733  18.371  0.00  0.00    +0.000 A 
ATOM      2  N   UNL     1       2.407   5.679  19.265  0.00  0.00    +0.000 NA
ATOM      3  C   UNL     1       2.086   4.434  19.737  0.00  0.00    +0.000 A 
ATOM      4  C   UNL     1       2.556   3.287  19.254  0.00  0.00    +0.000 A 
ATOM      5  C   UNL     1       3.562   3.325  18.180  0.00  0.00    +0.000 A 
ATOM      6  O   UNL     1       3.950   2.293  17.629  0.00  0.00    +0.000 OA
ATOM      7  N   UNL     1       4.022   4.606  17.888  0.00  0.00    +0.000 N 
ATOM      8  S   UNL     1       1.972   1.851  19.983  0.00  0.00    +0.000 S 
ATOM      9  C   UNL     1       1.191   2.789  21.338  0.00  0.00    +0.000 C 
ATOM     10  C   UNL     1       1.135   4.259  20.891  0.00  0.00    +0.000 C 
ENDROOT
BRANCH   7  11
ATOM     11  C   UNL     1       5.117   4.692  16.985  0.00  0.00    +0.000 A 
ATOM     12  C   UNL     1       4.815   4.824  15.618  0.00  0.00    +0.000 A 
ATOM     13  C   UNL     1       5.828   4.981  14.677  0.00  0.00    +0.000 A 
ATOM     14  C   UNL     1       7.156   4.961  15.088  0.00  0.00    +0.000 A 
ATOM     15  C   UNL     1       7.467   4.794  16.440  0.00  0.00    +0.000 A 
ATOM     16  C   UNL     1       6.457   4.654  17.404  0.00  0.00    +0.000 A 
BRANCH  16  17
ATOM     17  O   UNL     1       6.939   4.600  18.685  0.00  0.00    +0.000 OA
ATOM     18  C   UNL     1       7.634   5.734  19.182  0.00  0.00    +0.000 C 
ENDBRANCH  16  17
ENDBRANCH   7  11
BRANCH   1  19
ATOM     19  S   UNL     1       3.801   7.327  17.765  0.00  0.00    +0.000 S 
BRANCH  19  20
ATOM     20  C   UNL     1       2.152   7.999  17.390  0.00  0.00    +0.000 C 
BRANCH  20  26
ATOM     21  C   UNL     1       0.377  12.324  21.229  0.00  0.00    +0.000 A 
ATOM     22  N   UNL     1       0.068  11.276  21.963  0.00  0.00    +0.000 NA
ATOM     23  N   UNL     1       0.309  10.088  21.290  0.00  0.00    +0.000 NA
ATOM     24  C   UNL     1       0.838  10.284  20.100  0.00  0.00    +0.000 A 
ATOM     25  N   UNL     1       1.168   9.246  19.251  0.00  0.00    +0.000 N 
ATOM     26  C   UNL     1       1.942   9.336  18.106  0.00  0.00    +0.000 C 
ATOM     27  O   UNL     1       2.482  10.354  17.685  0.00  0.00    +0.000 OA
ATOM     28  S   UNL     1       1.016  11.931  19.687  0.00  0.00    +0.000 S 
ATOM     29  H   UNL     1       0.878   8.342  19.597  0.00  0.00    +0.000 HD
BRANCH  21  30
ATOM     30  S   UNL     1       0.118  13.977  21.750  0.00  0.00    +0.000 S 
BRANCH  30  32
ATOM     31  C   UNL     1      -2.341  14.330  22.913  0.00  0.00    +0.000 C 
ATOM     32  C   UNL     1      -0.966  13.744  23.189  0.00  0.00    +0.000 C 
ENDBRANCH  30  32
ENDBRANCH  21  30
ENDBRANCH  20  26
ENDBRANCH  19  20
ENDBRANCH   1  19
TORSDOF 7
ENDMDL
MODEL 3
REMARK VINA RESULT:      -7.4      1.588      1.685
REMARK  Name = 
REMARK  9 active torsions:
REMARK  status: ('A' for Active; 'I' for Inactive)
REMARK    1  A    between atoms: C_1  and  C_2
REMARK    2  A    between atoms: C_2  and  S_3
REMARK    3  A    between atoms: S_3  and  C_4
REMARK    4  A    between atoms: C_9  and  C_11
REMARK    5  A    between atoms: C_11  and  S_12
REMARK    6  A    between atoms: S_12  and  C_13
REMARK    7  A    between atoms: N_19  and  C_20
REMARK    8  A    between atoms: C_25  and  O_26
REMARK    9  A    between atoms: O_26  and  C_27
REMARK                            x       y       z     vdW  Elec       q    Type
REMARK                         _______ _______ _______ _____ _____    ______ ____
ROOT
ATOM      1  C   UNL     1       3.361   5.688  18.335  0.00  0.00    +0.000 A 
ATOM      2  N   UNL     1       2.425   5.640  19.239  0.00  0.00    +0.000 NA
ATOM      3  C   UNL     1       2.114   4.400  19.728  0.00  0.00    +0.000 A 
ATOM      4  C   UNL     1       2.584   3.249  19.253  0.00  0.00    +0.000 A 
ATOM      5  C   UNL     1       3.580   3.279  18.169  0.00  0.00    +0.000 A 
ATOM      6  O   UNL     1       3.967   2.242  17.627  0.00  0.00    +0.000 OA
ATOM      7  N   UNL     1       4.031   4.559  17.858  0.00  0.00    +0.000 N 
ATOM      8  S   UNL     1       2.014   1.819  20.004  0.00  0.00    +0.000 S 
ATOM      9  C   UNL     1       1.242   2.769  21.356  0.00  0.00    +0.000 C 
ATOM     10  C   UNL     1       1.175   4.233  20.893  0.00  0.00    +0.000 C 
ENDROOT
BRANCH   7  11
ATOM     11  C   UNL     1       5.116   4.640  16.943  0.00  0.00    +0.000 A 
ATOM     12  C   UNL     1       4.801   4.753  15.578  0.00  0.00    +0.000 A 
ATOM     13  C   UNL     1       5.804   4.904  14.626  0.00  0.00    +0.000 A 
ATOM     14  C   UNL     1       7.136   4.896  15.024  0.00  0.00    +0.000 A 
ATOM     15  C   UNL     1       7.460   4.748  16.374  0.00  0.00    +0.000 A 
ATOM     16  C   UNL     1       6.461   4.614  17.350  0.00  0.00    +0.000 A 
BRANCH  16  17
ATOM     17  O   UNL     1       6.955   4.579  18.627  0.00  0.00    +0.000 OA
ATOM     18  C   UNL     1       7.451   5.789  19.181  0.00  0.00    +0.000 C 
ENDBRANCH  16  17
ENDBRANCH   7  11
BRANCH   1  19
ATOM     19  S   UNL     1       3.795   7.278  17.706  0.00  0.00    +0.000 S 
BRANCH  19  20
ATOM     20  C   UNL     1       2.138   7.952  17.376  0.00  0.00    +0.000 C 
BRANCH  20  26
ATOM     21  C   UNL     1       0.530  12.370  21.183  0.00  0.00    +0.000 A 
ATOM     22  N   UNL     1       0.242  11.341  21.950  0.00  0.00    +0.000 NA
ATOM     23  N   UNL     1       0.450  10.136  21.295  0.00  0.00    +0.000 NA
ATOM     24  C   UNL     1       0.937  10.304  20.082  0.00  0.00    +0.000 A 
ATOM     25  N   UNL     1       1.230   9.245  19.244  0.00  0.00    +0.000 N 
ATOM     26  C   UNL     1       1.962   9.306  18.071  0.00  0.00    +0.000 C 
ATOM     27  O   UNL     1       2.493  10.311  17.608  0.00  0.00    +0.000 OA
ATOM     28  S   UNL     1       1.110  11.941  19.627  0.00  0.00    +0.000 S 
ATOM     29  H   UNL     1       0.947   8.351  19.620  0.00  0.00    +0.000 HD
BRANCH  21  30
ATOM     30  S   UNL     1       0.300  14.036  21.677  0.00  0.00    +0.000 S 
BRANCH  30  32
ATOM     31  C   UNL     1       2.109  15.628  20.368  0.00  0.00    +0.000 C 
ATOM     32  C   UNL     1       1.989  14.692  21.559  0.00  0.00    +0.000 C 
ENDBRANCH  30  32
ENDBRANCH  21  30
ENDBRANCH  20  26
ENDBRANCH  19  20
ENDBRANCH   1  19
TORSDOF 7
ENDMDL
MODEL 4
REMARK VINA RESULT:      -7.3      3.288      9.604
REMARK  Name = 
REMARK  9 active torsions:
REMARK  status: ('A' for Active; 'I' for Inactive)
REMARK    1  A    between atoms: C_1  and  C_2
REMARK    2  A    between atoms: C_2  and  S_3
REMARK    3  A    between atoms: S_3  and  C_4
REMARK    4  A    between atoms: C_9  and  C_11
REMARK    5  A    between atoms: C_11  and  S_12
REMARK    6  A    between atoms: S_12  and  C_13
REMARK    7  A    between atoms: N_19  and  C_20
REMARK    8  A    between atoms: C_25  and  O_26
REMARK    9  A    between atoms: O_26  and  C_27
REMARK                            x       y       z     vdW  Elec       q    Type
REMARK                         _______ _______ _______ _____ _____    ______ ____
ROOT
ATOM      1  C   UNL     1      -0.798  10.750  18.795  0.00  0.00    +0.000 A 
ATOM      2  N   UNL     1      -1.043  10.113  17.685  0.00  0.00    +0.000 NA
ATOM      3  C   UNL     1      -2.243  10.380  17.083  0.00  0.00    +0.000 A 
ATOM      4  C   UNL     1      -3.219  11.114  17.611  0.00  0.00    +0.000 A 
ATOM      5  C   UNL     1      -2.994  11.771  18.910  0.00  0.00    +0.000 A 
ATOM      6  O   UNL     1      -3.900  12.374  19.488  0.00  0.00    +0.000 OA
ATOM      7  N   UNL     1      -1.688  11.657  19.376  0.00  0.00    +0.000 N 
ATOM      8  S   UNL     1      -4.650  11.270  16.683  0.00  0.00    +0.000 S 
ATOM      9  C   UNL     1      -3.852  10.526  15.222  0.00  0.00    +0.000 C 
ATOM     10  C   UNL     1      -2.567   9.842  15.715  0.00  0.00    +0.000 C 
ENDROOT
BRANCH   7  11
ATOM     11  C   UNL     1      -1.363  12.414  20.535  0.00  0.00    +0.000 A 
ATOM     12  C   UNL     1      -1.602  11.814  21.784  0.00  0.00    +0.000 A 
ATOM     13  C   UNL     1      -1.250  12.463  22.963  0.00  0.00    +0.000 A 
ATOM     14  C   UNL     1      -0.700  13.738  22.908  0.00  0.00    +0.000 A 
ATOM     15  C   UNL     1      -0.492  14.357  21.673  0.00  0.00    +0.000 A 
ATOM     16  C   UNL     1      -0.822  13.710  20.473  0.00  0.00    +0.000 A 
BRANCH  16  17
ATOM     17  O   UNL     1      -0.462  14.420  19.360  0.00  0.00    +0.000 OA
ATOM     18  C   UNL     1      -0.400  15.835  19.467  0.00  0.00    +0.000 C 
ENDBRANCH  16  17
ENDBRANCH   7  11
BRANCH   1  19
ATOM     19  S   UNL     1       0.752  10.440  19.578  0.00  0.00    +0.000 S 
BRANCH  19  20
ATOM     20  C   UNL     1       1.783  10.104  18.118  0.00  0.00    +0.000 C 
BRANCH  20  26
ATOM     21  C   UNL     1       3.222   4.477  19.812  0.00  0.00    +0.000 A 
ATOM     22  N   UNL     1       2.325   4.734  20.740  0.00  0.00    +0.000 NA
ATOM     23  N   UNL     1       1.845   6.032  20.646  0.00  0.00    +0.000 NA
ATOM     24  C   UNL     1       2.359   6.683  19.623  0.00  0.00    +0.000 A 
ATOM     25  N   UNL     1       2.024   7.990  19.328  0.00  0.00    +0.000 N 
ATOM     26  C   UNL     1       2.313   8.667  18.155  0.00  0.00    +0.000 C 
ATOM     27  O   UNL     1       2.888   8.196  17.179  0.00  0.00    +0.000 OA
ATOM     28  S   UNL     1       3.514   5.786  18.742  0.00  0.00    +0.000 S 
ATOM     29  H   UNL     1       1.426   8.415  20.024  0.00  0.00    +0.000 HD
BRANCH  21  30
ATOM     30  S   UNL     1       4.085   2.956  19.700  0.00  0.00    +0.000 S 
BRANCH  30  32
ATOM     31  C   UNL     1       2.456   2.327  17.585  0.00  0.00    +0.000 C 
ATOM     32  C   UNL     1       2.820   1.866  18.986  0.00  0.00    +0.000 C 
ENDBRANCH  30  32
ENDBRANCH  21  30
ENDBRANCH  20  26
ENDBRANCH  19  20
ENDBRANCH   1  19
TORSDOF 7
ENDMDL
MODEL 5
REMARK VINA RESULT:      -7.2      3.265      9.678
REMARK  Name = 
REMARK  9 active torsions:
REMARK  status: ('A' for Active; 'I' for Inactive)
REMARK    1  A    between atoms: C_1  and  C_2
REMARK    2  A    between atoms: C_2  and  S_3
REMARK    3  A    between atoms: S_3  and  C_4
REMARK    4  A    between atoms: C_9  and  C_11
REMARK    5  A    between atoms: C_11  and  S_12
REMARK    6  A    between atoms: S_12  and  C_13
REMARK    7  A    between atoms: N_19  and  C_20
REMARK    8  A    between atoms: C_25  and  O_26
REMARK    9  A    between atoms: O_26  and  C_27
REMARK                            x       y       z     vdW  Elec       q    Type
REMARK                         _______ _______ _______ _____ _____    ______ ____
ROOT
ATOM      1  C   UNL     1      -0.742  11.215  18.934  0.00  0.00    +0.000 A 
ATOM      2  N   UNL     1      -1.037  10.524  17.870  0.00  0.00    +0.000 NA
ATOM      3  C   UNL     1      -2.295  10.699  17.360  0.00  0.00    +0.000 A 
ATOM      4  C   UNL     1      -3.268  11.396  17.942  0.00  0.00    +0.000 A 
ATOM      5  C   UNL     1      -2.978  12.114  19.195  0.00  0.00    +0.000 A 
ATOM      6  O   UNL     1      -3.870  12.687  19.825  0.00  0.00    +0.000 OA
ATOM      7  N   UNL     1      -1.634  12.092  19.555  0.00  0.00    +0.000 N 
ATOM      8  S   UNL     1      -4.776  11.435  17.131  0.00  0.00    +0.000 S 
ATOM      9  C   UNL     1      -4.054  10.681  15.635  0.00  0.00    +0.000 C 
ATOM     10  C   UNL     1      -2.695  10.090  16.042  0.00  0.00    +0.000 C 
ENDROOT
BRANCH   7  11
ATOM     11  C   UNL     1      -1.264  12.910  20.657  0.00  0.00    +0.000 A 
ATOM     12  C   UNL     1      -0.831  14.218  20.372  0.00  0.00    +0.000 A 
ATOM     13  C   UNL     1      -0.514  15.102  21.398  0.00  0.00    +0.000 A 
ATOM     14  C   UNL     1      -0.581  14.674  22.719  0.00  0.00    +0.000 A 
ATOM     15  C   UNL     1      -0.974  13.366  23.010  0.00  0.00    +0.000 A 
ATOM     16  C   UNL     1      -1.317  12.467  21.990  0.00  0.00    +0.000 A 
BRANCH  16  17
ATOM     17  O   UNL     1      -1.771  11.264  22.460  0.00  0.00    +0.000 OA
ATOM     18  C   UNL     1      -0.838  10.405  23.099  0.00  0.00    +0.000 C 
ENDBRANCH  16  17
ENDBRANCH   7  11
BRANCH   1  19
ATOM     19  S   UNL     1       0.882  11.024  19.597  0.00  0.00    +0.000 S 
BRANCH  19  20
ATOM     20  C   UNL     1       1.634   9.993  18.301  0.00  0.00    +0.000 C 
BRANCH  20  26
ATOM     21  C   UNL     1       3.473   4.260  18.888  0.00  0.00    +0.000 A 
ATOM     22  N   UNL     1       4.203   4.590  17.844  0.00  0.00    +0.000 NA
ATOM     23  N   UNL     1       3.935   5.882  17.417  0.00  0.00    +0.000 NA
ATOM     24  C   UNL     1       3.056   6.492  18.187  0.00  0.00    +0.000 A 
ATOM     25  N   UNL     1       2.640   7.789  17.958  0.00  0.00    +0.000 N 
ATOM     26  C   UNL     1       1.923   8.587  18.834  0.00  0.00    +0.000 C 
ATOM     27  O   UNL     1       1.573   8.272  19.968  0.00  0.00    +0.000 OA
ATOM     28  S   UNL     1       2.441   5.512  19.442  0.00  0.00    +0.000 S 
ATOM     29  H   UNL     1       3.004   8.178  17.100  0.00  0.00    +0.000 HD
BRANCH  21  30
ATOM     30  S   UNL     1       3.506   2.670  19.624  0.00  0.00    +0.000 S 
BRANCH  30  32
ATOM     31  C   UNL     1       1.721   2.591  21.705  0.00  0.00    +0.000 C 
ATOM     32  C   UNL     1       1.790   2.490  20.190  0.00  0.00    +0.000 C 
ENDBRANCH  30  32
ENDBRANCH  21  30
ENDBRANCH  20  26
ENDBRANCH  19  20
ENDBRANCH   1  19
TORSDOF 7
ENDMDL
MODEL 6
REMARK VINA RESULT:      -7.1      1.576      1.656
REMARK  Name = 
REMARK  9 active torsions:
REMARK  status: ('A' for Active; 'I' for Inactive)
REMARK    1  A    between atoms: C_1  and  C_2
REMARK    2  A    between atoms: C_2  and  S_3
REMARK    3  A    between atoms: S_3  and  C_4
REMARK    4  A    between atoms: C_9  and  C_11
REMARK    5  A    between atoms: C_11  and  S_12
REMARK    6  A    between atoms: S_12  and  C_13
REMARK    7  A    between atoms: N_19  and  C_20
REMARK    8  A    between atoms: C_25  and  O_26
REMARK    9  A    between atoms: O_26  and  C_27
REMARK                            x       y       z     vdW  Elec       q    Type
REMARK                         _______ _______ _______ _____ _____    ______ ____
ROOT
ATOM      1  C   UNL     1       3.491   5.718  18.424  0.00  0.00    +0.000 A 
ATOM      2  N   UNL     1       2.579   5.663  19.352  0.00  0.00    +0.000 NA
ATOM      3  C   UNL     1       2.200   4.412  19.761  0.00  0.00    +0.000 A 
ATOM      4  C   UNL     1       2.581   3.272  19.191  0.00  0.00    +0.000 A 
ATOM      5  C   UNL     1       3.547   3.319  18.080  0.00  0.00    +0.000 A 
ATOM      6  O   UNL     1       3.850   2.302  17.453  0.00  0.00    +0.000 OA
ATOM      7  N   UNL     1       4.072   4.586  17.847  0.00  0.00    +0.000 N 
ATOM      8  S   UNL     1       1.939   1.830  19.855  0.00  0.00    +0.000 S 
ATOM      9  C   UNL     1       1.268   2.726  21.295  0.00  0.00    +0.000 C 
ATOM     10  C   UNL     1       1.285   4.221  20.941  0.00  0.00    +0.000 C 
ENDROOT
BRANCH   7  11
ATOM     11  C   UNL     1       5.135   4.665  16.907  0.00  0.00    +0.000 A 
ATOM     12  C   UNL     1       4.788   4.832  15.554  0.00  0.00    +0.000 A 
ATOM     13  C   UNL     1       5.770   4.984  14.581  0.00  0.00    +0.000 A 
ATOM     14  C   UNL     1       7.111   4.923  14.942  0.00  0.00    +0.000 A 
ATOM     15  C   UNL     1       7.466   4.721  16.278  0.00  0.00    +0.000 A 
ATOM     16  C   UNL     1       6.489   4.586  17.276  0.00  0.00    +0.000 A 
BRANCH  16  17
ATOM     17  O   UNL     1       7.015   4.493  18.537  0.00  0.00    +0.000 OA
ATOM     18  C   UNL     1       7.229   5.699  19.257  0.00  0.00    +0.000 C 
ENDBRANCH  16  17
ENDBRANCH   7  11
BRANCH   1  19
ATOM     19  S   UNL     1       4.012   7.318  17.897  0.00  0.00    +0.000 S 
BRANCH  19  20
ATOM     20  C   UNL     1       2.413   8.019  17.386  0.00  0.00    +0.000 C 
BRANCH  20  26
ATOM     21  C   UNL     1       0.075  12.610  20.557  0.00  0.00    +0.000 A 
ATOM     22  N   UNL     1      -0.142  13.081  19.348  0.00  0.00    +0.000 NA
ATOM     23  N   UNL     1       0.370  12.242  18.370  0.00  0.00    +0.000 NA
ATOM     24  C   UNL     1       0.904  11.150  18.876  0.00  0.00    +0.000 A 
ATOM     25  N   UNL     1       1.472  10.166  18.091  0.00  0.00    +0.000 N 
ATOM     26  C   UNL     1       1.829   8.892  18.501  0.00  0.00    +0.000 C 
ATOM     27  O   UNL     1       1.665   8.429  19.626  0.00  0.00    +0.000 OA
ATOM     28  S   UNL     1       0.883  11.097  20.582  0.00  0.00    +0.000 S 
ATOM     29  H   UNL     1       1.517  10.414  17.112  0.00  0.00    +0.000 HD
BRANCH  21  30
ATOM     30  S   UNL     1      -0.372  13.464  22.021  0.00  0.00    +0.000 S 
BRANCH  30  32
ATOM     31  C   UNL     1      -2.727  12.356  22.886  0.00  0.00    +0.000 C 
ATOM     32  C   UNL     1      -1.221  12.164  22.963  0.00  0.00    +0.000 C 
ENDBRANCH  30  32
ENDBRANCH  21  30
ENDBRANCH  20  26
ENDBRANCH  19  20
ENDBRANCH   1  19
TORSDOF 7
ENDMDL
MODEL 7
REMARK VINA RESULT:      -7.1      5.362      7.952
REMARK  Name = 
REMARK  9 active torsions:
REMARK  status: ('A' for Active; 'I' for Inactive)
REMARK    1  A    between atoms: C_1  and  C_2
REMARK    2  A    between atoms: C_2  and  S_3
REMARK    3  A    between atoms: S_3  and  C_4
REMARK    4  A    between atoms: C_9  and  C_11
REMARK    5  A    between atoms: C_11  and  S_12
REMARK    6  A    between atoms: S_12  and  C_13
REMARK    7  A    between atoms: N_19  and  C_20
REMARK    8  A    between atoms: C_25  and  O_26
REMARK    9  A    between atoms: O_26  and  C_27
REMARK                            x       y       z     vdW  Elec       q    Type
REMARK                         _______ _______ _______ _____ _____    ______ ____
ROOT
ATOM      1  C   UNL     1       6.781   5.829  16.714  0.00  0.00    +0.000 A 
ATOM      2  N   UNL     1       7.585   5.670  15.702  0.00  0.00    +0.000 NA
ATOM      3  C   UNL     1       7.083   4.987  14.627  0.00  0.00    +0.000 A 
ATOM      4  C   UNL     1       5.909   4.360  14.598  0.00  0.00    +0.000 A 
ATOM      5  C   UNL     1       5.022   4.455  15.769  0.00  0.00    +0.000 A 
ATOM      6  O   UNL     1       3.973   3.809  15.832  0.00  0.00    +0.000 OA
ATOM      7  N   UNL     1       5.473   5.340  16.744  0.00  0.00    +0.000 N 
ATOM      8  S   UNL     1       5.516   3.534  13.150  0.00  0.00    +0.000 S 
ATOM      9  C   UNL     1       6.919   4.296  12.268  0.00  0.00    +0.000 C 
ATOM     10  C   UNL     1       7.851   4.888  13.336  0.00  0.00    +0.000 C 
ENDROOT
BRANCH   7  11
ATOM     11  C   UNL     1       4.579   5.606  17.816  0.00  0.00    +0.000 A 
ATOM     12  C   UNL     1       3.738   6.726  17.690  0.00  0.00    +0.000 A 
ATOM     13  C   UNL     1       2.789   7.017  18.665  0.00  0.00    +0.000 A 
ATOM     14  C   UNL     1       2.703   6.219  19.800  0.00  0.00    +0.000 A 
ATOM     15  C   UNL     1       3.558   5.125  19.951  0.00  0.00    +0.000 A 
ATOM     16  C   UNL     1       4.508   4.806  18.969  0.00  0.00    +0.000 A 
BRANCH  16  17
ATOM     17  O   UNL     1       5.191   3.649  19.235  0.00  0.00    +0.000 OA
ATOM     18  C   UNL     1       4.435   2.485  19.535  0.00  0.00    +0.000 C 
ENDBRANCH  16  17
ENDBRANCH   7  11
BRANCH   1  19
ATOM     19  S   UNL     1       7.398   6.727  18.102  0.00  0.00    +0.000 S 
BRANCH  19  20
ATOM     20  C   UNL     1       7.218   8.428  17.484  0.00  0.00    +0.000 C 
BRANCH  20  26
ATOM     21  C   UNL     1      10.798  13.120  18.815  0.00  0.00    +0.000 A 
ATOM     22  N   UNL     1       9.865  13.771  18.154  0.00  0.00    +0.000 NA
ATOM     23  N   UNL     1       8.901  12.914  17.645  0.00  0.00    +0.000 NA
ATOM     24  C   UNL     1       9.117  11.659  17.987  0.00  0.00    +0.000 A 
ATOM     25  N   UNL     1       8.284  10.629  17.598  0.00  0.00    +0.000 N 
ATOM     26  C   UNL     1       8.285   9.338  18.101  0.00  0.00    +0.000 C 
ATOM     27  O   UNL     1       9.011   8.919  18.997  0.00  0.00    +0.000 OA
ATOM     28  S   UNL     1      10.545  11.426  18.892  0.00  0.00    +0.000 S 
ATOM     29  H   UNL     1       7.559  10.922  16.958  0.00  0.00    +0.000 HD
BRANCH  21  30
ATOM     30  S   UNL     1      12.205  13.897  19.515  0.00  0.00    +0.000 S 
BRANCH  30  32
ATOM     31  C   UNL     1      12.159  16.606  19.092  0.00  0.00    +0.000 C 
ATOM     32  C   UNL     1      11.541  15.526  19.965  0.00  0.00    +0.000 C 
ENDBRANCH  30  32
ENDBRANCH  21  30
ENDBRANCH  20  26
ENDBRANCH  19  20
ENDBRANCH   1  19
TORSDOF 7
ENDMDL
MODEL 8
REMARK VINA RESULT:      -7.1      3.336      9.858
REMARK  Name = 
REMARK  9 active torsions:
REMARK  status: ('A' for Active; 'I' for Inactive)
REMARK    1  A    between atoms: C_1  and  C_2
REMARK    2  A    between atoms: C_2  and  S_3
REMARK    3  A    between atoms: S_3  and  C_4
REMARK    4  A    between atoms: C_9  and  C_11
REMARK    5  A    between atoms: C_11  and  S_12
REMARK    6  A    between atoms: S_12  and  C_13
REMARK    7  A    between atoms: N_19  and  C_20
REMARK    8  A    between atoms: C_25  and  O_26
REMARK    9  A    between atoms: O_26  and  C_27
REMARK                            x       y       z     vdW  Elec       q    Type
REMARK                         _______ _______ _______ _____ _____    ______ ____
ROOT
ATOM      1  C   UNL     1      -0.821  11.176  18.933  0.00  0.00    +0.000 A 
ATOM      2  N   UNL     1      -1.039  10.525  17.827  0.00  0.00    +0.000 NA
ATOM      3  C   UNL     1      -2.269  10.697  17.251  0.00  0.00    +0.000 A 
ATOM      4  C   UNL     1      -3.288  11.351  17.804  0.00  0.00    +0.000 A 
ATOM      5  C   UNL     1      -3.087  12.021  19.099  0.00  0.00    +0.000 A 
ATOM      6  O   UNL     1      -4.025  12.550  19.699  0.00  0.00    +0.000 OA
ATOM      7  N   UNL     1      -1.766  12.009  19.537  0.00  0.00    +0.000 N 
ATOM      8  S   UNL     1      -4.747  11.395  16.908  0.00  0.00    +0.000 S 
ATOM      9  C   UNL     1      -3.925  10.718  15.427  0.00  0.00    +0.000 C 
ATOM     10  C   UNL     1      -2.579  10.137  15.889  0.00  0.00    +0.000 C 
ENDROOT
BRANCH   7  11
ATOM     11  C   UNL     1      -1.476  12.788  20.691  0.00  0.00    +0.000 A 
ATOM     12  C   UNL     1      -1.675  12.181  21.944  0.00  0.00    +0.000 A 
ATOM     13  C   UNL     1      -1.353  12.852  23.119  0.00  0.00    +0.000 A 
ATOM     14  C   UNL     1      -0.873  14.156  23.056  0.00  0.00    +0.000 A 
ATOM     15  C   UNL     1      -0.706  14.780  21.817  0.00  0.00    +0.000 A 
ATOM     16  C   UNL     1      -1.007  14.111  20.621  0.00  0.00    +0.000 A 
BRANCH  16  17
ATOM     17  O   UNL     1      -0.692  14.836  19.504  0.00  0.00    +0.000 OA
ATOM     18  C   UNL     1      -0.842  16.247  19.563  0.00  0.00    +0.000 C 
ENDBRANCH  16  17
ENDBRANCH   7  11
BRANCH   1  19
ATOM     19  S   UNL     1       0.766  10.989  19.681  0.00  0.00    +0.000 S 
BRANCH  19  20
ATOM     20  C   UNL     1       1.607  10.009  18.400  0.00  0.00    +0.000 C 
BRANCH  20  26
ATOM     21  C   UNL     1       3.466   4.274  18.898  0.00  0.00    +0.000 A 
ATOM     22  N   UNL     1       4.166   4.612  17.836  0.00  0.00    +0.000 NA
ATOM     23  N   UNL     1       3.886   5.907  17.426  0.00  0.00    +0.000 NA
ATOM     24  C   UNL     1       3.028   6.510  18.223  0.00  0.00    +0.000 A 
ATOM     25  N   UNL     1       2.605   7.808  18.015  0.00  0.00    +0.000 N 
ATOM     26  C   UNL     1       1.912   8.600  18.916  0.00  0.00    +0.000 C 
ATOM     27  O   UNL     1       1.593   8.277  20.056  0.00  0.00    +0.000 OA
ATOM     28  S   UNL     1       2.448   5.522  19.489  0.00  0.00    +0.000 S 
ATOM     29  H   UNL     1       2.945   8.204  17.150  0.00  0.00    +0.000 HD
BRANCH  21  30
ATOM     30  S   UNL     1       3.520   2.679  19.622  0.00  0.00    +0.000 S 
BRANCH  30  32
ATOM     31  C   UNL     1       1.679   2.597  21.653  0.00  0.00    +0.000 C 
ATOM     32  C   UNL     1       1.796   2.452  20.145  0.00  0.00    +0.000 C 
ENDBRANCH  30  32
ENDBRANCH  21  30
ENDBRANCH  20  26
ENDBRANCH  19  20
ENDBRANCH   1  19
TORSDOF 7
ENDMDL
MODEL 9
REMARK VINA RESULT:      -7.1      1.806      4.501
REMARK  Name = 
REMARK  9 active torsions:
REMARK  status: ('A' for Active; 'I' for Inactive)
REMARK    1  A    between atoms: C_1  and  C_2
REMARK    2  A    between atoms: C_2  and  S_3
REMARK    3  A    between atoms: S_3  and  C_4
REMARK    4  A    between atoms: C_9  and  C_11
REMARK    5  A    between atoms: C_11  and  S_12
REMARK    6  A    between atoms: S_12  and  C_13
REMARK    7  A    between atoms: N_19  and  C_20
REMARK    8  A    between atoms: C_25  and  O_26
REMARK    9  A    between atoms: O_26  and  C_27
REMARK                            x       y       z     vdW  Elec       q    Type
REMARK                         _______ _______ _______ _____ _____    ______ ____
ROOT
ATOM      1  C   UNL     1       3.438   6.210  18.501  0.00  0.00    +0.000 A 
ATOM      2  N   UNL     1       4.248   6.911  17.760  0.00  0.00    +0.000 NA
ATOM      3  C   UNL     1       5.446   6.326  17.445  0.00  0.00    +0.000 A 
ATOM      4  C   UNL     1       5.894   5.180  17.951  0.00  0.00    +0.000 A 
ATOM      5  C   UNL     1       5.027   4.415  18.863  0.00  0.00    +0.000 A 
ATOM      6  O   UNL     1       5.436   3.403  19.437  0.00  0.00    +0.000 OA
ATOM      7  N   UNL     1       3.740   4.931  18.976  0.00  0.00    +0.000 N 
ATOM      8  S   UNL     1       7.447   4.670  17.437  0.00  0.00    +0.000 S 
ATOM      9  C   UNL     1       7.496   5.945  16.134  0.00  0.00    +0.000 C 
ATOM     10  C   UNL     1       6.389   6.960  16.459  0.00  0.00    +0.000 C 
ENDROOT
BRANCH   7  11
ATOM     11  C   UNL     1       2.806   4.143  19.702  0.00  0.00    +0.000 A 
ATOM     12  C   UNL     1       2.803   4.273  21.103  0.00  0.00    +0.000 A 
ATOM     13  C   UNL     1       1.876   3.587  21.880  0.00  0.00    +0.000 A 
ATOM     14  C   UNL     1       0.972   2.725  21.269  0.00  0.00    +0.000 A 
ATOM     15  C   UNL     1       0.990   2.562  19.882  0.00  0.00    +0.000 A 
ATOM     16  C   UNL     1       1.905   3.261  19.081  0.00  0.00    +0.000 A 
BRANCH  16  17
ATOM     17  O   UNL     1       1.716   3.055  17.741  0.00  0.00    +0.000 OA
ATOM     18  C   UNL     1       2.689   2.291  17.043  0.00  0.00    +0.000 C 
ENDBRANCH  16  17
ENDBRANCH   7  11
BRANCH   1  19
ATOM     19  S   UNL     1       1.880   6.933  18.900  0.00  0.00    +0.000 S 
BRANCH  19  20
ATOM     20  C   UNL     1       2.065   8.552  18.093  0.00  0.00    +0.000 C 
BRANCH  20  26
ATOM     21  C   UNL     1      -0.728  11.659  22.468  0.00  0.00    +0.000 A 
ATOM     22  N   UNL     1      -0.206  10.707  23.211  0.00  0.00    +0.000 NA
ATOM     23  N   UNL     1       0.465   9.765  22.445  0.00  0.00    +0.000 NA
ATOM     24  C   UNL     1       0.467  10.073  21.164  0.00  0.00    +0.000 A 
ATOM     25  N   UNL     1       1.081   9.283  20.210  0.00  0.00    +0.000 N 
ATOM     26  C   UNL     1       1.348   9.639  18.899  0.00  0.00    +0.000 C 
ATOM     27  O   UNL     1       1.107  10.729  18.389  0.00  0.00    +0.000 OA
ATOM     28  S   UNL     1      -0.406  11.492  20.792  0.00  0.00    +0.000 S 
ATOM     29  H   UNL     1       1.438   8.415  20.583  0.00  0.00    +0.000 HD
BRANCH  21  30
ATOM     30  S   UNL     1      -1.709  12.959  23.115  0.00  0.00    +0.000 S 
BRANCH  30  32
ATOM     31  C   UNL     1      -4.079  12.935  24.495  0.00  0.00    +0.000 C 
ATOM     32  C   UNL     1      -3.235  12.082  23.562  0.00  0.00    +0.000 C 
ENDBRANCH  30  32
ENDBRANCH  21  30
ENDBRANCH  20  26
ENDBRANCH  19  20
ENDBRANCH   1  19
TORSDOF 7
ENDMDL
