MODEL 1
REMARK VINA RESULT:      -6.7      0.000      0.000
REMARK  Name = 
REMARK  12 active torsions:
REMARK  status: ('A' for Active; 'I' for Inactive)
REMARK    1  A    between atoms: C_1  and  C_2
REMARK    2  A    between atoms: C_2  and  N_3
REMARK    3  A    between atoms: N_3  and  C_4
REMARK    4  A    between atoms: N_3  and  C_6
REMARK    5  A    between atoms: C_4  and  C_5
REMARK    6  A    between atoms: C_6  and  C_7
REMARK    7  A    between atoms: C_7  and  O_8
REMARK    8  A    between atoms: O_8  and  C_9
REMARK    9  A    between atoms: C_9  and  C_11
REMARK   10  A    between atoms: C_14  and  N_15
REMARK   11  A    between atoms: C_16  and  C_18
REMARK   12  A    between atoms: C_19  and  C_20
REMARK                            x       y       z     vdW  Elec       q    Type
REMARK                         _______ _______ _______ _____ _____    ______ ____
ROOT
ATOM      1  C   UNL     1       4.252   4.531  17.076  0.00  0.00    +0.000 A 
ATOM      2  C   UNL     1       5.583   4.367  16.695  0.00  0.00    +0.000 A 
ATOM      3  C   UNL     1       6.453   5.459  16.700  0.00  0.00    +0.000 A 
ATOM      4  C   UNL     1       6.019   6.733  17.080  0.00  0.00    +0.000 A 
ATOM      5  C   UNL     1       4.681   6.896  17.460  0.00  0.00    +0.000 A 
ATOM      6  C   UNL     1       3.803   5.802  17.459  0.00  0.00    +0.000 A 
ENDROOT
BRANCH   4   7
ATOM      7  N   UNL     1       6.864   7.870  17.103  0.00  0.00    +0.000 N 
ATOM      8  C   UNL     1       7.930   8.054  17.960  0.00  0.00    +0.000 C 
ATOM      9  O   UNL     1       8.336   7.254  18.795  0.00  0.00    +0.000 OA
ATOM     10  H   UNL     1       6.655   8.601  16.437  0.00  0.00    +0.000 HD
BRANCH   8  11
ATOM     11  C   UNL     1       8.609   9.372  17.807  0.00  0.00    +0.000 C 
ATOM     12  C   UNL     1       9.074   9.934  18.935  0.00  0.00    +0.000 C 
BRANCH  12  13
ATOM     13  C   UNL     1       9.734  11.193  18.984  0.00  0.00    +0.000 A 
ATOM     14  C   UNL     1      10.902  11.598  19.607  0.00  0.00    +0.000 A 
ATOM     15  C   UNL     1      11.205  12.974  19.387  0.00  0.00    +0.000 A 
ATOM     16  C   UNL     1      10.261  13.592  18.603  0.00  0.00    +0.000 A 
ATOM     17  S   UNL     1       9.019  12.522  18.140  0.00  0.00    +0.000 S 
ENDBRANCH  12  13
ENDBRANCH   8  11
ENDBRANCH   4   7
BRANCH   1  18
ATOM     18  C   UNL     1       3.348   3.361  16.930  0.00  0.00    +0.000 C 
ATOM     19  O   UNL     1       2.222   3.426  16.462  0.00  0.00    +0.000 OA
BRANCH  18  20
ATOM     20  O   UNL     1       3.881   2.292  17.570  0.00  0.00    +0.000 OA
BRANCH  20  21
ATOM     21  C   UNL     1       2.991   1.695  18.531  0.00  0.00    +0.000 C 
BRANCH  21  22
ATOM     22  C   UNL     1       2.826   2.725  19.663  0.00  0.00    +0.000 C 
BRANCH  22  23
ATOM     23  N   UNL     1       1.462   3.180  19.974  0.00  0.00    +0.000 NA
BRANCH  23  25
ATOM     24  C   UNL     1       2.300   2.163  22.129  0.00  0.00    +0.000 C 
ATOM     25  C   UNL     1       1.165   2.852  21.383  0.00  0.00    +0.000 C 
ENDBRANCH  23  25
BRANCH  23  26
ATOM     26  C   UNL     1       1.232   4.593  19.630  0.00  0.00    +0.000 C 
ATOM     27  C   UNL     1       1.920   5.628  20.515  0.00  0.00    +0.000 C 
ENDBRANCH  23  26
ENDBRANCH  22  23
ENDBRANCH  21  22
ENDBRANCH  20  21
ENDBRANCH  18  20
ENDBRANCH   1  18
TORSDOF 10
ENDMDL
MODEL 2
REMARK VINA RESULT:      -6.4      6.154      7.996
REMARK  Name = 
REMARK  12 active torsions:
REMARK  status: ('A' for Active; 'I' for Inactive)
REMARK    1  A    between atoms: C_1  and  C_2
REMARK    2  A    between atoms: C_2  and  N_3
REMARK    3  A    between atoms: N_3  and  C_4
REMARK    4  A    between atoms: N_3  and  C_6
REMARK    5  A    between atoms: C_4  and  C_5
REMARK    6  A    between atoms: C_6  and  C_7
REMARK    7  A    between atoms: C_7  and  O_8
REMARK    8  A    between atoms: O_8  and  C_9
REMARK    9  A    between atoms: C_9  and  C_11
REMARK   10  A    between atoms: C_14  and  N_15
REMARK   11  A    between atoms: C_16  and  C_18
REMARK   12  A    between atoms: C_19  and  C_20
REMARK                            x       y       z     vdW  Elec       q    Type
REMARK                         _______ _______ _______ _____ _____    ______ ____
ROOT
ATOM      1  C   UNL     1       2.451   7.045  19.316  0.00  0.00    +0.000 A 
ATOM      2  C   UNL     1       1.801   7.558  20.437  0.00  0.00    +0.000 A 
ATOM      3  C   UNL     1       1.170   8.802  20.373  0.00  0.00    +0.000 A 
ATOM      4  C   UNL     1       1.175   9.560  19.198  0.00  0.00    +0.000 A 
ATOM      5  C   UNL     1       1.831   9.043  18.074  0.00  0.00    +0.000 A 
ATOM      6  C   UNL     1       2.465   7.793  18.132  0.00  0.00    +0.000 A 
ENDROOT
BRANCH   4   7
ATOM      7  N   UNL     1       0.548  10.825  19.085  0.00  0.00    +0.000 N 
ATOM      8  C   UNL     1      -0.749  11.037  18.662  0.00  0.00    +0.000 C 
ATOM      9  O   UNL     1      -1.566  10.173  18.366  0.00  0.00    +0.000 OA
ATOM     10  H   UNL     1       1.108  11.630  19.329  0.00  0.00    +0.000 HD
BRANCH   8  11
ATOM     11  C   UNL     1      -1.130  12.475  18.577  0.00  0.00    +0.000 C 
ATOM     12  C   UNL     1      -0.399  13.327  19.315  0.00  0.00    +0.000 C 
BRANCH  12  13
ATOM     13  C   UNL     1      -0.625  14.730  19.371  0.00  0.00    +0.000 A 
ATOM     14  C   UNL     1      -0.151  15.773  18.593  0.00  0.00    +0.000 A 
ATOM     15  C   UNL     1      -0.646  17.046  19.002  0.00  0.00    +0.000 A 
ATOM     16  C   UNL     1      -1.487  16.949  20.086  0.00  0.00    +0.000 A 
ATOM     17  S   UNL     1      -1.673  15.338  20.605  0.00  0.00    +0.000 S 
ENDBRANCH  12  13
ENDBRANCH   8  11
ENDBRANCH   4   7
BRANCH   1  18
ATOM     18  C   UNL     1       3.208   5.776  19.484  0.00  0.00    +0.000 C 
ATOM     19  O   UNL     1       2.957   4.943  20.341  0.00  0.00    +0.000 OA
BRANCH  18  20
ATOM     20  O   UNL     1       4.309   5.795  18.694  0.00  0.00    +0.000 OA
BRANCH  20  21
ATOM     21  C   UNL     1       5.281   4.792  19.038  0.00  0.00    +0.000 C 
BRANCH  21  22
ATOM     22  C   UNL     1       6.619   5.533  19.218  0.00  0.00    +0.000 C 
BRANCH  22  23
ATOM     23  N   UNL     1       7.452   5.731  18.021  0.00  0.00    +0.000 NA
BRANCH  23  25
ATOM     24  C   UNL     1       6.974   4.802  15.720  0.00  0.00    +0.000 C 
ATOM     25  C   UNL     1       7.347   4.527  17.171  0.00  0.00    +0.000 C 
ENDBRANCH  23  25
BRANCH  23  26
ATOM     26  C   UNL     1       7.157   6.987  17.313  0.00  0.00    +0.000 C 
ATOM     27  C   UNL     1       7.945   8.216  17.754  0.00  0.00    +0.000 C 
ENDBRANCH  23  26
ENDBRANCH  22  23
ENDBRANCH  21  22
ENDBRANCH  20  21
ENDBRANCH  18  20
ENDBRANCH   1  18
TORSDOF 10
ENDMDL
MODEL 3
REMARK VINA RESULT:      -6.4      5.011      7.328
REMARK  Name = 
REMARK  12 active torsions:
REMARK  status: ('A' for Active; 'I' for Inactive)
REMARK    1  A    between atoms: C_1  and  C_2
REMARK    2  A    between atoms: C_2  and  N_3
REMARK    3  A    between atoms: N_3  and  C_4
REMARK    4  A    between atoms: N_3  and  C_6
REMARK    5  A    between atoms: C_4  and  C_5
REMARK    6  A    between atoms: C_6  and  C_7
REMARK    7  A    between atoms: C_7  and  O_8
REMARK    8  A    between atoms: O_8  and  C_9
REMARK    9  A    between atoms: C_9  and  C_11
REMARK   10  A    between atoms: C_14  and  N_15
REMARK   11  A    between atoms: C_16  and  C_18
REMARK   12  A    between atoms: C_19  and  C_20
REMARK                            x       y       z     vdW  Elec       q    Type
REMARK                         _______ _______ _______ _____ _____    ______ ____
ROOT
ATOM      1  C   UNL     1       4.767   5.931  18.356  0.00  0.00    +0.000 A 
ATOM      2  C   UNL     1       4.479   6.700  17.229  0.00  0.00    +0.000 A 
ATOM      3  C   UNL     1       3.357   7.531  17.216  0.00  0.00    +0.000 A 
ATOM      4  C   UNL     1       2.499   7.612  18.317  0.00  0.00    +0.000 A 
ATOM      5  C   UNL     1       2.790   6.837  19.447  0.00  0.00    +0.000 A 
ATOM      6  C   UNL     1       3.917   6.002  19.467  0.00  0.00    +0.000 A 
ENDROOT
BRANCH   4   7
ATOM      7  N   UNL     1       1.351   8.442  18.351  0.00  0.00    +0.000 N 
ATOM      8  C   UNL     1       1.359   9.818  18.250  0.00  0.00    +0.000 C 
ATOM      9  O   UNL     1       2.342  10.527  18.070  0.00  0.00    +0.000 OA
ATOM     10  H   UNL     1       0.462   7.976  18.467  0.00  0.00    +0.000 HD
BRANCH   8  11
ATOM     11  C   UNL     1       0.011  10.441  18.380  0.00  0.00    +0.000 C 
ATOM     12  C   UNL     1      -0.896  10.093  17.453  0.00  0.00    +0.000 C 
BRANCH  12  13
ATOM     13  C   UNL     1      -2.225  10.596  17.409  0.00  0.00    +0.000 A 
ATOM     14  C   UNL     1      -2.997  11.248  18.356  0.00  0.00    +0.000 A 
ATOM     15  C   UNL     1      -4.297  11.588  17.880  0.00  0.00    +0.000 A 
ATOM     16  C   UNL     1      -4.493  11.188  16.580  0.00  0.00    +0.000 A 
ATOM     17  S   UNL     1      -3.121  10.406  15.942  0.00  0.00    +0.000 S 
ENDBRANCH  12  13
ENDBRANCH   8  11
ENDBRANCH   4   7
BRANCH   1  18
ATOM     18  C   UNL     1       5.902   4.976  18.262  0.00  0.00    +0.000 C 
ATOM     19  O   UNL     1       6.842   5.110  17.493  0.00  0.00    +0.000 OA
BRANCH  18  20
ATOM     20  O   UNL     1       5.626   3.869  18.993  0.00  0.00    +0.000 OA
BRANCH  20  21
ATOM     21  C   UNL     1       4.726   2.956  18.337  0.00  0.00    +0.000 C 
BRANCH  21  22
ATOM     22  C   UNL     1       3.987   2.202  19.458  0.00  0.00    +0.000 C 
BRANCH  22  23
ATOM     23  N   UNL     1       2.517   2.272  19.468  0.00  0.00    +0.000 NA
BRANCH  23  25
ATOM     24  C   UNL     1       1.335   2.649  21.669  0.00  0.00    +0.000 C 
ATOM     25  C   UNL     1       2.100   3.248  20.496  0.00  0.00    +0.000 C 
ENDBRANCH  23  25
BRANCH  23  26
ATOM     26  C   UNL     1       1.942   2.526  18.138  0.00  0.00    +0.000 C 
ATOM     27  C   UNL     1       1.323   3.903  17.917  0.00  0.00    +0.000 C 
ENDBRANCH  23  26
ENDBRANCH  22  23
ENDBRANCH  21  22
ENDBRANCH  20  21
ENDBRANCH  18  20
ENDBRANCH   1  18
TORSDOF 10
ENDMDL
MODEL 4
REMARK VINA RESULT:      -6.4      4.690      7.616
REMARK  Name = 
REMARK  12 active torsions:
REMARK  status: ('A' for Active; 'I' for Inactive)
REMARK    1  A    between atoms: C_1  and  C_2
REMARK    2  A    between atoms: C_2  and  N_3
REMARK    3  A    between atoms: N_3  and  C_4
REMARK    4  A    between atoms: N_3  and  C_6
REMARK    5  A    between atoms: C_4  and  C_5
REMARK    6  A    between atoms: C_6  and  C_7
REMARK    7  A    between atoms: C_7  and  O_8
REMARK    8  A    between atoms: O_8  and  C_9
REMARK    9  A    between atoms: C_9  and  C_11
REMARK   10  A    between atoms: C_14  and  N_15
REMARK   11  A    between atoms: C_16  and  C_18
REMARK   12  A    between atoms: C_19  and  C_20
REMARK                            x       y       z     vdW  Elec       q    Type
REMARK                         _______ _______ _______ _____ _____    ______ ____
ROOT
ATOM      1  C   UNL     1       3.633   5.090  18.590  0.00  0.00    +0.000 A 
ATOM      2  C   UNL     1       2.974   5.162  19.815  0.00  0.00    +0.000 A 
ATOM      3  C   UNL     1       2.263   6.313  20.162  0.00  0.00    +0.000 A 
ATOM      4  C   UNL     1       2.197   7.414  19.302  0.00  0.00    +0.000 A 
ATOM      5  C   UNL     1       2.862   7.339  18.072  0.00  0.00    +0.000 A 
ATOM      6  C   UNL     1       3.575   6.184  17.717  0.00  0.00    +0.000 A 
ENDROOT
BRANCH   4   7
ATOM      7  N   UNL     1       1.488   8.601  19.609  0.00  0.00    +0.000 N 
ATOM      8  C   UNL     1       1.276   9.651  18.738  0.00  0.00    +0.000 C 
ATOM      9  O   UNL     1       1.623   9.701  17.565  0.00  0.00    +0.000 OA
ATOM     10  H   UNL     1       1.119   8.676  20.547  0.00  0.00    +0.000 HD
BRANCH   8  11
ATOM     11  C   UNL     1       0.551  10.803  19.346  0.00  0.00    +0.000 C 
ATOM     12  C   UNL     1      -0.366  10.502  20.280  0.00  0.00    +0.000 C 
BRANCH  12  13
ATOM     13  C   UNL     1      -1.163  11.466  20.956  0.00  0.00    +0.000 A 
ATOM     14  C   UNL     1      -2.048  12.423  20.488  0.00  0.00    +0.000 A 
ATOM     15  C   UNL     1      -2.647  13.188  21.531  0.00  0.00    +0.000 A 
ATOM     16  C   UNL     1      -2.206  12.801  22.774  0.00  0.00    +0.000 A 
ATOM     17  S   UNL     1      -1.076  11.530  22.681  0.00  0.00    +0.000 S 
ENDBRANCH  12  13
ENDBRANCH   8  11
ENDBRANCH   4   7
BRANCH   1  18
ATOM     18  C   UNL     1       4.472   3.890  18.332  0.00  0.00    +0.000 C 
ATOM     19  O   UNL     1       4.137   2.971  17.601  0.00  0.00    +0.000 OA
BRANCH  18  20
ATOM     20  O   UNL     1       5.535   3.890  19.173  0.00  0.00    +0.000 OA
BRANCH  20  21
ATOM     21  C   UNL     1       6.375   5.051  19.038  0.00  0.00    +0.000 C 
BRANCH  21  22
ATOM     22  C   UNL     1       7.227   4.820  17.775  0.00  0.00    +0.000 C 
BRANCH  22  23
ATOM     23  N   UNL     1       7.280   5.907  16.785  0.00  0.00    +0.000 NA
BRANCH  23  25
ATOM     24  C   UNL     1       6.549   4.036  15.253  0.00  0.00    +0.000 C 
ATOM     25  C   UNL     1       6.474   5.515  15.611  0.00  0.00    +0.000 C 
ENDBRANCH  23  25
BRANCH  23  26
ATOM     26  C   UNL     1       6.916   7.218  17.346  0.00  0.00    +0.000 C 
ATOM     27  C   UNL     1       8.072   8.121  17.767  0.00  0.00    +0.000 C 
ENDBRANCH  23  26
ENDBRANCH  22  23
ENDBRANCH  21  22
ENDBRANCH  20  21
ENDBRANCH  18  20
ENDBRANCH   1  18
TORSDOF 10
ENDMDL
MODEL 5
REMARK VINA RESULT:      -6.3      6.191      8.811
REMARK  Name = 
REMARK  12 active torsions:
REMARK  status: ('A' for Active; 'I' for Inactive)
REMARK    1  A    between atoms: C_1  and  C_2
REMARK    2  A    between atoms: C_2  and  N_3
REMARK    3  A    between atoms: N_3  and  C_4
REMARK    4  A    between atoms: N_3  and  C_6
REMARK    5  A    between atoms: C_4  and  C_5
REMARK    6  A    between atoms: C_6  and  C_7
REMARK    7  A    between atoms: C_7  and  O_8
REMARK    8  A    between atoms: O_8  and  C_9
REMARK    9  A    between atoms: C_9  and  C_11
REMARK   10  A    between atoms: C_14  and  N_15
REMARK   11  A    between atoms: C_16  and  C_18
REMARK   12  A    between atoms: C_19  and  C_20
REMARK                            x       y       z     vdW  Elec       q    Type
REMARK                         _______ _______ _______ _____ _____    ______ ____
ROOT
ATOM      1  C   UNL     1       2.526   7.567  18.620  0.00  0.00    +0.000 A 
ATOM      2  C   UNL     1       2.001   8.603  17.850  0.00  0.00    +0.000 A 
ATOM      3  C   UNL     1       1.089   9.501  18.410  0.00  0.00    +0.000 A 
ATOM      4  C   UNL     1       0.679   9.384  19.743  0.00  0.00    +0.000 A 
ATOM      5  C   UNL     1       1.207   8.340  20.513  0.00  0.00    +0.000 A 
ATOM      6  C   UNL     1       2.125   7.437  19.956  0.00  0.00    +0.000 A 
ENDROOT
BRANCH   4   7
ATOM      7  N   UNL     1      -0.240  10.270  20.355  0.00  0.00    +0.000 N 
ATOM      8  C   UNL     1       0.099  11.379  21.105  0.00  0.00    +0.000 C 
ATOM      9  O   UNL     1       1.232  11.792  21.316  0.00  0.00    +0.000 OA
ATOM     10  H   UNL     1      -1.221  10.058  20.232  0.00  0.00    +0.000 HD
BRANCH   8  11
ATOM     11  C   UNL     1      -1.072  12.097  21.684  0.00  0.00    +0.000 C 
ATOM     12  C   UNL     1      -0.822  12.873  22.752  0.00  0.00    +0.000 C 
BRANCH  12  13
ATOM     13  C   UNL     1      -1.815  13.620  23.445  0.00  0.00    +0.000 A 
ATOM     14  C   UNL     1      -3.181  13.439  23.574  0.00  0.00    +0.000 A 
ATOM     15  C   UNL     1      -3.803  14.439  24.379  0.00  0.00    +0.000 A 
ATOM     16  C   UNL     1      -2.899  15.363  24.845  0.00  0.00    +0.000 A 
ATOM     17  S   UNL     1      -1.316  15.029  24.313  0.00  0.00    +0.000 S 
ENDBRANCH  12  13
ENDBRANCH   8  11
ENDBRANCH   4   7
BRANCH   1  18
ATOM     18  C   UNL     1       3.393   6.574  17.933  0.00  0.00    +0.000 C 
ATOM     19  O   UNL     1       3.106   5.393  17.806  0.00  0.00    +0.000 OA
BRANCH  18  20
ATOM     20  O   UNL     1       4.599   7.131  17.667  0.00  0.00    +0.000 OA
BRANCH  20  21
ATOM     21  C   UNL     1       5.198   6.649  16.450  0.00  0.00    +0.000 C 
BRANCH  21  22
ATOM     22  C   UNL     1       6.714   6.587  16.712  0.00  0.00    +0.000 C 
BRANCH  22  23
ATOM     23  N   UNL     1       7.377   5.282  16.558  0.00  0.00    +0.000 NA
BRANCH  23  25
ATOM     24  C   UNL     1       7.789   5.706  19.014  0.00  0.00    +0.000 C 
ATOM     25  C   UNL     1       7.573   4.693  17.898  0.00  0.00    +0.000 C 
ENDBRANCH  23  25
BRANCH  23  26
ATOM     26  C   UNL     1       6.687   4.392  15.611  0.00  0.00    +0.000 C 
ATOM     27  C   UNL     1       6.907   4.677  14.128  0.00  0.00    +0.000 C 
ENDBRANCH  23  26
ENDBRANCH  22  23
ENDBRANCH  21  22
ENDBRANCH  20  21
ENDBRANCH  18  20
ENDBRANCH   1  18
TORSDOF 10
ENDMDL
MODEL 6
REMARK VINA RESULT:      -6.3      5.456      7.673
REMARK  Name = 
REMARK  12 active torsions:
REMARK  status: ('A' for Active; 'I' for Inactive)
REMARK    1  A    between atoms: C_1  and  C_2
REMARK    2  A    between atoms: C_2  and  N_3
REMARK    3  A    between atoms: N_3  and  C_4
REMARK    4  A    between atoms: N_3  and  C_6
REMARK    5  A    between atoms: C_4  and  C_5
REMARK    6  A    between atoms: C_6  and  C_7
REMARK    7  A    between atoms: C_7  and  O_8
REMARK    8  A    between atoms: O_8  and  C_9
REMARK    9  A    between atoms: C_9  and  C_11
REMARK   10  A    between atoms: C_14  and  N_15
REMARK   11  A    between atoms: C_16  and  C_18
REMARK   12  A    between atoms: C_19  and  C_20
REMARK                            x       y       z     vdW  Elec       q    Type
REMARK                         _______ _______ _______ _____ _____    ______ ____
ROOT
ATOM      1  C   UNL     1       2.997   7.099  18.241  0.00  0.00    +0.000 A 
ATOM      2  C   UNL     1       2.495   6.872  19.521  0.00  0.00    +0.000 A 
ATOM      3  C   UNL     1       1.663   7.816  20.127  0.00  0.00    +0.000 A 
ATOM      4  C   UNL     1       1.317   9.004  19.475  0.00  0.00    +0.000 A 
ATOM      5  C   UNL     1       1.825   9.231  18.190  0.00  0.00    +0.000 A 
ATOM      6  C   UNL     1       2.659   8.285  17.576  0.00  0.00    +0.000 A 
ENDROOT
BRANCH   4   7
ATOM      7  N   UNL     1       0.476   9.990  20.047  0.00  0.00    +0.000 N 
ATOM      8  C   UNL     1      -0.645  10.527  19.447  0.00  0.00    +0.000 C 
ATOM      9  O   UNL     1      -1.110  10.206  18.360  0.00  0.00    +0.000 OA
ATOM     10  H   UNL     1       0.733  10.324  20.966  0.00  0.00    +0.000 HD
BRANCH   8  11
ATOM     11  C   UNL     1      -1.307  11.594  20.250  0.00  0.00    +0.000 C 
ATOM     12  C   UNL     1      -1.121  11.539  21.579  0.00  0.00    +0.000 C 
BRANCH  12  13
ATOM     13  C   UNL     1      -1.686  12.462  22.502  0.00  0.00    +0.000 A 
ATOM     14  C   UNL     1      -2.834  12.408  23.274  0.00  0.00    +0.000 A 
ATOM     15  C   UNL     1      -3.020  13.569  24.080  0.00  0.00    +0.000 A 
ATOM     16  C   UNL     1      -2.013  14.487  23.905  0.00  0.00    +0.000 A 
ATOM     17  S   UNL     1      -0.855  13.953  22.776  0.00  0.00    +0.000 S 
ENDBRANCH  12  13
ENDBRANCH   8  11
ENDBRANCH   4   7
BRANCH   1  18
ATOM     18  C   UNL     1       3.974   6.117  17.703  0.00  0.00    +0.000 C 
ATOM     19  O   UNL     1       5.122   6.400  17.393  0.00  0.00    +0.000 OA
BRANCH  18  20
ATOM     20  O   UNL     1       3.343   4.950  17.430  0.00  0.00    +0.000 OA
BRANCH  20  21
ATOM     21  C   UNL     1       4.154   3.787  17.675  0.00  0.00    +0.000 C 
BRANCH  21  22
ATOM     22  C   UNL     1       4.216   3.620  19.205  0.00  0.00    +0.000 C 
BRANCH  22  23
ATOM     23  N   UNL     1       3.250   2.700  19.827  0.00  0.00    +0.000 NA
BRANCH  23  25
ATOM     24  C   UNL     1       1.721   2.592  21.835  0.00  0.00    +0.000 C 
ATOM     25  C   UNL     1       2.449   3.454  20.812  0.00  0.00    +0.000 C 
ENDBRANCH  23  25
BRANCH  23  26
ATOM     26  C   UNL     1       2.443   1.958  18.844  0.00  0.00    +0.000 C 
ATOM     27  C   UNL     1       1.011   2.443  18.638  0.00  0.00    +0.000 C 
ENDBRANCH  23  26
ENDBRANCH  22  23
ENDBRANCH  21  22
ENDBRANCH  20  21
ENDBRANCH  18  20
ENDBRANCH   1  18
TORSDOF 10
ENDMDL
MODEL 7
REMARK VINA RESULT:      -6.3      6.356      9.106
REMARK  Name = 
REMARK  12 active torsions:
REMARK  status: ('A' for Active; 'I' for Inactive)
REMARK    1  A    between atoms: C_1  and  C_2
REMARK    2  A    between atoms: C_2  and  N_3
REMARK    3  A    between atoms: N_3  and  C_4
REMARK    4  A    between atoms: N_3  and  C_6
REMARK    5  A    between atoms: C_4  and  C_5
REMARK    6  A    between atoms: C_6  and  C_7
REMARK    7  A    between atoms: C_7  and  O_8
REMARK    8  A    between atoms: O_8  and  C_9
REMARK    9  A    between atoms: C_9  and  C_11
REMARK   10  A    between atoms: C_14  and  N_15
REMARK   11  A    between atoms: C_16  and  C_18
REMARK   12  A    between atoms: C_19  and  C_20
REMARK                            x       y       z     vdW  Elec       q    Type
REMARK                         _______ _______ _______ _____ _____    ______ ____
ROOT
ATOM      1  C   UNL     1       2.284   7.719  18.785  0.00  0.00    +0.000 A 
ATOM      2  C   UNL     1       1.872   8.795  18.002  0.00  0.00    +0.000 A 
ATOM      3  C   UNL     1       1.093   9.811  18.559  0.00  0.00    +0.000 A 
ATOM      4  C   UNL     1       0.705   9.775  19.903  0.00  0.00    +0.000 A 
ATOM      5  C   UNL     1       1.119   8.691  20.687  0.00  0.00    +0.000 A 
ATOM      6  C   UNL     1       1.904   7.669  20.133  0.00  0.00    +0.000 A 
ENDROOT
BRANCH   4   7
ATOM      7  N   UNL     1      -0.083  10.782  20.513  0.00  0.00    +0.000 N 
ATOM      8  C   UNL     1       0.408  11.925  21.112  0.00  0.00    +0.000 C 
ATOM      9  O   UNL     1       1.583  12.267  21.167  0.00  0.00    +0.000 OA
ATOM     10  H   UNL     1      -1.083  10.635  20.510  0.00  0.00    +0.000 HD
BRANCH   8  11
ATOM     11  C   UNL     1      -0.643  12.781  21.731  0.00  0.00    +0.000 C 
ATOM     12  C   UNL     1      -1.863  12.233  21.847  0.00  0.00    +0.000 C 
BRANCH  12  13
ATOM     13  C   UNL     1      -2.990  12.904  22.398  0.00  0.00    +0.000 A 
ATOM     14  C   UNL     1      -3.133  13.693  23.526  0.00  0.00    +0.000 A 
ATOM     15  C   UNL     1      -4.461  14.179  23.704  0.00  0.00    +0.000 A 
ATOM     16  C   UNL     1      -5.307  13.748  22.709  0.00  0.00    +0.000 A 
ATOM     17  S   UNL     1      -4.504  12.765  21.574  0.00  0.00    +0.000 S 
ENDBRANCH  12  13
ENDBRANCH   8  11
ENDBRANCH   4   7
BRANCH   1  18
ATOM     18  C   UNL     1       3.004   6.611  18.104  0.00  0.00    +0.000 C 
ATOM     19  O   UNL     1       2.818   5.428  18.347  0.00  0.00    +0.000 OA
BRANCH  18  20
ATOM     20  O   UNL     1       4.009   7.117  17.350  0.00  0.00    +0.000 OA
BRANCH  20  21
ATOM     21  C   UNL     1       4.744   6.115  16.624  0.00  0.00    +0.000 C 
BRANCH  21  22
ATOM     22  C   UNL     1       6.235   6.454  16.813  0.00  0.00    +0.000 C 
BRANCH  22  23
ATOM     23  N   UNL     1       7.216   5.409  16.479  0.00  0.00    +0.000 NA
BRANCH  23  25
ATOM     24  C   UNL     1       7.792   5.620  18.929  0.00  0.00    +0.000 C 
ATOM     25  C   UNL     1       7.603   4.711  17.722  0.00  0.00    +0.000 C 
ENDBRANCH  23  25
BRANCH  23  26
ATOM     26  C   UNL     1       6.757   4.508  15.408  0.00  0.00    +0.000 C 
ATOM     27  C   UNL     1       7.030   4.961  13.977  0.00  0.00    +0.000 C 
ENDBRANCH  23  26
ENDBRANCH  22  23
ENDBRANCH  21  22
ENDBRANCH  20  21
ENDBRANCH  18  20
ENDBRANCH   1  18
TORSDOF 10
ENDMDL
MODEL 8
REMARK VINA RESULT:      -6.2      6.032      8.141
REMARK  Name = 
REMARK  12 active torsions:
REMARK  status: ('A' for Active; 'I' for Inactive)
REMARK    1  A    between atoms: C_1  and  C_2
REMARK    2  A    between atoms: C_2  and  N_3
REMARK    3  A    between atoms: N_3  and  C_4
REMARK    4  A    between atoms: N_3  and  C_6
REMARK    5  A    between atoms: C_4  and  C_5
REMARK    6  A    between atoms: C_6  and  C_7
REMARK    7  A    between atoms: C_7  and  O_8
REMARK    8  A    between atoms: O_8  and  C_9
REMARK    9  A    between atoms: C_9  and  C_11
REMARK   10  A    between atoms: C_14  and  N_15
REMARK   11  A    between atoms: C_16  and  C_18
REMARK   12  A    between atoms: C_19  and  C_20
REMARK                            x       y       z     vdW  Elec       q    Type
REMARK                         _______ _______ _______ _____ _____    ______ ____
ROOT
ATOM      1  C   UNL     1       2.757   7.662  18.350  0.00  0.00    +0.000 A 
ATOM      2  C   UNL     1       2.265   8.737  17.612  0.00  0.00    +0.000 A 
ATOM      3  C   UNL     1       1.321   9.600  18.173  0.00  0.00    +0.000 A 
ATOM      4  C   UNL     1       0.845   9.409  19.475  0.00  0.00    +0.000 A 
ATOM      5  C   UNL     1       1.340   8.327  20.213  0.00  0.00    +0.000 A 
ATOM      6  C   UNL     1       2.291   7.459  19.655  0.00  0.00    +0.000 A 
ENDROOT
BRANCH   4   7
ATOM      7  N   UNL     1      -0.109  10.257  20.087  0.00  0.00    +0.000 N 
ATOM      8  C   UNL     1       0.178  11.259  20.992  0.00  0.00    +0.000 C 
ATOM      9  O   UNL     1       1.293  11.599  21.368  0.00  0.00    +0.000 OA
ATOM     10  H   UNL     1      -1.077  10.101  19.838  0.00  0.00    +0.000 HD
BRANCH   8  11
ATOM     11  C   UNL     1      -1.027  11.955  21.526  0.00  0.00    +0.000 C 
ATOM     12  C   UNL     1      -0.895  12.528  22.733  0.00  0.00    +0.000 C 
BRANCH  12  13
ATOM     13  C   UNL     1      -1.939  13.221  23.406  0.00  0.00    +0.000 A 
ATOM     14  C   UNL     1      -3.271  12.906  23.614  0.00  0.00    +0.000 A 
ATOM     15  C   UNL     1      -3.971  13.899  24.360  0.00  0.00    +0.000 A 
ATOM     16  C   UNL     1      -3.160  14.954  24.704  0.00  0.00    +0.000 A 
ATOM     17  S   UNL     1      -1.570  14.748  24.130  0.00  0.00    +0.000 S 
ENDBRANCH  12  13
ENDBRANCH   8  11
ENDBRANCH   4   7
BRANCH   1  18
ATOM     18  C   UNL     1       3.664   6.712  17.655  0.00  0.00    +0.000 C 
ATOM     19  O   UNL     1       4.518   7.052  16.850  0.00  0.00    +0.000 OA
BRANCH  18  20
ATOM     20  O   UNL     1       3.263   5.440  17.897  0.00  0.00    +0.000 OA
BRANCH  20  21
ATOM     21  C   UNL     1       4.339   4.558  18.265  0.00  0.00    +0.000 C 
BRANCH  21  22
ATOM     22  C   UNL     1       4.138   4.235  19.757  0.00  0.00    +0.000 C 
BRANCH  22  23
ATOM     23  N   UNL     1       3.342   3.043  20.092  0.00  0.00    +0.000 NA
BRANCH  23  25
ATOM     24  C   UNL     1       1.037   4.029  20.399  0.00  0.00    +0.000 C 
ATOM     25  C   UNL     1       2.283   3.436  21.044  0.00  0.00    +0.000 C 
ENDBRANCH  23  25
BRANCH  23  26
ATOM     26  C   UNL     1       2.842   2.330  18.906  0.00  0.00    +0.000 C 
ATOM     27  C   UNL     1       3.699   1.175  18.396  0.00  0.00    +0.000 C 
ENDBRANCH  23  26
ENDBRANCH  22  23
ENDBRANCH  21  22
ENDBRANCH  20  21
ENDBRANCH  18  20
ENDBRANCH   1  18
TORSDOF 10
ENDMDL
MODEL 9
REMARK VINA RESULT:      -6.2      4.755      7.217
REMARK  Name = 
REMARK  12 active torsions:
REMARK  status: ('A' for Active; 'I' for Inactive)
REMARK    1  A    between atoms: C_1  and  C_2
REMARK    2  A    between atoms: C_2  and  N_3
REMARK    3  A    between atoms: N_3  and  C_4
REMARK    4  A    between atoms: N_3  and  C_6
REMARK    5  A    between atoms: C_4  and  C_5
REMARK    6  A    between atoms: C_6  and  C_7
REMARK    7  A    between atoms: C_7  and  O_8
REMARK    8  A    between atoms: O_8  and  C_9
REMARK    9  A    between atoms: C_9  and  C_11
REMARK   10  A    between atoms: C_14  and  N_15
REMARK   11  A    between atoms: C_16  and  C_18
REMARK   12  A    between atoms: C_19  and  C_20
REMARK                            x       y       z     vdW  Elec       q    Type
REMARK                         _______ _______ _______ _____ _____    ______ ____
ROOT
ATOM      1  C   UNL     1       3.419   5.381  18.659  0.00  0.00    +0.000 A 
ATOM      2  C   UNL     1       2.772   5.438  19.892  0.00  0.00    +0.000 A 
ATOM      3  C   UNL     1       2.096   6.598  20.275  0.00  0.00    +0.000 A 
ATOM      4  C   UNL     1       2.054   7.723  19.445  0.00  0.00    +0.000 A 
ATOM      5  C   UNL     1       2.707   7.663  18.208  0.00  0.00    +0.000 A 
ATOM      6  C   UNL     1       3.385   6.499  17.816  0.00  0.00    +0.000 A 
ENDROOT
BRANCH   4   7
ATOM      7  N   UNL     1       1.380   8.921  19.790  0.00  0.00    +0.000 N 
ATOM      8  C   UNL     1       0.442   9.047  20.794  0.00  0.00    +0.000 C 
ATOM      9  O   UNL     1       0.082   8.167  21.566  0.00  0.00    +0.000 OA
ATOM     10  H   UNL     1       1.609   9.740  19.243  0.00  0.00    +0.000 HD
BRANCH   8  11
ATOM     11  C   UNL     1      -0.154  10.410  20.896  0.00  0.00    +0.000 C 
ATOM     12  C   UNL     1       0.441  11.374  20.175  0.00  0.00    +0.000 C 
BRANCH  12  13
ATOM     13  C   UNL     1       0.022  12.733  20.159  0.00  0.00    +0.000 A 
ATOM     14  C   UNL     1      -1.235  13.311  20.206  0.00  0.00    +0.000 A 
ATOM     15  C   UNL     1      -1.196  14.735  20.173  0.00  0.00    +0.000 A 
ATOM     16  C   UNL     1       0.089  15.216  20.100  0.00  0.00    +0.000 A 
ATOM     17  S   UNL     1       1.238  13.959  20.068  0.00  0.00    +0.000 S 
ENDBRANCH  12  13
ENDBRANCH   8  11
ENDBRANCH   4   7
BRANCH   1  18
ATOM     18  C   UNL     1       4.223   4.166  18.363  0.00  0.00    +0.000 C 
ATOM     19  O   UNL     1       3.894   3.314  17.552  0.00  0.00    +0.000 OA
BRANCH  18  20
ATOM     20  O   UNL     1       5.236   4.062  19.257  0.00  0.00    +0.000 OA
BRANCH  20  21
ATOM     21  C   UNL     1       6.193   5.133  19.169  0.00  0.00    +0.000 C 
BRANCH  21  22
ATOM     22  C   UNL     1       7.255   4.679  18.150  0.00  0.00    +0.000 C 
BRANCH  22  23
ATOM     23  N   UNL     1       7.409   5.482  16.926  0.00  0.00    +0.000 NA
BRANCH  23  25
ATOM     24  C   UNL     1       5.674   5.365  15.093  0.00  0.00    +0.000 C 
ATOM     25  C   UNL     1       6.864   4.715  15.787  0.00  0.00    +0.000 C 
ENDBRANCH  23  25
BRANCH  23  26
ATOM     26  C   UNL     1       6.851   6.839  17.052  0.00  0.00    +0.000 C 
ATOM     27  C   UNL     1       7.791   7.912  17.591  0.00  0.00    +0.000 C 
ENDBRANCH  23  26
ENDBRANCH  22  23
ENDBRANCH  21  22
ENDBRANCH  20  21
ENDBRANCH  18  20
ENDBRANCH   1  18
TORSDOF 10
ENDMDL
