MODEL 1
REMARK VINA RESULT:      -8.0      0.000      0.000
REMARK  Name = 
REMARK  8 active torsions:
REMARK  status: ('A' for Active; 'I' for Inactive)
REMARK    1  A    between atoms: C_1  and  O_2
REMARK    2  A    between atoms: O_2  and  C_3
REMARK    3  A    between atoms: N_5  and  C_6
REMARK    4  A    between atoms: C_6  and  C_7
REMARK    5  A    between atoms: C_6  and  C_8
REMARK    6  A    between atoms: N_10  and  N_11
REMARK    7  A    between atoms: C_12  and  C_13
REMARK    8  A    between atoms: C_22  and  N_23
REMARK                            x       y       z     vdW  Elec       q    Type
REMARK                         _______ _______ _______ _____ _____    ______ ____
ROOT
ATOM      1  C   UNL     1       2.455   4.236  18.904  0.00  0.00    +0.000 C 
ATOM      2  O   UNL     1       1.238   4.030  18.974  0.00  0.00    +0.000 OA
ATOM      3  N   UNL     1       3.073   5.390  19.369  0.00  0.00    +0.000 N 
ATOM      4  H   UNL     1       4.042   5.594  19.125  0.00  0.00    +0.000 HD
ENDROOT
BRANCH   1   5
ATOM      5  C   UNL     1       3.365   3.162  18.335  0.00  0.00    +0.000 C 
ATOM      6  C   UNL     1       3.565   1.993  19.294  0.00  0.00    +0.000 C 
BRANCH   5   9
ATOM      7  C   UNL     1       6.623   4.390  17.873  0.00  0.00    +0.000 A 
ATOM      8  N   UNL     1       5.659   3.932  18.686  0.00  0.00    +0.000 NA
ATOM      9  N   UNL     1       4.620   3.721  17.844  0.00  0.00    +0.000 N 
ATOM     10  C   UNL     1       4.909   4.021  16.542  0.00  0.00    +0.000 A 
ATOM     11  C   UNL     1       6.211   4.481  16.535  0.00  0.00    +0.000 A 
BRANCH  11  12
ATOM     12  N   UNL     1       6.948   4.919  15.391  0.00  0.00    +0.000 N 
ATOM     13  O   UNL     1       7.621   5.949  15.497  0.00  0.00    +0.000 OA
ATOM     14  O   UNL     1       6.863   4.216  14.374  0.00  0.00    +0.000 OA
ENDBRANCH  11  12
BRANCH   7  16
ATOM     15  C   UNL     1       7.842   6.016  19.017  0.00  0.00    +0.000 C 
ATOM     16  O   UNL     1       7.825   4.749  18.374  0.00  0.00    +0.000 OA
ENDBRANCH   7  16
ENDBRANCH   5   9
ENDBRANCH   1   5
BRANCH   3  17
ATOM     17  N   UNL     1       2.275   6.359  19.904  0.00  0.00    +0.000 NA
ATOM     18  C   UNL     1       2.287   7.535  19.371  0.00  0.00    +0.000 C 
BRANCH  18  19
ATOM     19  C   UNL     1       1.401   8.595  19.916  0.00  0.00    +0.000 A 
ATOM     20  C   UNL     1       0.934   9.617  19.081  0.00  0.00    +0.000 A 
ATOM     21  C   UNL     1       0.118  10.628  19.593  0.00  0.00    +0.000 A 
ATOM     22  C   UNL     1      -0.236  10.625  20.944  0.00  0.00    +0.000 A 
ATOM     23 CL   UNL     1      -1.238  11.911  21.515  0.00  0.00    +0.000 Cl
ATOM     24  C   UNL     1       0.227   9.598  21.779  0.00  0.00    +0.000 A 
ATOM     25 CL   UNL     1      -0.172   9.535  23.460  0.00  0.00    +0.000 Cl
ATOM     26  C   UNL     1       1.043   8.581  21.266  0.00  0.00    +0.000 A 
ENDBRANCH  18  19
ENDBRANCH   3  17
TORSDOF 6
ENDMDL
MODEL 2
REMARK VINA RESULT:      -7.9      4.919      7.521
REMARK  Name = 
REMARK  8 active torsions:
REMARK  status: ('A' for Active; 'I' for Inactive)
REMARK    1  A    between atoms: C_1  and  O_2
REMARK    2  A    between atoms: O_2  and  C_3
REMARK    3  A    between atoms: N_5  and  C_6
REMARK    4  A    between atoms: C_6  and  C_7
REMARK    5  A    between atoms: C_6  and  C_8
REMARK    6  A    between atoms: N_10  and  N_11
REMARK    7  A    between atoms: C_12  and  C_13
REMARK    8  A    between atoms: C_22  and  N_23
REMARK                            x       y       z     vdW  Elec       q    Type
REMARK                         _______ _______ _______ _____ _____    ______ ____
ROOT
ATOM      1  C   UNL     1       7.354   5.698  18.759  0.00  0.00    +0.000 C 
ATOM      2  O   UNL     1       7.922   5.525  19.842  0.00  0.00    +0.000 OA
ATOM      3  N   UNL     1       7.482   6.849  17.991  0.00  0.00    +0.000 N 
ATOM      4  H   UNL     1       6.856   7.020  17.205  0.00  0.00    +0.000 HD
ENDROOT
BRANCH   1   5
ATOM      5  C   UNL     1       6.506   4.583  18.172  0.00  0.00    +0.000 C 
ATOM      6  C   UNL     1       6.423   4.646  16.651  0.00  0.00    +0.000 C 
BRANCH   5   9
ATOM      7  C   UNL     1       3.248   5.075  19.390  0.00  0.00    +0.000 A 
ATOM      8  N   UNL     1       4.329   5.538  18.742  0.00  0.00    +0.000 NA
ATOM      9  N   UNL     1       5.199   4.503  18.814  0.00  0.00    +0.000 N 
ATOM     10  C   UNL     1       4.693   3.416  19.472  0.00  0.00    +0.000 A 
ATOM     11  C   UNL     1       3.422   3.770  19.878  0.00  0.00    +0.000 A 
BRANCH  11  12
ATOM     12  N   UNL     1       2.507   2.951  20.608  0.00  0.00    +0.000 N 
ATOM     13  O   UNL     1       2.445   3.103  21.833  0.00  0.00    +0.000 OA
ATOM     14  O   UNL     1       1.830   2.150  19.948  0.00  0.00    +0.000 OA
ENDBRANCH  11  12
BRANCH   7  16
ATOM     15  C   UNL     1       2.422   7.254  19.464  0.00  0.00    +0.000 C 
ATOM     16  O   UNL     1       2.162   5.860  19.554  0.00  0.00    +0.000 OA
ENDBRANCH   7  16
ENDBRANCH   5   9
ENDBRANCH   1   5
BRANCH   3  17
ATOM     17  N   UNL     1       8.257   7.854  18.490  0.00  0.00    +0.000 NA
ATOM     18  C   UNL     1       8.183   9.023  17.945  0.00  0.00    +0.000 C 
BRANCH  18  19
ATOM     19  C   UNL     1       8.993  10.140  18.494  0.00  0.00    +0.000 A 
ATOM     20  C   UNL     1       9.220  10.230  19.874  0.00  0.00    +0.000 A 
ATOM     21  C   UNL     1       9.964  11.289  20.398  0.00  0.00    +0.000 A 
ATOM     22  C   UNL     1      10.485  12.267  19.547  0.00  0.00    +0.000 A 
ATOM     23 CL   UNL     1      11.385  13.557  20.261  0.00  0.00    +0.000 Cl
ATOM     24  C   UNL     1      10.264  12.173  18.165  0.00  0.00    +0.000 A 
ATOM     25 CL   UNL     1      10.879  13.349  17.057  0.00  0.00    +0.000 Cl
ATOM     26  C   UNL     1       9.521  11.109  17.637  0.00  0.00    +0.000 A 
ENDBRANCH  18  19
ENDBRANCH   3  17
TORSDOF 6
ENDMDL
MODEL 3
REMARK VINA RESULT:      -7.8      4.869      7.179
REMARK  Name = 
REMARK  8 active torsions:
REMARK  status: ('A' for Active; 'I' for Inactive)
REMARK    1  A    between atoms: C_1  and  O_2
REMARK    2  A    between atoms: O_2  and  C_3
REMARK    3  A    between atoms: N_5  and  C_6
REMARK    4  A    between atoms: C_6  and  C_7
REMARK    5  A    between atoms: C_6  and  C_8
REMARK    6  A    between atoms: N_10  and  N_11
REMARK    7  A    between atoms: C_12  and  C_13
REMARK    8  A    between atoms: C_22  and  N_23
REMARK                            x       y       z     vdW  Elec       q    Type
REMARK                         _______ _______ _______ _____ _____    ______ ____
ROOT
ATOM      1  C   UNL     1       7.583   6.156  18.103  0.00  0.00    +0.000 C 
ATOM      2  O   UNL     1       8.215   5.870  19.125  0.00  0.00    +0.000 OA
ATOM      3  N   UNL     1       7.479   7.443  17.590  0.00  0.00    +0.000 N 
ATOM      4  H   UNL     1       6.802   7.657  16.858  0.00  0.00    +0.000 HD
ENDROOT
BRANCH   1   5
ATOM      5  C   UNL     1       6.916   5.052  17.301  0.00  0.00    +0.000 C 
ATOM      6  C   UNL     1       7.063   5.247  15.796  0.00  0.00    +0.000 C 
BRANCH   5   9
ATOM      7  C   UNL     1       3.747   5.090  18.816  0.00  0.00    +0.000 A 
ATOM      8  N   UNL     1       5.024   5.501  18.784  0.00  0.00    +0.000 NA
ATOM      9  N   UNL     1       5.535   4.839  17.718  0.00  0.00    +0.000 N 
ATOM     10  C   UNL     1       4.618   4.044  17.086  0.00  0.00    +0.000 A 
ATOM     11  C   UNL     1       3.442   4.175  17.797  0.00  0.00    +0.000 A 
BRANCH  11  12
ATOM     12  N   UNL     1       2.202   3.524  17.510  0.00  0.00    +0.000 N 
ATOM     13  O   UNL     1       2.191   2.289  17.480  0.00  0.00    +0.000 OA
ATOM     14  O   UNL     1       1.222   4.257  17.322  0.00  0.00    +0.000 OA
ENDBRANCH  11  12
BRANCH   7  16
ATOM     15  C   UNL     1       2.436   6.848  19.608  0.00  0.00    +0.000 C 
ATOM     16  O   UNL     1       2.916   5.523  19.788  0.00  0.00    +0.000 OA
ENDBRANCH   7  16
ENDBRANCH   5   9
ENDBRANCH   1   5
BRANCH   3  17
ATOM     17  N   UNL     1       8.090   8.447  18.283  0.00  0.00    +0.000 NA
ATOM     18  C   UNL     1       8.300   9.573  17.686  0.00  0.00    +0.000 C 
BRANCH  18  19
ATOM     19  C   UNL     1       8.932  10.690  18.433  0.00  0.00    +0.000 A 
ATOM     20  C   UNL     1       9.508  10.458  19.688  0.00  0.00    +0.000 A 
ATOM     21  C   UNL     1      10.086  11.508  20.404  0.00  0.00    +0.000 A 
ATOM     22  C   UNL     1      10.090  12.799  19.871  0.00  0.00    +0.000 A 
ATOM     23 CL   UNL     1      10.810  14.055  20.814  0.00  0.00    +0.000 Cl
ATOM     24  C   UNL     1       9.520  13.031  18.611  0.00  0.00    +0.000 A 
ATOM     25 CL   UNL     1       9.491  14.604  17.894  0.00  0.00    +0.000 Cl
ATOM     26  C   UNL     1       8.943  11.977  17.890  0.00  0.00    +0.000 A 
ENDBRANCH  18  19
ENDBRANCH   3  17
TORSDOF 6
ENDMDL
MODEL 4
REMARK VINA RESULT:      -7.8      0.898      1.569
REMARK  Name = 
REMARK  8 active torsions:
REMARK  status: ('A' for Active; 'I' for Inactive)
REMARK    1  A    between atoms: C_1  and  O_2
REMARK    2  A    between atoms: O_2  and  C_3
REMARK    3  A    between atoms: N_5  and  C_6
REMARK    4  A    between atoms: C_6  and  C_7
REMARK    5  A    between atoms: C_6  and  C_8
REMARK    6  A    between atoms: N_10  and  N_11
REMARK    7  A    between atoms: C_12  and  C_13
REMARK    8  A    between atoms: C_22  and  N_23
REMARK                            x       y       z     vdW  Elec       q    Type
REMARK                         _______ _______ _______ _____ _____    ______ ____
ROOT
ATOM      1  C   UNL     1       2.218   4.285  19.416  0.00  0.00    +0.000 C 
ATOM      2  O   UNL     1       1.258   3.880  20.080  0.00  0.00    +0.000 OA
ATOM      3  N   UNL     1       2.654   5.604  19.408  0.00  0.00    +0.000 N 
ATOM      4  H   UNL     1       3.325   5.925  18.711  0.00  0.00    +0.000 HD
ENDROOT
BRANCH   1   5
ATOM      5  C   UNL     1       3.030   3.298  18.595  0.00  0.00    +0.000 C 
ATOM      6  C   UNL     1       3.237   1.968  19.310  0.00  0.00    +0.000 C 
BRANCH   5   9
ATOM      7  C   UNL     1       6.294   4.509  18.126  0.00  0.00    +0.000 A 
ATOM      8  N   UNL     1       5.358   3.970  18.923  0.00  0.00    +0.000 NA
ATOM      9  N   UNL     1       4.274   3.890  18.115  0.00  0.00    +0.000 N 
ATOM     10  C   UNL     1       4.509   4.348  16.848  0.00  0.00    +0.000 A 
ATOM     11  C   UNL     1       5.821   4.779  16.833  0.00  0.00    +0.000 A 
BRANCH  11  12
ATOM     12  N   UNL     1       6.514   5.344  15.718  0.00  0.00    +0.000 N 
ATOM     13  O   UNL     1       7.608   4.860  15.412  0.00  0.00    +0.000 OA
ATOM     14  O   UNL     1       5.950   6.277  15.130  0.00  0.00    +0.000 OA
ENDBRANCH  11  12
BRANCH   7  16
ATOM     15  C   UNL     1       7.768   6.148  18.889  0.00  0.00    +0.000 C 
ATOM     16  O   UNL     1       7.528   4.776  18.607  0.00  0.00    +0.000 OA
ENDBRANCH   7  16
ENDBRANCH   5   9
ENDBRANCH   1   5
BRANCH   3  17
ATOM     17  N   UNL     1       1.951   6.503  20.157  0.00  0.00    +0.000 NA
ATOM     18  C   UNL     1       1.959   7.745  19.802  0.00  0.00    +0.000 C 
BRANCH  18  19
ATOM     19  C   UNL     1       1.174   8.734  20.584  0.00  0.00    +0.000 A 
ATOM     20  C   UNL     1       1.200   8.702  21.984  0.00  0.00    +0.000 A 
ATOM     21  C   UNL     1       0.447   9.616  22.724  0.00  0.00    +0.000 A 
ATOM     22  C   UNL     1      -0.339  10.567  22.069  0.00  0.00    +0.000 A 
ATOM     23 CL   UNL     1      -1.255  11.660  23.044  0.00  0.00    +0.000 Cl
ATOM     24  C   UNL     1      -0.360  10.604  20.668  0.00  0.00    +0.000 A 
ATOM     25 CL   UNL     1      -1.310  11.755  19.795  0.00  0.00    +0.000 Cl
ATOM     26  C   UNL     1       0.398   9.690  19.923  0.00  0.00    +0.000 A 
ENDBRANCH  18  19
ENDBRANCH   3  17
TORSDOF 6
ENDMDL
MODEL 5
REMARK VINA RESULT:      -7.7      4.603      7.082
REMARK  Name = 
REMARK  8 active torsions:
REMARK  status: ('A' for Active; 'I' for Inactive)
REMARK    1  A    between atoms: C_1  and  O_2
REMARK    2  A    between atoms: O_2  and  C_3
REMARK    3  A    between atoms: N_5  and  C_6
REMARK    4  A    between atoms: C_6  and  C_7
REMARK    5  A    between atoms: C_6  and  C_8
REMARK    6  A    between atoms: N_10  and  N_11
REMARK    7  A    between atoms: C_12  and  C_13
REMARK    8  A    between atoms: C_22  and  N_23
REMARK                            x       y       z     vdW  Elec       q    Type
REMARK                         _______ _______ _______ _____ _____    ______ ____
ROOT
ATOM      1  C   UNL     1       7.676   5.657  18.566  0.00  0.00    +0.000 C 
ATOM      2  O   UNL     1       8.356   5.428  19.572  0.00  0.00    +0.000 OA
ATOM      3  N   UNL     1       7.614   6.896  17.939  0.00  0.00    +0.000 N 
ATOM      4  H   UNL     1       6.904   7.084  17.231  0.00  0.00    +0.000 HD
ENDROOT
BRANCH   1   5
ATOM      5  C   UNL     1       6.898   4.528  17.914  0.00  0.00    +0.000 C 
ATOM      6  C   UNL     1       7.076   4.488  16.400  0.00  0.00    +0.000 C 
BRANCH   5   9
ATOM      7  C   UNL     1       3.742   5.126  19.336  0.00  0.00    +0.000 A 
ATOM      8  N   UNL     1       5.057   5.389  19.273  0.00  0.00    +0.000 NA
ATOM      9  N   UNL     1       5.499   4.527  18.326  0.00  0.00    +0.000 N 
ATOM     10  C   UNL     1       4.506   3.751  17.796  0.00  0.00    +0.000 A 
ATOM     11  C   UNL     1       3.346   4.109  18.453  0.00  0.00    +0.000 A 
BRANCH  11  12
ATOM     12  N   UNL     1       2.045   3.560  18.235  0.00  0.00    +0.000 N 
ATOM     13  O   UNL     1       1.667   2.653  18.984  0.00  0.00    +0.000 OA
ATOM     14  O   UNL     1       1.384   4.050  17.308  0.00  0.00    +0.000 OA
ENDBRANCH  11  12
BRANCH   7  16
ATOM     15  C   UNL     1       2.298   6.924  19.683  0.00  0.00    +0.000 C 
ATOM     16  O   UNL     1       2.956   5.783  20.216  0.00  0.00    +0.000 OA
ENDBRANCH   7  16
ENDBRANCH   5   9
ENDBRANCH   1   5
BRANCH   3  17
ATOM     17  N   UNL     1       8.324   7.919  18.495  0.00  0.00    +0.000 NA
ATOM     18  C   UNL     1       8.308   9.072  17.914  0.00  0.00    +0.000 C 
BRANCH  18  19
ATOM     19  C   UNL     1       9.047  10.208  18.521  0.00  0.00    +0.000 A 
ATOM     20  C   UNL     1       9.961  10.941  17.754  0.00  0.00    +0.000 A 
ATOM     21  C   UNL     1      10.674  11.997  18.326  0.00  0.00    +0.000 A 
ATOM     22  C   UNL     1      10.479  12.327  19.669  0.00  0.00    +0.000 A 
ATOM     23 CL   UNL     1      11.402  13.636  20.316  0.00  0.00    +0.000 Cl
ATOM     24  C   UNL     1       9.559  11.598  20.435  0.00  0.00    +0.000 A 
ATOM     25 CL   UNL     1       9.270  11.953  22.103  0.00  0.00    +0.000 Cl
ATOM     26  C   UNL     1       8.840  10.540  19.862  0.00  0.00    +0.000 A 
ENDBRANCH  18  19
ENDBRANCH   3  17
TORSDOF 6
ENDMDL
MODEL 6
REMARK VINA RESULT:      -7.6      1.719      2.570
REMARK  Name = 
REMARK  8 active torsions:
REMARK  status: ('A' for Active; 'I' for Inactive)
REMARK    1  A    between atoms: C_1  and  O_2
REMARK    2  A    between atoms: O_2  and  C_3
REMARK    3  A    between atoms: N_5  and  C_6
REMARK    4  A    between atoms: C_6  and  C_7
REMARK    5  A    between atoms: C_6  and  C_8
REMARK    6  A    between atoms: N_10  and  N_11
REMARK    7  A    between atoms: C_12  and  C_13
REMARK    8  A    between atoms: C_22  and  N_23
REMARK                            x       y       z     vdW  Elec       q    Type
REMARK                         _______ _______ _______ _____ _____    ______ ____
ROOT
ATOM      1  C   UNL     1       1.910   4.798  20.117  0.00  0.00    +0.000 C 
ATOM      2  O   UNL     1       0.816   4.458  20.580  0.00  0.00    +0.000 OA
ATOM      3  N   UNL     1       2.439   6.077  20.238  0.00  0.00    +0.000 N 
ATOM      4  H   UNL     1       3.250   6.357  19.686  0.00  0.00    +0.000 HD
ENDROOT
BRANCH   1   5
ATOM      5  C   UNL     1       2.781   3.767  19.420  0.00  0.00    +0.000 C 
ATOM      6  C   UNL     1       3.185   2.620  20.340  0.00  0.00    +0.000 C 
BRANCH   5   9
ATOM      7  C   UNL     1       4.969   5.592  17.366  0.00  0.00    +0.000 A 
ATOM      8  N   UNL     1       3.727   5.179  17.663  0.00  0.00    +0.000 NA
ATOM      9  N   UNL     1       3.915   4.386  18.744  0.00  0.00    +0.000 N 
ATOM     10  C   UNL     1       5.224   4.303  19.132  0.00  0.00    +0.000 A 
ATOM     11  C   UNL     1       5.940   5.069  18.234  0.00  0.00    +0.000 A 
BRANCH  11  12
ATOM     12  N   UNL     1       7.354   5.278  18.238  0.00  0.00    +0.000 N 
ATOM     13  O   UNL     1       7.778   6.353  18.676  0.00  0.00    +0.000 OA
ATOM     14  O   UNL     1       8.053   4.350  17.809  0.00  0.00    +0.000 OA
ENDBRANCH  11  12
BRANCH   7  16
ATOM     15  C   UNL     1       5.583   5.707  15.119  0.00  0.00    +0.000 C 
ATOM     16  O   UNL     1       5.186   6.391  16.299  0.00  0.00    +0.000 OA
ENDBRANCH   7  16
ENDBRANCH   5   9
ENDBRANCH   1   5
BRANCH   3  17
ATOM     17  N   UNL     1       1.682   7.012  20.880  0.00  0.00    +0.000 NA
ATOM     18  C   UNL     1       1.567   8.186  20.352  0.00  0.00    +0.000 C 
BRANCH  18  19
ATOM     19  C   UNL     1       0.721   9.208  21.017  0.00  0.00    +0.000 A 
ATOM     20  C   UNL     1       0.404   9.081  22.375  0.00  0.00    +0.000 A 
ATOM     21  C   UNL     1      -0.409  10.028  23.001  0.00  0.00    +0.000 A 
ATOM     22  C   UNL     1      -0.912  11.109  22.273  0.00  0.00    +0.000 A 
ATOM     23 CL   UNL     1      -1.922  12.237  23.105  0.00  0.00    +0.000 Cl
ATOM     24  C   UNL     1      -0.590  11.240  20.915  0.00  0.00    +0.000 A 
ATOM     25 CL   UNL     1      -1.179  12.552  19.956  0.00  0.00    +0.000 Cl
ATOM     26  C   UNL     1       0.229  10.292  20.286  0.00  0.00    +0.000 A 
ENDBRANCH  18  19
ENDBRANCH   3  17
TORSDOF 6
ENDMDL
MODEL 7
REMARK VINA RESULT:      -7.6      4.954      7.200
REMARK  Name = 
REMARK  8 active torsions:
REMARK  status: ('A' for Active; 'I' for Inactive)
REMARK    1  A    between atoms: C_1  and  O_2
REMARK    2  A    between atoms: O_2  and  C_3
REMARK    3  A    between atoms: N_5  and  C_6
REMARK    4  A    between atoms: C_6  and  C_7
REMARK    5  A    between atoms: C_6  and  C_8
REMARK    6  A    between atoms: N_10  and  N_11
REMARK    7  A    between atoms: C_12  and  C_13
REMARK    8  A    between atoms: C_22  and  N_23
REMARK                            x       y       z     vdW  Elec       q    Type
REMARK                         _______ _______ _______ _____ _____    ______ ____
ROOT
ATOM      1  C   UNL     1       7.028   6.825  17.538  0.00  0.00    +0.000 C 
ATOM      2  O   UNL     1       6.309   7.359  16.686  0.00  0.00    +0.000 OA
ATOM      3  N   UNL     1       8.009   7.497  18.256  0.00  0.00    +0.000 N 
ATOM      4  H   UNL     1       8.695   6.981  18.806  0.00  0.00    +0.000 HD
ENDROOT
BRANCH   1   5
ATOM      5  C   UNL     1       6.814   5.363  17.888  0.00  0.00    +0.000 C 
ATOM      6  C   UNL     1       7.423   4.416  16.860  0.00  0.00    +0.000 C 
BRANCH   5   9
ATOM      7  C   UNL     1       3.536   5.177  19.138  0.00  0.00    +0.000 A 
ATOM      8  N   UNL     1       4.796   5.627  19.244  0.00  0.00    +0.000 NA
ATOM      9  N   UNL     1       5.413   5.074  18.172  0.00  0.00    +0.000 N 
ATOM     10  C   UNL     1       4.578   4.310  17.404  0.00  0.00    +0.000 A 
ATOM     11  C   UNL     1       3.346   4.344  18.024  0.00  0.00    +0.000 A 
BRANCH  11  12
ATOM     12  N   UNL     1       2.157   3.684  17.583  0.00  0.00    +0.000 N 
ATOM     13  O   UNL     1       2.180   2.453  17.492  0.00  0.00    +0.000 OA
ATOM     14  O   UNL     1       1.181   4.406  17.336  0.00  0.00    +0.000 OA
ENDBRANCH  11  12
BRANCH   7  16
ATOM     15  C   UNL     1       2.253   4.434  20.937  0.00  0.00    +0.000 C 
ATOM     16  O   UNL     1       2.616   5.500  20.071  0.00  0.00    +0.000 OA
ENDBRANCH   7  16
ENDBRANCH   5   9
ENDBRANCH   1   5
BRANCH   3  17
ATOM     17  N   UNL     1       8.203   8.817  17.972  0.00  0.00    +0.000 NA
ATOM     18  C   UNL     1       9.040   9.490  18.690  0.00  0.00    +0.000 C 
BRANCH  18  19
ATOM     19  C   UNL     1       9.290  10.919  18.376  0.00  0.00    +0.000 A 
ATOM     20  C   UNL     1      10.598  11.420  18.382  0.00  0.00    +0.000 A 
ATOM     21  C   UNL     1      10.838  12.768  18.109  0.00  0.00    +0.000 A 
ATOM     22  C   UNL     1       9.772  13.626  17.829  0.00  0.00    +0.000 A 
ATOM     23 CL   UNL     1      10.137  15.284  17.512  0.00  0.00    +0.000 Cl
ATOM     24  C   UNL     1       8.463  13.124  17.817  0.00  0.00    +0.000 A 
ATOM     25 CL   UNL     1       7.098  14.130  17.480  0.00  0.00    +0.000 Cl
ATOM     26  C   UNL     1       8.221  11.770  18.087  0.00  0.00    +0.000 A 
ENDBRANCH  18  19
ENDBRANCH   3  17
TORSDOF 6
ENDMDL
MODEL 8
REMARK VINA RESULT:      -7.6      4.710      6.936
REMARK  Name = 
REMARK  8 active torsions:
REMARK  status: ('A' for Active; 'I' for Inactive)
REMARK    1  A    between atoms: C_1  and  O_2
REMARK    2  A    between atoms: O_2  and  C_3
REMARK    3  A    between atoms: N_5  and  C_6
REMARK    4  A    between atoms: C_6  and  C_7
REMARK    5  A    between atoms: C_6  and  C_8
REMARK    6  A    between atoms: N_10  and  N_11
REMARK    7  A    between atoms: C_12  and  C_13
REMARK    8  A    between atoms: C_22  and  N_23
REMARK                            x       y       z     vdW  Elec       q    Type
REMARK                         _______ _______ _______ _____ _____    ______ ____
ROOT
ATOM      1  C   UNL     1       6.915   6.521  17.098  0.00  0.00    +0.000 C 
ATOM      2  O   UNL     1       6.270   7.249  16.335  0.00  0.00    +0.000 OA
ATOM      3  N   UNL     1       7.828   6.994  18.033  0.00  0.00    +0.000 N 
ATOM      4  H   UNL     1       8.465   6.353  18.506  0.00  0.00    +0.000 HD
ENDROOT
BRANCH   1   5
ATOM      5  C   UNL     1       6.678   5.021  17.080  0.00  0.00    +0.000 C 
ATOM      6  C   UNL     1       6.879   4.410  15.698  0.00  0.00    +0.000 C 
BRANCH   5   9
ATOM      7  C   UNL     1       3.850   4.588  19.118  0.00  0.00    +0.000 A 
ATOM      8  N   UNL     1       5.105   5.035  18.951  0.00  0.00    +0.000 NA
ATOM      9  N   UNL     1       5.397   4.669  17.681  0.00  0.00    +0.000 N 
ATOM     10  C   UNL     1       4.367   4.023  17.054  0.00  0.00    +0.000 A 
ATOM     11  C   UNL     1       3.347   3.938  17.980  0.00  0.00    +0.000 A 
BRANCH  11  12
ATOM     12  N   UNL     1       2.066   3.338  17.776  0.00  0.00    +0.000 N 
ATOM     13  O   UNL     1       1.913   2.166  18.136  0.00  0.00    +0.000 OA
ATOM     14  O   UNL     1       1.194   4.051  17.260  0.00  0.00    +0.000 OA
ENDBRANCH  11  12
BRANCH   7  16
ATOM     15  C   UNL     1       2.220   5.751  20.312  0.00  0.00    +0.000 C 
ATOM     16  O   UNL     1       3.222   4.744  20.303  0.00  0.00    +0.000 OA
ENDBRANCH   7  16
ENDBRANCH   5   9
ENDBRANCH   1   5
BRANCH   3  17
ATOM     17  N   UNL     1       8.039   8.340  18.081  0.00  0.00    +0.000 NA
ATOM     18  C   UNL     1       8.868   8.807  18.955  0.00  0.00    +0.000 C 
BRANCH  18  19
ATOM     19  C   UNL     1       9.138  10.266  19.002  0.00  0.00    +0.000 A 
ATOM     20  C   UNL     1       9.236  11.000  17.813  0.00  0.00    +0.000 A 
ATOM     21  C   UNL     1       9.510  12.368  17.849  0.00  0.00    +0.000 A 
ATOM     22  C   UNL     1       9.691  13.013  19.075  0.00  0.00    +0.000 A 
ATOM     23 CL   UNL     1      10.040  14.705  19.050  0.00  0.00    +0.000 Cl
ATOM     24  C   UNL     1       9.586  12.280  20.266  0.00  0.00    +0.000 A 
ATOM     25 CL   UNL     1       9.799  13.016  21.817  0.00  0.00    +0.000 Cl
ATOM     26  C   UNL     1       9.307  10.907  20.231  0.00  0.00    +0.000 A 
ENDBRANCH  18  19
ENDBRANCH   3  17
TORSDOF 6
ENDMDL
MODEL 9
REMARK VINA RESULT:      -7.5      1.882      2.416
REMARK  Name = 
REMARK  8 active torsions:
REMARK  status: ('A' for Active; 'I' for Inactive)
REMARK    1  A    between atoms: C_1  and  O_2
REMARK    2  A    between atoms: O_2  and  C_3
REMARK    3  A    between atoms: N_5  and  C_6
REMARK    4  A    between atoms: C_6  and  C_7
REMARK    5  A    between atoms: C_6  and  C_8
REMARK    6  A    between atoms: N_10  and  N_11
REMARK    7  A    between atoms: C_12  and  C_13
REMARK    8  A    between atoms: C_22  and  N_23
REMARK                            x       y       z     vdW  Elec       q    Type
REMARK                         _______ _______ _______ _____ _____    ______ ____
ROOT
ATOM      1  C   UNL     1       2.900   6.565  18.669  0.00  0.00    +0.000 C 
ATOM      2  O   UNL     1       2.651   7.373  17.768  0.00  0.00    +0.000 OA
ATOM      3  N   UNL     1       2.544   6.753  19.999  0.00  0.00    +0.000 N 
ATOM      4  H   UNL     1       2.930   6.155  20.729  0.00  0.00    +0.000 HD
ENDROOT
BRANCH   1   5
ATOM      5  C   UNL     1       3.582   5.251  18.330  0.00  0.00    +0.000 C 
ATOM      6  C   UNL     1       3.927   4.431  19.567  0.00  0.00    +0.000 C 
BRANCH   5   9
ATOM      7  C   UNL     1       6.574   6.181  16.741  0.00  0.00    +0.000 A 
ATOM      8  N   UNL     1       5.705   6.319  17.755  0.00  0.00    +0.000 NA
ATOM      9  N   UNL     1       4.719   5.447  17.437  0.00  0.00    +0.000 N 
ATOM     10  C   UNL     1       4.952   4.769  16.272  0.00  0.00    +0.000 A 
ATOM     11  C   UNL     1       6.152   5.245  15.784  0.00  0.00    +0.000 A 
BRANCH  11  12
ATOM     12  N   UNL     1       6.801   4.830  14.580  0.00  0.00    +0.000 N 
ATOM     13  O   UNL     1       7.749   5.508  14.172  0.00  0.00    +0.000 OA
ATOM     14  O   UNL     1       6.364   3.805  14.040  0.00  0.00    +0.000 OA
ENDBRANCH  11  12
BRANCH   7  16
ATOM     15  C   UNL     1       7.709   8.027  17.603  0.00  0.00    +0.000 C 
ATOM     16  O   UNL     1       7.694   6.934  16.695  0.00  0.00    +0.000 OA
ENDBRANCH   7  16
ENDBRANCH   5   9
ENDBRANCH   1   5
BRANCH   3  17
ATOM     17  N   UNL     1       1.910   7.917  20.322  0.00  0.00    +0.000 NA
ATOM     18  C   UNL     1       0.874   7.866  21.092  0.00  0.00    +0.000 C 
BRANCH  18  19
ATOM     19  C   UNL     1       0.190   9.124  21.482  0.00  0.00    +0.000 A 
ATOM     20  C   UNL     1      -0.230   9.313  22.805  0.00  0.00    +0.000 A 
ATOM     21  C   UNL     1      -0.893  10.485  23.174  0.00  0.00    +0.000 A 
ATOM     22  C   UNL     1      -1.143  11.476  22.222  0.00  0.00    +0.000 A 
ATOM     23 CL   UNL     1      -1.978  12.897  22.742  0.00  0.00    +0.000 Cl
ATOM     24  C   UNL     1      -0.717  11.291  20.899  0.00  0.00    +0.000 A 
ATOM     25 CL   UNL     1      -0.994  12.477  19.672  0.00  0.00    +0.000 Cl
ATOM     26  C   UNL     1      -0.048  10.116  20.528  0.00  0.00    +0.000 A 
ENDBRANCH  18  19
ENDBRANCH   3  17
TORSDOF 6
ENDMDL
