MODEL 1
REMARK VINA RESULT:      -8.5      0.000      0.000
REMARK  Name = 
REMARK  11 active torsions:
REMARK  status: ('A' for Active; 'I' for Inactive)
REMARK    1  A    between atoms: C_1  and  O_2
REMARK    2  A    between atoms: O_2  and  C_3
REMARK    3  A    between atoms: C_9  and  C_10
REMARK    4  A    between atoms: C_10  and  C_11
REMARK    5  A    between atoms: N_13  and  C_14
REMARK    6  A    between atoms: C_14  and  C_15
REMARK    7  A    between atoms: C_14  and  C_22
REMARK    8  A    between atoms: C_15  and  C_16
REMARK    9  A    between atoms: C_22  and  N_23
REMARK   10  A    between atoms: N_23  and  C_24
REMARK   11  A    between atoms: N_23  and  C_25
REMARK                            x       y       z     vdW  Elec       q    Type
REMARK                         _______ _______ _______ _____ _____    ______ ____
ROOT
ATOM      1  C   UNL     1       0.052  10.475  18.484  0.00  0.00    +0.000 C 
ENDROOT
BRANCH   1   4
ATOM      2  C   UNL     1       1.815   8.685  18.405  0.00  0.00    +0.000 C 
ATOM      3  O   UNL     1       2.102   8.934  17.232  0.00  0.00    +0.000 OA
ATOM      4  N   UNL     1       0.855   9.395  19.094  0.00  0.00    +0.000 N 
ATOM      5  H   UNL     1       0.691   9.197  20.074  0.00  0.00    +0.000 HD
BRANCH   2   6
ATOM      6  C   UNL     1       2.528   7.594  19.187  0.00  0.00    +0.000 C 
BRANCH   6  13
ATOM      7  C   UNL     1       6.476   6.056  16.826  0.00  0.00    +0.000 A 
ATOM      8  C   UNL     1       6.256   4.812  16.239  0.00  0.00    +0.000 A 
ATOM      9  C   UNL     1       5.058   4.130  16.446  0.00  0.00    +0.000 A 
ATOM     10  C   UNL     1       4.072   4.759  17.220  0.00  0.00    +0.000 A 
ATOM     11  N   UNL     1       2.809   4.320  17.527  0.00  0.00    +0.000 N 
ATOM     12  C   UNL     1       2.144   5.278  18.232  0.00  0.00    +0.000 A 
ATOM     13  C   UNL     1       2.980   6.363  18.437  0.00  0.00    +0.000 A 
ATOM     14  C   UNL     1       4.250   6.004  17.833  0.00  0.00    +0.000 A 
ATOM     15  C   UNL     1       5.512   6.620  17.682  0.00  0.00    +0.000 A 
ATOM     16  H   UNL     1       2.426   3.428  17.246  0.00  0.00    +0.000 HD
BRANCH   7  18
ATOM     17  C   UNL     1       7.737   7.947  17.469  0.00  0.00    +0.000 C 
ATOM     18  O   UNL     1       7.604   6.809  16.616  0.00  0.00    +0.000 OA
ENDBRANCH   7  18
ENDBRANCH   6  13
ENDBRANCH   2   6
ENDBRANCH   1   4
BRANCH   1  19
ATOM     19  C   UNL     1      -1.461  10.394  18.826  0.00  0.00    +0.000 C 
BRANCH  19  20
ATOM     20  C   UNL     1      -2.408  10.511  17.651  0.00  0.00    +0.000 A 
ATOM     21  C   UNL     1      -3.570  11.280  17.716  0.00  0.00    +0.000 A 
ATOM     22  C   UNL     1      -4.393  11.419  16.591  0.00  0.00    +0.000 A 
ATOM     23  C   UNL     1      -4.061  10.803  15.385  0.00  0.00    +0.000 A 
ATOM     24  C   UNL     1      -2.918  10.028  15.310  0.00  0.00    +0.000 A 
ATOM     25  C   UNL     1      -2.116   9.885  16.438  0.00  0.00    +0.000 A 
ENDBRANCH  19  20
ENDBRANCH   1  19
BRANCH   1  26
ATOM     26  C   UNL     1       0.559  11.913  18.810  0.00  0.00    +0.000 C 
BRANCH  26  27
ATOM     27  N   UNL     1       0.710  12.154  20.254  0.00  0.00    +0.000 N 
ATOM     28  C   UNL     1       2.062  12.452  20.725  0.00  0.00    +0.000 C 
BRANCH  27  29
ATOM     29  C   UNL     1      -0.363  12.140  21.133  0.00  0.00    +0.000 A 
ATOM     30  C   UNL     1      -0.459  11.215  22.190  0.00  0.00    +0.000 A 
ATOM     31  C   UNL     1      -1.502  11.249  23.124  0.00  0.00    +0.000 A 
ATOM     32  C   UNL     1      -2.503  12.200  23.004  0.00  0.00    +0.000 A 
ATOM     33 CL   UNL     1      -3.776  12.257  24.157  0.00  0.00    +0.000 Cl
ATOM     34  C   UNL     1      -2.472  13.106  21.954  0.00  0.00    +0.000 A 
ATOM     35  C   UNL     1      -1.415  13.070  21.034  0.00  0.00    +0.000 A 
ENDBRANCH  27  29
ENDBRANCH  26  27
ENDBRANCH   1  26
TORSDOF 9
ENDMDL
MODEL 2
REMARK VINA RESULT:      -8.2      0.988      1.393
REMARK  Name = 
REMARK  11 active torsions:
REMARK  status: ('A' for Active; 'I' for Inactive)
REMARK    1  A    between atoms: C_1  and  O_2
REMARK    2  A    between atoms: O_2  and  C_3
REMARK    3  A    between atoms: C_9  and  C_10
REMARK    4  A    between atoms: C_10  and  C_11
REMARK    5  A    between atoms: N_13  and  C_14
REMARK    6  A    between atoms: C_14  and  C_15
REMARK    7  A    between atoms: C_14  and  C_22
REMARK    8  A    between atoms: C_15  and  C_16
REMARK    9  A    between atoms: C_22  and  N_23
REMARK   10  A    between atoms: N_23  and  C_24
REMARK   11  A    between atoms: N_23  and  C_25
REMARK                            x       y       z     vdW  Elec       q    Type
REMARK                         _______ _______ _______ _____ _____    ______ ____
ROOT
ATOM      1  C   UNL     1      -0.031  10.389  18.473  0.00  0.00    +0.000 C 
ENDROOT
BRANCH   1   4
ATOM      2  C   UNL     1       1.791   8.666  18.640  0.00  0.00    +0.000 C 
ATOM      3  O   UNL     1       2.002   8.683  17.425  0.00  0.00    +0.000 OA
ATOM      4  N   UNL     1       0.846   9.474  19.233  0.00  0.00    +0.000 N 
ATOM      5  H   UNL     1       0.745   9.472  20.241  0.00  0.00    +0.000 HD
BRANCH   2   6
ATOM      6  C   UNL     1       2.588   7.773  19.575  0.00  0.00    +0.000 C 
BRANCH   6  13
ATOM      7  C   UNL     1       5.219   5.280  16.352  0.00  0.00    +0.000 A 
ATOM      8  C   UNL     1       4.910   3.922  16.395  0.00  0.00    +0.000 A 
ATOM      9  C   UNL     1       4.022   3.425  17.348  0.00  0.00    +0.000 A 
ATOM     10  C   UNL     1       3.418   4.342  18.221  0.00  0.00    +0.000 A 
ATOM     11  N   UNL     1       2.486   4.112  19.202  0.00  0.00    +0.000 N 
ATOM     12  C   UNL     1       2.097   5.293  19.759  0.00  0.00    +0.000 A 
ATOM     13  C   UNL     1       2.802   6.333  19.173  0.00  0.00    +0.000 A 
ATOM     14  C   UNL     1       3.700   5.712  18.217  0.00  0.00    +0.000 A 
ATOM     15  C   UNL     1       4.679   6.165  17.305  0.00  0.00    +0.000 A 
ATOM     16  H   UNL     1       2.128   3.200  19.451  0.00  0.00    +0.000 HD
BRANCH   7  18
ATOM     17  C   UNL     1       6.820   4.917  14.654  0.00  0.00    +0.000 C 
ATOM     18  O   UNL     1       6.036   5.845  15.406  0.00  0.00    +0.000 OA
ENDBRANCH   7  18
ENDBRANCH   6  13
ENDBRANCH   2   6
ENDBRANCH   1   4
BRANCH   1  19
ATOM     19  C   UNL     1      -1.545  10.091  18.652  0.00  0.00    +0.000 C 
BRANCH  19  20
ATOM     20  C   UNL     1      -2.424  10.413  17.462  0.00  0.00    +0.000 A 
ATOM     21  C   UNL     1      -2.227   9.813  16.218  0.00  0.00    +0.000 A 
ATOM     22  C   UNL     1      -3.097  10.084  15.154  0.00  0.00    +0.000 A 
ATOM     23  C   UNL     1      -4.178  10.949  15.321  0.00  0.00    +0.000 A 
ATOM     24  C   UNL     1      -4.378  11.560  16.545  0.00  0.00    +0.000 A 
ATOM     25  C   UNL     1      -3.499  11.294  17.591  0.00  0.00    +0.000 A 
ENDBRANCH  19  20
ENDBRANCH   1  19
BRANCH   1  26
ATOM     26  C   UNL     1       0.216  11.901  18.761  0.00  0.00    +0.000 C 
BRANCH  26  27
ATOM     27  N   UNL     1       0.387  12.191  20.194  0.00  0.00    +0.000 N 
ATOM     28  C   UNL     1       1.738  12.539  20.630  0.00  0.00    +0.000 C 
BRANCH  27  29
ATOM     29  C   UNL     1      -0.670  12.176  21.094  0.00  0.00    +0.000 A 
ATOM     30  C   UNL     1      -0.629  11.437  22.291  0.00  0.00    +0.000 A 
ATOM     31  C   UNL     1      -1.662  11.482  23.236  0.00  0.00    +0.000 A 
ATOM     32  C   UNL     1      -2.788  12.252  22.989  0.00  0.00    +0.000 A 
ATOM     33 CL   UNL     1      -4.051  12.324  24.151  0.00  0.00    +0.000 Cl
ATOM     34  C   UNL     1      -2.890  12.965  21.803  0.00  0.00    +0.000 A 
ATOM     35  C   UNL     1      -1.843  12.921  20.872  0.00  0.00    +0.000 A 
ENDBRANCH  27  29
ENDBRANCH  26  27
ENDBRANCH   1  26
TORSDOF 9
ENDMDL
MODEL 3
REMARK VINA RESULT:      -8.1      2.081      2.639
REMARK  Name = 
REMARK  11 active torsions:
REMARK  status: ('A' for Active; 'I' for Inactive)
REMARK    1  A    between atoms: C_1  and  O_2
REMARK    2  A    between atoms: O_2  and  C_3
REMARK    3  A    between atoms: C_9  and  C_10
REMARK    4  A    between atoms: C_10  and  C_11
REMARK    5  A    between atoms: N_13  and  C_14
REMARK    6  A    between atoms: C_14  and  C_15
REMARK    7  A    between atoms: C_14  and  C_22
REMARK    8  A    between atoms: C_15  and  C_16
REMARK    9  A    between atoms: C_22  and  N_23
REMARK   10  A    between atoms: N_23  and  C_24
REMARK   11  A    between atoms: N_23  and  C_25
REMARK                            x       y       z     vdW  Elec       q    Type
REMARK                         _______ _______ _______ _____ _____    ______ ____
ROOT
ATOM      1  C   UNL     1       0.461  10.309  19.424  0.00  0.00    +0.000 C 
ENDROOT
BRANCH   1   4
ATOM      2  C   UNL     1       1.864   8.301  18.859  0.00  0.00    +0.000 C 
ATOM      3  O   UNL     1       1.852   8.556  17.652  0.00  0.00    +0.000 OA
ATOM      4  N   UNL     1       1.240   9.107  19.787  0.00  0.00    +0.000 N 
ATOM      5  H   UNL     1       1.324   8.894  20.774  0.00  0.00    +0.000 HD
BRANCH   2   6
ATOM      6  C   UNL     1       2.603   7.094  19.412  0.00  0.00    +0.000 C 
BRANCH   6  13
ATOM      7  C   UNL     1       6.463   6.008  16.684  0.00  0.00    +0.000 A 
ATOM      8  C   UNL     1       6.221   4.886  15.895  0.00  0.00    +0.000 A 
ATOM      9  C   UNL     1       5.029   4.173  16.021  0.00  0.00    +0.000 A 
ATOM     10  C   UNL     1       4.072   4.653  16.926  0.00  0.00    +0.000 A 
ATOM     11  N   UNL     1       2.818   4.163  17.195  0.00  0.00    +0.000 N 
ATOM     12  C   UNL     1       2.180   4.980  18.080  0.00  0.00    +0.000 A 
ATOM     13  C   UNL     1       3.027   6.016  18.443  0.00  0.00    +0.000 A 
ATOM     14  C   UNL     1       4.273   5.772  17.742  0.00  0.00    +0.000 A 
ATOM     15  C   UNL     1       5.531   6.410  17.658  0.00  0.00    +0.000 A 
ATOM     16  H   UNL     1       2.424   3.333  16.775  0.00  0.00    +0.000 HD
BRANCH   7  18
ATOM     17  C   UNL     1       7.731   7.787  17.583  0.00  0.00    +0.000 C 
ATOM     18  O   UNL     1       7.586   6.790  16.570  0.00  0.00    +0.000 OA
ENDBRANCH   7  18
ENDBRANCH   6  13
ENDBRANCH   2   6
ENDBRANCH   1   4
BRANCH   1  19
ATOM     19  C   UNL     1      -1.072  10.133  19.602  0.00  0.00    +0.000 C 
BRANCH  19  20
ATOM     20  C   UNL     1      -1.909  10.373  18.363  0.00  0.00    +0.000 A 
ATOM     21  C   UNL     1      -2.953  11.299  18.349  0.00  0.00    +0.000 A 
ATOM     22  C   UNL     1      -3.667  11.544  17.169  0.00  0.00    +0.000 A 
ATOM     23  C   UNL     1      -3.343  10.876  15.988  0.00  0.00    +0.000 A 
ATOM     24  C   UNL     1      -2.319   9.947  15.992  0.00  0.00    +0.000 A 
ATOM     25  C   UNL     1      -1.626   9.701  17.173  0.00  0.00    +0.000 A 
ENDBRANCH  19  20
ENDBRANCH   1  19
BRANCH   1  26
ATOM     26  C   UNL     1       0.902  11.607  20.166  0.00  0.00    +0.000 C 
BRANCH  26  27
ATOM     27  N   UNL     1       1.345  12.670  19.249  0.00  0.00    +0.000 N 
ATOM     28  C   UNL     1       2.395  12.313  18.297  0.00  0.00    +0.000 C 
BRANCH  27  29
ATOM     29  C   UNL     1       0.784  13.940  19.248  0.00  0.00    +0.000 A 
ATOM     30  C   UNL     1       1.367  15.019  18.557  0.00  0.00    +0.000 A 
ATOM     31  C   UNL     1       0.762  16.281  18.491  0.00  0.00    +0.000 A 
ATOM     32  C   UNL     1      -0.438  16.505  19.146  0.00  0.00    +0.000 A 
ATOM     33 CL   UNL     1      -1.193  18.046  19.055  0.00  0.00    +0.000 Cl
ATOM     34  C   UNL     1      -1.028  15.481  19.874  0.00  0.00    +0.000 A 
ATOM     35  C   UNL     1      -0.420  14.220  19.921  0.00  0.00    +0.000 A 
ENDBRANCH  27  29
ENDBRANCH  26  27
ENDBRANCH   1  26
TORSDOF 9
ENDMDL
MODEL 4
REMARK VINA RESULT:      -8.1      4.762      8.980
REMARK  Name = 
REMARK  11 active torsions:
REMARK  status: ('A' for Active; 'I' for Inactive)
REMARK    1  A    between atoms: C_1  and  O_2
REMARK    2  A    between atoms: O_2  and  C_3
REMARK    3  A    between atoms: C_9  and  C_10
REMARK    4  A    between atoms: C_10  and  C_11
REMARK    5  A    between atoms: N_13  and  C_14
REMARK    6  A    between atoms: C_14  and  C_15
REMARK    7  A    between atoms: C_14  and  C_22
REMARK    8  A    between atoms: C_15  and  C_16
REMARK    9  A    between atoms: C_22  and  N_23
REMARK   10  A    between atoms: N_23  and  C_24
REMARK   11  A    between atoms: N_23  and  C_25
REMARK                            x       y       z     vdW  Elec       q    Type
REMARK                         _______ _______ _______ _____ _____    ______ ____
ROOT
ATOM      1  C   UNL     1       5.774   7.124  17.182  0.00  0.00    +0.000 C 
ENDROOT
BRANCH   1   4
ATOM      2  C   UNL     1       7.818   8.490  17.706  0.00  0.00    +0.000 C 
ATOM      3  O   UNL     1       8.259   7.643  18.486  0.00  0.00    +0.000 OA
ATOM      4  N   UNL     1       6.638   8.311  17.015  0.00  0.00    +0.000 N 
ATOM      5  H   UNL     1       6.341   9.005  16.341  0.00  0.00    +0.000 HD
BRANCH   2   6
ATOM      6  C   UNL     1       8.567   9.782  17.424  0.00  0.00    +0.000 C 
BRANCH   6  13
ATOM      7  C   UNL     1      11.255  13.746  18.190  0.00  0.00    +0.000 A 
ATOM      8  C   UNL     1      11.557  13.893  19.542  0.00  0.00    +0.000 A 
ATOM      9  C   UNL     1      11.023  13.021  20.489  0.00  0.00    +0.000 A 
ATOM     10  C   UNL     1      10.218  11.968  20.029  0.00  0.00    +0.000 A 
ATOM     11  N   UNL     1       9.621  10.963  20.747  0.00  0.00    +0.000 N 
ATOM     12  C   UNL     1       8.999  10.094  19.901  0.00  0.00    +0.000 A 
ATOM     13  C   UNL     1       9.145  10.538  18.597  0.00  0.00    +0.000 A 
ATOM     14  C   UNL     1       9.884  11.783  18.683  0.00  0.00    +0.000 A 
ATOM     15  C   UNL     1      10.362  12.744  17.764  0.00  0.00    +0.000 A 
ATOM     16  H   UNL     1       9.663  10.873  21.753  0.00  0.00    +0.000 HD
BRANCH   7  18
ATOM     17  C   UNL     1      11.046  15.709  16.893  0.00  0.00    +0.000 C 
ATOM     18  O   UNL     1      11.792  14.530  17.200  0.00  0.00    +0.000 OA
ENDBRANCH   7  18
ENDBRANCH   6  13
ENDBRANCH   2   6
ENDBRANCH   1   4
BRANCH   1  19
ATOM     19  C   UNL     1       4.310   7.351  16.713  0.00  0.00    +0.000 C 
BRANCH  19  20
ATOM     20  C   UNL     1       3.297   7.590  17.813  0.00  0.00    +0.000 A 
ATOM     21  C   UNL     1       3.157   6.710  18.887  0.00  0.00    +0.000 A 
ATOM     22  C   UNL     1       2.254   6.992  19.921  0.00  0.00    +0.000 A 
ATOM     23  C   UNL     1       1.490   8.159  19.901  0.00  0.00    +0.000 A 
ATOM     24  C   UNL     1       1.611   9.033  18.836  0.00  0.00    +0.000 A 
ATOM     25  C   UNL     1       2.499   8.735  17.808  0.00  0.00    +0.000 A 
ENDBRANCH  19  20
ENDBRANCH   1  19
BRANCH   1  26
ATOM     26  C   UNL     1       6.320   5.833  16.501  0.00  0.00    +0.000 C 
BRANCH  26  27
ATOM     27  N   UNL     1       6.387   4.684  17.419  0.00  0.00    +0.000 N 
ATOM     28  C   UNL     1       7.720   4.291  17.872  0.00  0.00    +0.000 C 
BRANCH  27  29
ATOM     29  C   UNL     1       5.256   4.018  17.871  0.00  0.00    +0.000 A 
ATOM     30  C   UNL     1       5.077   3.670  19.223  0.00  0.00    +0.000 A 
ATOM     31  C   UNL     1       3.903   3.068  19.693  0.00  0.00    +0.000 A 
ATOM     32  C   UNL     1       2.881   2.769  18.807  0.00  0.00    +0.000 A 
ATOM     33 CL   UNL     1       1.431   2.046  19.381  0.00  0.00    +0.000 Cl
ATOM     34  C   UNL     1       3.029   3.057  17.458  0.00  0.00    +0.000 A 
ATOM     35  C   UNL     1       4.204   3.672  17.003  0.00  0.00    +0.000 A 
ENDBRANCH  27  29
ENDBRANCH  26  27
ENDBRANCH   1  26
TORSDOF 9
ENDMDL
MODEL 5
REMARK VINA RESULT:      -8.1      4.126      9.969
REMARK  Name = 
REMARK  11 active torsions:
REMARK  status: ('A' for Active; 'I' for Inactive)
REMARK    1  A    between atoms: C_1  and  O_2
REMARK    2  A    between atoms: O_2  and  C_3
REMARK    3  A    between atoms: C_9  and  C_10
REMARK    4  A    between atoms: C_10  and  C_11
REMARK    5  A    between atoms: N_13  and  C_14
REMARK    6  A    between atoms: C_14  and  C_15
REMARK    7  A    between atoms: C_14  and  C_22
REMARK    8  A    between atoms: C_15  and  C_16
REMARK    9  A    between atoms: C_22  and  N_23
REMARK   10  A    between atoms: N_23  and  C_24
REMARK   11  A    between atoms: N_23  and  C_25
REMARK                            x       y       z     vdW  Elec       q    Type
REMARK                         _______ _______ _______ _____ _____    ______ ____
ROOT
ATOM      1  C   UNL     1       2.690   7.082  18.554  0.00  0.00    +0.000 C 
ENDROOT
BRANCH   1   4
ATOM      2  C   UNL     1       1.247   8.950  19.417  0.00  0.00    +0.000 C 
ATOM      3  O   UNL     1       1.387   8.598  20.591  0.00  0.00    +0.000 OA
ATOM      4  N   UNL     1       1.860   8.291  18.373  0.00  0.00    +0.000 N 
ATOM      5  H   UNL     1       1.766   8.649  17.430  0.00  0.00    +0.000 HD
BRANCH   2   6
ATOM      6  C   UNL     1       0.412  10.164  19.043  0.00  0.00    +0.000 C 
BRANCH   6  13
ATOM      7  C   UNL     1      -1.847  12.260  22.788  0.00  0.00    +0.000 A 
ATOM      8  C   UNL     1      -1.286  13.500  23.082  0.00  0.00    +0.000 A 
ATOM      9  C   UNL     1      -0.157  13.950  22.398  0.00  0.00    +0.000 A 
ATOM     10  C   UNL     1       0.358  13.136  21.379  0.00  0.00    +0.000 A 
ATOM     11  N   UNL     1       1.419  13.372  20.541  0.00  0.00    +0.000 N 
ATOM     12  C   UNL     1       1.529  12.361  19.635  0.00  0.00    +0.000 A 
ATOM     13  C   UNL     1       0.553  11.409  19.886  0.00  0.00    +0.000 A 
ATOM     14  C   UNL     1      -0.169  11.881  21.053  0.00  0.00    +0.000 A 
ATOM     15  C   UNL     1      -1.251  11.416  21.832  0.00  0.00    +0.000 A 
ATOM     16  H   UNL     1       2.011  14.191  20.581  0.00  0.00    +0.000 HD
BRANCH   7  18
ATOM     17  C   UNL     1      -3.721  12.743  24.143  0.00  0.00    +0.000 C 
ATOM     18  O   UNL     1      -2.991  11.783  23.378  0.00  0.00    +0.000 OA
ENDBRANCH   7  18
ENDBRANCH   6  13
ENDBRANCH   2   6
ENDBRANCH   1   4
BRANCH   1  19
ATOM     19  C   UNL     1       2.117   5.824  17.846  0.00  0.00    +0.000 C 
BRANCH  19  20
ATOM     20  C   UNL     1       1.856   4.629  18.739  0.00  0.00    +0.000 A 
ATOM     21  C   UNL     1       1.719   4.760  20.122  0.00  0.00    +0.000 A 
ATOM     22  C   UNL     1       1.415   3.645  20.913  0.00  0.00    +0.000 A 
ATOM     23  C   UNL     1       1.234   2.389  20.335  0.00  0.00    +0.000 A 
ATOM     24  C   UNL     1       1.378   2.243  18.967  0.00  0.00    +0.000 A 
ATOM     25  C   UNL     1       1.695   3.355  18.193  0.00  0.00    +0.000 A 
ENDBRANCH  19  20
ENDBRANCH   1  19
BRANCH   1  26
ATOM     26  C   UNL     1       4.179   7.258  18.127  0.00  0.00    +0.000 C 
BRANCH  26  27
ATOM     27  N   UNL     1       4.899   5.979  18.017  0.00  0.00    +0.000 N 
ATOM     28  C   UNL     1       5.288   5.342  19.275  0.00  0.00    +0.000 C 
BRANCH  27  29
ATOM     29  C   UNL     1       5.175   5.375  16.798  0.00  0.00    +0.000 A 
ATOM     30  C   UNL     1       5.278   6.109  15.601  0.00  0.00    +0.000 A 
ATOM     31  C   UNL     1       5.632   5.512  14.385  0.00  0.00    +0.000 A 
ATOM     32  C   UNL     1       5.864   4.147  14.329  0.00  0.00    +0.000 A 
ATOM     33 CL   UNL     1       6.315   3.412  12.843  0.00  0.00    +0.000 Cl
ATOM     34  C   UNL     1       5.733   3.377  15.476  0.00  0.00    +0.000 A 
ATOM     35  C   UNL     1       5.392   3.989  16.690  0.00  0.00    +0.000 A 
ENDBRANCH  27  29
ENDBRANCH  26  27
ENDBRANCH   1  26
TORSDOF 9
ENDMDL
MODEL 6
REMARK VINA RESULT:      -8.0      1.796      3.113
REMARK  Name = 
REMARK  11 active torsions:
REMARK  status: ('A' for Active; 'I' for Inactive)
REMARK    1  A    between atoms: C_1  and  O_2
REMARK    2  A    between atoms: O_2  and  C_3
REMARK    3  A    between atoms: C_9  and  C_10
REMARK    4  A    between atoms: C_10  and  C_11
REMARK    5  A    between atoms: N_13  and  C_14
REMARK    6  A    between atoms: C_14  and  C_15
REMARK    7  A    between atoms: C_14  and  C_22
REMARK    8  A    between atoms: C_15  and  C_16
REMARK    9  A    between atoms: C_22  and  N_23
REMARK   10  A    between atoms: N_23  and  C_24
REMARK   11  A    between atoms: N_23  and  C_25
REMARK                            x       y       z     vdW  Elec       q    Type
REMARK                         _______ _______ _______ _____ _____    ______ ____
ROOT
ATOM      1  C   UNL     1       0.413  10.521  18.453  0.00  0.00    +0.000 C 
ENDROOT
BRANCH   1   4
ATOM      2  C   UNL     1       2.065   8.653  18.134  0.00  0.00    +0.000 C 
ATOM      3  O   UNL     1       1.892   8.224  19.277  0.00  0.00    +0.000 OA
ATOM      4  N   UNL     1       1.375   9.742  17.646  0.00  0.00    +0.000 N 
ATOM      5  H   UNL     1       1.503  10.027  16.682  0.00  0.00    +0.000 HD
BRANCH   2   6
ATOM      6  C   UNL     1       3.029   7.986  17.168  0.00  0.00    +0.000 C 
BRANCH   6  13
ATOM      7  C   UNL     1       2.370   3.697  19.335  0.00  0.00    +0.000 A 
ATOM      8  C   UNL     1       3.588   3.109  19.664  0.00  0.00    +0.000 A 
ATOM      9  C   UNL     1       4.791   3.704  19.284  0.00  0.00    +0.000 A 
ATOM     10  C   UNL     1       4.728   4.932  18.610  0.00  0.00    +0.000 A 
ATOM     11  N   UNL     1       5.758   5.730  18.176  0.00  0.00    +0.000 N 
ATOM     12  C   UNL     1       5.259   6.882  17.645  0.00  0.00    +0.000 A 
ATOM     13  C   UNL     1       3.875   6.846  17.684  0.00  0.00    +0.000 A 
ATOM     14  C   UNL     1       3.529   5.558  18.254  0.00  0.00    +0.000 A 
ATOM     15  C   UNL     1       2.331   4.877  18.568  0.00  0.00    +0.000 A 
ATOM     16  H   UNL     1       6.738   5.501  18.266  0.00  0.00    +0.000 HD
BRANCH   7  18
ATOM     17  C   UNL     1       0.624   2.170  18.890  0.00  0.00    +0.000 C 
ATOM     18  O   UNL     1       1.153   3.199  19.728  0.00  0.00    +0.000 OA
ENDBRANCH   7  18
ENDBRANCH   6  13
ENDBRANCH   2   6
ENDBRANCH   1   4
BRANCH   1  19
ATOM     19  C   UNL     1      -0.940   9.793  18.680  0.00  0.00    +0.000 C 
BRANCH  19  20
ATOM     20  C   UNL     1      -2.115  10.329  17.890  0.00  0.00    +0.000 A 
ATOM     21  C   UNL     1      -2.372   9.916  16.581  0.00  0.00    +0.000 A 
ATOM     22  C   UNL     1      -3.503  10.382  15.899  0.00  0.00    +0.000 A 
ATOM     23  C   UNL     1      -4.397  11.257  16.516  0.00  0.00    +0.000 A 
ATOM     24  C   UNL     1      -4.148  11.684  17.808  0.00  0.00    +0.000 A 
ATOM     25  C   UNL     1      -3.014  11.225  18.471  0.00  0.00    +0.000 A 
ENDBRANCH  19  20
ENDBRANCH   1  19
BRANCH   1  26
ATOM     26  C   UNL     1       0.965  10.986  19.835  0.00  0.00    +0.000 C 
BRANCH  26  27
ATOM     27  N   UNL     1       0.369  12.251  20.295  0.00  0.00    +0.000 N 
ATOM     28  C   UNL     1       0.850  13.470  19.646  0.00  0.00    +0.000 C 
BRANCH  27  29
ATOM     29  C   UNL     1      -0.621  12.304  21.265  0.00  0.00    +0.000 A 
ATOM     30  C   UNL     1      -1.628  13.288  21.261  0.00  0.00    +0.000 A 
ATOM     31  C   UNL     1      -2.672  13.296  22.195  0.00  0.00    +0.000 A 
ATOM     32  C   UNL     1      -2.718  12.327  23.185  0.00  0.00    +0.000 A 
ATOM     33 CL   UNL     1      -4.006  12.322  24.323  0.00  0.00    +0.000 Cl
ATOM     34  C   UNL     1      -1.724  11.362  23.253  0.00  0.00    +0.000 A 
ATOM     35  C   UNL     1      -0.692  11.357  22.304  0.00  0.00    +0.000 A 
ENDBRANCH  27  29
ENDBRANCH  26  27
ENDBRANCH   1  26
TORSDOF 9
ENDMDL
MODEL 7
REMARK VINA RESULT:      -8.0      4.287      9.392
REMARK  Name = 
REMARK  11 active torsions:
REMARK  status: ('A' for Active; 'I' for Inactive)
REMARK    1  A    between atoms: C_1  and  O_2
REMARK    2  A    between atoms: O_2  and  C_3
REMARK    3  A    between atoms: C_9  and  C_10
REMARK    4  A    between atoms: C_10  and  C_11
REMARK    5  A    between atoms: N_13  and  C_14
REMARK    6  A    between atoms: C_14  and  C_15
REMARK    7  A    between atoms: C_14  and  C_22
REMARK    8  A    between atoms: C_15  and  C_16
REMARK    9  A    between atoms: C_22  and  N_23
REMARK   10  A    between atoms: N_23  and  C_24
REMARK   11  A    between atoms: N_23  and  C_25
REMARK                            x       y       z     vdW  Elec       q    Type
REMARK                         _______ _______ _______ _____ _____    ______ ____
ROOT
ATOM      1  C   UNL     1       2.791   6.881  18.892  0.00  0.00    +0.000 C 
ENDROOT
BRANCH   1   4
ATOM      2  C   UNL     1       1.417   8.076  20.626  0.00  0.00    +0.000 C 
ATOM      3  O   UNL     1       1.222   7.043  21.271  0.00  0.00    +0.000 OA
ATOM      4  N   UNL     1       2.183   8.093  19.480  0.00  0.00    +0.000 N 
ATOM      5  H   UNL     1       2.367   8.973  19.013  0.00  0.00    +0.000 HD
BRANCH   2   6
ATOM      6  C   UNL     1       0.854   9.414  21.073  0.00  0.00    +0.000 C 
BRANCH   6  13
ATOM      7  C   UNL     1       1.245  14.134  20.029  0.00  0.00    +0.000 A 
ATOM      8  C   UNL     1       0.472  14.468  18.920  0.00  0.00    +0.000 A 
ATOM      9  C   UNL     1      -0.210  13.483  18.206  0.00  0.00    +0.000 A 
ATOM     10  C   UNL     1      -0.129  12.163  18.672  0.00  0.00    +0.000 A 
ATOM     11  N   UNL     1      -0.738  11.037  18.178  0.00  0.00    +0.000 N 
ATOM     12  C   UNL     1      -0.464   9.971  18.981  0.00  0.00    +0.000 A 
ATOM     13  C   UNL     1       0.373  10.373  20.010  0.00  0.00    +0.000 A 
ATOM     14  C   UNL     1       0.638  11.780  19.777  0.00  0.00    +0.000 A 
ATOM     15  C   UNL     1       1.393  12.789  20.416  0.00  0.00    +0.000 A 
ATOM     16  H   UNL     1      -1.324  11.015  17.355  0.00  0.00    +0.000 HD
BRANCH   7  18
ATOM     17  C   UNL     1       1.869  16.394  20.311  0.00  0.00    +0.000 C 
ATOM     18  O   UNL     1       1.892  15.057  20.812  0.00  0.00    +0.000 OA
ENDBRANCH   7  18
ENDBRANCH   6  13
ENDBRANCH   2   6
ENDBRANCH   1   4
BRANCH   1  19
ATOM     19  C   UNL     1       1.797   6.033  18.051  0.00  0.00    +0.000 C 
BRANCH  19  20
ATOM     20  C   UNL     1       1.766   4.553  18.367  0.00  0.00    +0.000 A 
ATOM     21  C   UNL     1       2.280   3.601  17.485  0.00  0.00    +0.000 A 
ATOM     22  C   UNL     1       2.293   2.244  17.834  0.00  0.00    +0.000 A 
ATOM     23  C   UNL     1       1.804   1.823  19.071  0.00  0.00    +0.000 A 
ATOM     24  C   UNL     1       1.281   2.754  19.949  0.00  0.00    +0.000 A 
ATOM     25  C   UNL     1       1.260   4.096  19.585  0.00  0.00    +0.000 A 
ENDBRANCH  19  20
ENDBRANCH   1  19
BRANCH   1  26
ATOM     26  C   UNL     1       4.063   7.154  18.034  0.00  0.00    +0.000 C 
BRANCH  26  27
ATOM     27  N   UNL     1       4.956   5.988  17.944  0.00  0.00    +0.000 N 
ATOM     28  C   UNL     1       5.405   5.414  19.212  0.00  0.00    +0.000 C 
BRANCH  27  29
ATOM     29  C   UNL     1       5.336   5.425  16.734  0.00  0.00    +0.000 A 
ATOM     30  C   UNL     1       5.803   4.101  16.632  0.00  0.00    +0.000 A 
ATOM     31  C   UNL     1       6.113   3.508  15.402  0.00  0.00    +0.000 A 
ATOM     32  C   UNL     1       5.990   4.241  14.233  0.00  0.00    +0.000 A 
ATOM     33 CL   UNL     1       6.352   3.513  12.719  0.00  0.00    +0.000 Cl
ATOM     34  C   UNL     1       5.572   5.563  14.289  0.00  0.00    +0.000 A 
ATOM     35  C   UNL     1       5.252   6.141  15.525  0.00  0.00    +0.000 A 
ENDBRANCH  27  29
ENDBRANCH  26  27
ENDBRANCH   1  26
TORSDOF 9
ENDMDL
MODEL 8
REMARK VINA RESULT:      -8.0      4.319      9.482
REMARK  Name = 
REMARK  11 active torsions:
REMARK  status: ('A' for Active; 'I' for Inactive)
REMARK    1  A    between atoms: C_1  and  O_2
REMARK    2  A    between atoms: O_2  and  C_3
REMARK    3  A    between atoms: C_9  and  C_10
REMARK    4  A    between atoms: C_10  and  C_11
REMARK    5  A    between atoms: N_13  and  C_14
REMARK    6  A    between atoms: C_14  and  C_15
REMARK    7  A    between atoms: C_14  and  C_22
REMARK    8  A    between atoms: C_15  and  C_16
REMARK    9  A    between atoms: C_22  and  N_23
REMARK   10  A    between atoms: N_23  and  C_24
REMARK   11  A    between atoms: N_23  and  C_25
REMARK                            x       y       z     vdW  Elec       q    Type
REMARK                         _______ _______ _______ _____ _____    ______ ____
ROOT
ATOM      1  C   UNL     1       3.519   6.856  18.129  0.00  0.00    +0.000 C 
ENDROOT
BRANCH   1   4
ATOM      2  C   UNL     1       1.790   8.577  18.733  0.00  0.00    +0.000 C 
ATOM      3  O   UNL     1       1.764   8.225  19.915  0.00  0.00    +0.000 OA
ATOM      4  N   UNL     1       2.625   7.988  17.809  0.00  0.00    +0.000 N 
ATOM      5  H   UNL     1       2.658   8.346  16.862  0.00  0.00    +0.000 HD
BRANCH   2   6
ATOM      6  C   UNL     1       0.924   9.716  18.221  0.00  0.00    +0.000 C 
BRANCH   6  13
ATOM      7  C   UNL     1       3.195  13.978  18.662  0.00  0.00    +0.000 A 
ATOM      8  C   UNL     1       2.680  14.714  19.727  0.00  0.00    +0.000 A 
ATOM      9  C   UNL     1       1.583  14.245  20.449  0.00  0.00    +0.000 A 
ATOM     10  C   UNL     1       1.055  12.994  20.099  0.00  0.00    +0.000 A 
ATOM     11  N   UNL     1       0.020  12.303  20.679  0.00  0.00    +0.000 N 
ATOM     12  C   UNL     1      -0.113  11.084  20.086  0.00  0.00    +0.000 A 
ATOM     13  C   UNL     1       0.818  10.963  19.067  0.00  0.00    +0.000 A 
ATOM     14  C   UNL     1       1.536  12.223  19.035  0.00  0.00    +0.000 A 
ATOM     15  C   UNL     1       2.583  12.775  18.264  0.00  0.00    +0.000 A 
ATOM     16  H   UNL     1      -0.538  12.645  21.449  0.00  0.00    +0.000 HD
BRANCH   7  18
ATOM     17  C   UNL     1       4.935  15.553  18.392  0.00  0.00    +0.000 C 
ATOM     18  O   UNL     1       4.307  14.349  17.948  0.00  0.00    +0.000 OA
ENDBRANCH   7  18
ENDBRANCH   6  13
ENDBRANCH   2   6
ENDBRANCH   1   4
BRANCH   1  19
ATOM     19  C   UNL     1       2.948   5.474  17.706  0.00  0.00    +0.000 C 
BRANCH  19  20
ATOM     20  C   UNL     1       2.353   4.640  18.821  0.00  0.00    +0.000 A 
ATOM     21  C   UNL     1       2.646   4.889  20.163  0.00  0.00    +0.000 A 
ATOM     22  C   UNL     1       2.030   4.140  21.174  0.00  0.00    +0.000 A 
ATOM     23  C   UNL     1       1.108   3.141  20.860  0.00  0.00    +0.000 A 
ATOM     24  C   UNL     1       0.819   2.876  19.534  0.00  0.00    +0.000 A 
ATOM     25  C   UNL     1       1.447   3.616  18.538  0.00  0.00    +0.000 A 
ENDBRANCH  19  20
ENDBRANCH   1  19
BRANCH   1  26
ATOM     26  C   UNL     1       4.961   6.995  17.553  0.00  0.00    +0.000 C 
BRANCH  26  27
ATOM     27  N   UNL     1       5.656   5.704  17.428  0.00  0.00    +0.000 N 
ATOM     28  C   UNL     1       6.034   5.045  18.677  0.00  0.00    +0.000 C 
BRANCH  27  29
ATOM     29  C   UNL     1       5.917   5.109  16.202  0.00  0.00    +0.000 A 
ATOM     30  C   UNL     1       5.092   4.105  15.660  0.00  0.00    +0.000 A 
ATOM     31  C   UNL     1       5.311   3.559  14.389  0.00  0.00    +0.000 A 
ATOM     32  C   UNL     1       6.389   3.987  13.632  0.00  0.00    +0.000 A 
ATOM     33 CL   UNL     1       6.653   3.334  12.065  0.00  0.00    +0.000 Cl
ATOM     34  C   UNL     1       7.254   4.946  14.142  0.00  0.00    +0.000 A 
ATOM     35  C   UNL     1       7.016   5.494  15.410  0.00  0.00    +0.000 A 
ENDBRANCH  27  29
ENDBRANCH  26  27
ENDBRANCH   1  26
TORSDOF 9
ENDMDL
MODEL 9
REMARK VINA RESULT:      -8.0      4.156      8.733
REMARK  Name = 
REMARK  11 active torsions:
REMARK  status: ('A' for Active; 'I' for Inactive)
REMARK    1  A    between atoms: C_1  and  O_2
REMARK    2  A    between atoms: O_2  and  C_3
REMARK    3  A    between atoms: C_9  and  C_10
REMARK    4  A    between atoms: C_10  and  C_11
REMARK    5  A    between atoms: N_13  and  C_14
REMARK    6  A    between atoms: C_14  and  C_15
REMARK    7  A    between atoms: C_14  and  C_22
REMARK    8  A    between atoms: C_15  and  C_16
REMARK    9  A    between atoms: C_22  and  N_23
REMARK   10  A    between atoms: N_23  and  C_24
REMARK   11  A    between atoms: N_23  and  C_25
REMARK                            x       y       z     vdW  Elec       q    Type
REMARK                         _______ _______ _______ _____ _____    ______ ____
ROOT
ATOM      1  C   UNL     1       5.922   6.243  17.013  0.00  0.00    +0.000 C 
ENDROOT
BRANCH   1   4
ATOM      2  C   UNL     1       7.696   7.904  17.653  0.00  0.00    +0.000 C 
ATOM      3  O   UNL     1       8.227   7.123  18.446  0.00  0.00    +0.000 OA
ATOM      4  N   UNL     1       6.595   7.554  16.902  0.00  0.00    +0.000 N 
ATOM      5  H   UNL     1       6.225   8.204  16.220  0.00  0.00    +0.000 HD
BRANCH   2   6
ATOM      6  C   UNL     1       8.244   9.302  17.422  0.00  0.00    +0.000 C 
BRANCH   6  13
ATOM      7  C   UNL     1      11.640  12.710  18.040  0.00  0.00    +0.000 A 
ATOM      8  C   UNL     1      11.966  12.855  19.387  0.00  0.00    +0.000 A 
ATOM      9  C   UNL     1      11.277  12.141  20.366  0.00  0.00    +0.000 A 
ATOM     10  C   UNL     1      10.286  11.242  19.945  0.00  0.00    +0.000 A 
ATOM     11  N   UNL     1       9.508  10.401  20.701  0.00  0.00    +0.000 N 
ATOM     12  C   UNL     1       8.731   9.632  19.887  0.00  0.00    +0.000 A 
ATOM     13  C   UNL     1       8.957   9.983  18.566  0.00  0.00    +0.000 A 
ATOM     14  C   UNL     1       9.921  11.068  18.605  0.00  0.00    +0.000 A 
ATOM     15  C   UNL     1      10.572  11.880  17.650  0.00  0.00    +0.000 A 
ATOM     16  H   UNL     1       9.534  10.347  21.710  0.00  0.00    +0.000 HD
BRANCH   7  18
ATOM     17  C   UNL     1      12.052  14.733  16.892  0.00  0.00    +0.000 C 
ATOM     18  O   UNL     1      12.315  13.335  17.022  0.00  0.00    +0.000 OA
ENDBRANCH   7  18
ENDBRANCH   6  13
ENDBRANCH   2   6
ENDBRANCH   1   4
BRANCH   1  19
ATOM     19  C   UNL     1       6.823   5.045  16.605  0.00  0.00    +0.000 C 
BRANCH  19  20
ATOM     20  C   UNL     1       6.843   4.712  15.128  0.00  0.00    +0.000 A 
ATOM     21  C   UNL     1       5.910   3.845  14.557  0.00  0.00    +0.000 A 
ATOM     22  C   UNL     1       5.916   3.606  13.176  0.00  0.00    +0.000 A 
ATOM     23  C   UNL     1       6.845   4.236  12.349  0.00  0.00    +0.000 A 
ATOM     24  C   UNL     1       7.782   5.088  12.903  0.00  0.00    +0.000 A 
ATOM     25  C   UNL     1       7.776   5.307  14.277  0.00  0.00    +0.000 A 
ENDBRANCH  19  20
ENDBRANCH   1  19
BRANCH   1  26
ATOM     26  C   UNL     1       5.314   5.951  18.419  0.00  0.00    +0.000 C 
BRANCH  26  27
ATOM     27  N   UNL     1       3.851   5.796  18.391  0.00  0.00    +0.000 N 
ATOM     28  C   UNL     1       3.344   4.474  18.030  0.00  0.00    +0.000 C 
BRANCH  27  29
ATOM     29  C   UNL     1       2.981   6.827  18.719  0.00  0.00    +0.000 A 
ATOM     30  C   UNL     1       2.338   6.901  19.969  0.00  0.00    +0.000 A 
ATOM     31  C   UNL     1       1.522   7.980  20.330  0.00  0.00    +0.000 A 
ATOM     32  C   UNL     1       1.302   9.009  19.429  0.00  0.00    +0.000 A 
ATOM     33 CL   UNL     1       0.316  10.344  19.872  0.00  0.00    +0.000 Cl
ATOM     34  C   UNL     1       1.883   8.959  18.169  0.00  0.00    +0.000 A 
ATOM     35  C   UNL     1       2.709   7.880  17.826  0.00  0.00    +0.000 A 
ENDBRANCH  27  29
ENDBRANCH  26  27
ENDBRANCH   1  26
TORSDOF 9
ENDMDL
