MODEL 1
REMARK VINA RESULT:      -8.4      0.000      0.000
REMARK  Name = 
REMARK  4 active torsions:
REMARK  status: ('A' for Active; 'I' for Inactive)
REMARK    1  A    between atoms: C_2  and  C_3
REMARK    2  A    between atoms: C_3  and  O_4
REMARK    3  A    between atoms: O_4  and  C_5
REMARK    4  A    between atoms: C_19  and  C_20
REMARK                            x       y       z     vdW  Elec       q    Type
REMARK                         _______ _______ _______ _____ _____    ______ ____
ROOT
ATOM      1  O   UNL     1       1.177  11.066  18.106  0.00  0.00    +0.000 OA
ATOM      2  C   UNL     1       1.425   9.956  18.589  0.00  0.00    +0.000 C 
ATOM      3  N   UNL     1       2.298   9.143  17.934  0.00  0.00    +0.000 N 
ATOM      4  C   UNL     1       2.618   7.859  18.253  0.00  0.00    +0.000 A 
ATOM      5  N   UNL     1       1.867   7.111  19.110  0.00  0.00    +0.000 NA
ATOM      6  C   UNL     1       2.523   5.987  19.195  0.00  0.00    +0.000 A 
ATOM      7  N   UNL     1       3.620   6.042  18.384  0.00  0.00    +0.000 N 
ATOM      8  N   UNL     1       3.702   7.240  17.770  0.00  0.00    +0.000 NA
ATOM      9  C   UNL     1       4.699   5.066  18.490  0.00  0.00    +0.000 C 
ATOM     10  C   UNL     1       4.166   3.732  19.030  0.00  0.00    +0.000 C 
ATOM     11  C   UNL     1       3.112   3.878  20.111  0.00  0.00    +0.000 C 
ATOM     12  O   UNL     1       2.959   3.020  20.978  0.00  0.00    +0.000 OA
ATOM     13  N   UNL     1       2.268   4.946  20.027  0.00  0.00    +0.000 N 
ATOM     14  H   UNL     1       2.796   9.535  17.146  0.00  0.00    +0.000 HD
ATOM     15  H   UNL     1       1.490   5.022  20.670  0.00  0.00    +0.000 HD
ENDROOT
BRANCH   9  16
ATOM     16  C   UNL     1       5.432   4.864  17.175  0.00  0.00    +0.000 A 
ATOM     17  C   UNL     1       4.787   4.238  16.094  0.00  0.00    +0.000 A 
ATOM     18  C   UNL     1       5.453   4.056  14.880  0.00  0.00    +0.000 A 
ATOM     19  C   UNL     1       6.763   4.501  14.727  0.00  0.00    +0.000 A 
ATOM     20  C   UNL     1       7.411   5.134  15.784  0.00  0.00    +0.000 A 
ATOM     21  C   UNL     1       6.752   5.312  17.000  0.00  0.00    +0.000 A 
ENDBRANCH   9  16
BRANCH   2  22
ATOM     22  C   UNL     1       0.852   9.557  19.953  0.00  0.00    +0.000 C 
BRANCH  22  23
ATOM     23  O   UNL     1       1.055  10.517  20.980  0.00  0.00    +0.000 OA
BRANCH  23  24
ATOM     24  C   UNL     1      -0.083  11.133  21.445  0.00  0.00    +0.000 A 
ATOM     25  C   UNL     1      -0.751  12.151  20.749  0.00  0.00    +0.000 A 
ATOM     26  C   UNL     1      -1.906  12.736  21.273  0.00  0.00    +0.000 A 
ATOM     27  C   UNL     1      -2.417  12.294  22.491  0.00  0.00    +0.000 A 
ATOM     28 CL   UNL     1      -3.837  13.027  23.128  0.00  0.00    +0.000 Cl
ATOM     29  C   UNL     1      -1.783  11.271  23.189  0.00  0.00    +0.000 A 
ATOM     30  C   UNL     1      -0.624  10.689  22.664  0.00  0.00    +0.000 A 
ATOM     31 CL   UNL     1       0.129   9.431  23.580  0.00  0.00    +0.000 Cl
ENDBRANCH  23  24
ENDBRANCH  22  23
ENDBRANCH   2  22
TORSDOF 4
ENDMDL
MODEL 2
REMARK VINA RESULT:      -8.2      1.078      1.343
REMARK  Name = 
REMARK  4 active torsions:
REMARK  status: ('A' for Active; 'I' for Inactive)
REMARK    1  A    between atoms: C_2  and  C_3
REMARK    2  A    between atoms: C_3  and  O_4
REMARK    3  A    between atoms: O_4  and  C_5
REMARK    4  A    between atoms: C_19  and  C_20
REMARK                            x       y       z     vdW  Elec       q    Type
REMARK                         _______ _______ _______ _____ _____    ______ ____
ROOT
ATOM      1  O   UNL     1       1.037  10.758  18.214  0.00  0.00    +0.000 OA
ATOM      2  C   UNL     1       1.348   9.654  18.675  0.00  0.00    +0.000 C 
ATOM      3  N   UNL     1       2.234   8.887  17.984  0.00  0.00    +0.000 N 
ATOM      4  C   UNL     1       2.618   7.614  18.277  0.00  0.00    +0.000 A 
ATOM      5  N   UNL     1       1.927   6.825  19.148  0.00  0.00    +0.000 NA
ATOM      6  C   UNL     1       2.633   5.730  19.198  0.00  0.00    +0.000 A 
ATOM      7  N   UNL     1       3.701   5.841  18.355  0.00  0.00    +0.000 N 
ATOM      8  N   UNL     1       3.712   7.048  17.753  0.00  0.00    +0.000 NA
ATOM      9  C   UNL     1       4.823   4.911  18.416  0.00  0.00    +0.000 C 
ATOM     10  C   UNL     1       4.365   3.549  18.955  0.00  0.00    +0.000 C 
ATOM     11  C   UNL     1       3.339   3.638  20.070  0.00  0.00    +0.000 C 
ATOM     12  O   UNL     1       3.250   2.765  20.930  0.00  0.00    +0.000 OA
ATOM     13  N   UNL     1       2.448   4.669  20.025  0.00  0.00    +0.000 N 
ATOM     14  H   UNL     1       2.689   9.309  17.187  0.00  0.00    +0.000 HD
ATOM     15  H   UNL     1       1.688   4.705  20.692  0.00  0.00    +0.000 HD
ENDROOT
BRANCH   9  16
ATOM     16  C   UNL     1       5.523   4.755  17.077  0.00  0.00    +0.000 A 
ATOM     17  C   UNL     1       4.848   4.176  15.989  0.00  0.00    +0.000 A 
ATOM     18  C   UNL     1       5.483   4.038  14.753  0.00  0.00    +0.000 A 
ATOM     19  C   UNL     1       6.793   4.480  14.585  0.00  0.00    +0.000 A 
ATOM     20  C   UNL     1       7.470   5.066  15.650  0.00  0.00    +0.000 A 
ATOM     21  C   UNL     1       6.842   5.201  16.888  0.00  0.00    +0.000 A 
ENDBRANCH   9  16
BRANCH   2  22
ATOM     22  C   UNL     1       0.834   9.215  20.051  0.00  0.00    +0.000 C 
BRANCH  22  23
ATOM     23  O   UNL     1       1.305  10.006  21.133  0.00  0.00    +0.000 OA
BRANCH  23  24
ATOM     24  C   UNL     1       0.356  10.793  21.744  0.00  0.00    +0.000 A 
ATOM     25  C   UNL     1      -0.642  10.285  22.588  0.00  0.00    +0.000 A 
ATOM     26  C   UNL     1      -1.576  11.137  23.183  0.00  0.00    +0.000 A 
ATOM     27  C   UNL     1      -1.509  12.509  22.954  0.00  0.00    +0.000 A 
ATOM     28 CL   UNL     1      -2.669  13.546  23.688  0.00  0.00    +0.000 Cl
ATOM     29  C   UNL     1      -0.515  13.037  22.137  0.00  0.00    +0.000 A 
ATOM     30  C   UNL     1       0.418  12.183  21.540  0.00  0.00    +0.000 A 
ATOM     31 CL   UNL     1       1.623  12.892  20.524  0.00  0.00    +0.000 Cl
ENDBRANCH  23  24
ENDBRANCH  22  23
ENDBRANCH   2  22
TORSDOF 4
ENDMDL
MODEL 3
REMARK VINA RESULT:      -8.1      0.661      1.113
REMARK  Name = 
REMARK  4 active torsions:
REMARK  status: ('A' for Active; 'I' for Inactive)
REMARK    1  A    between atoms: C_2  and  C_3
REMARK    2  A    between atoms: C_3  and  O_4
REMARK    3  A    between atoms: O_4  and  C_5
REMARK    4  A    between atoms: C_19  and  C_20
REMARK                            x       y       z     vdW  Elec       q    Type
REMARK                         _______ _______ _______ _____ _____    ______ ____
ROOT
ATOM      1  O   UNL     1       1.317  11.067  18.185  0.00  0.00    +0.000 OA
ATOM      2  C   UNL     1       1.574   9.945  18.635  0.00  0.00    +0.000 C 
ATOM      3  N   UNL     1       2.408   9.136  17.928  0.00  0.00    +0.000 N 
ATOM      4  C   UNL     1       2.727   7.842  18.209  0.00  0.00    +0.000 A 
ATOM      5  N   UNL     1       2.005   7.086  19.084  0.00  0.00    +0.000 NA
ATOM      6  C   UNL     1       2.652   5.954  19.119  0.00  0.00    +0.000 A 
ATOM      7  N   UNL     1       3.713   6.013  18.263  0.00  0.00    +0.000 N 
ATOM      8  N   UNL     1       3.782   7.221  17.668  0.00  0.00    +0.000 NA
ATOM      9  C   UNL     1       4.785   5.024  18.304  0.00  0.00    +0.000 C 
ATOM     10  C   UNL     1       4.261   3.685  18.841  0.00  0.00    +0.000 C 
ATOM     11  C   UNL     1       3.256   3.821  19.969  0.00  0.00    +0.000 C 
ATOM     12  O   UNL     1       3.130   2.949  20.825  0.00  0.00    +0.000 OA
ATOM     13  N   UNL     1       2.421   4.899  19.941  0.00  0.00    +0.000 N 
ATOM     14  H   UNL     1       2.876   9.537  17.127  0.00  0.00    +0.000 HD
ATOM     15  H   UNL     1       1.672   4.971  20.619  0.00  0.00    +0.000 HD
ENDROOT
BRANCH   9  16
ATOM     16  C   UNL     1       5.458   4.839  16.954  0.00  0.00    +0.000 A 
ATOM     17  C   UNL     1       6.777   5.282  16.756  0.00  0.00    +0.000 A 
ATOM     18  C   UNL     1       7.405   5.107  15.521  0.00  0.00    +0.000 A 
ATOM     19  C   UNL     1       6.730   4.483  14.474  0.00  0.00    +0.000 A 
ATOM     20  C   UNL     1       5.428   4.028  14.660  0.00  0.00    +0.000 A 
ATOM     21  C   UNL     1       4.795   4.206  15.890  0.00  0.00    +0.000 A 
ENDBRANCH   9  16
BRANCH   2  22
ATOM     22  C   UNL     1       1.055   9.525  20.015  0.00  0.00    +0.000 C 
BRANCH  22  23
ATOM     23  O   UNL     1      -0.353   9.633  20.171  0.00  0.00    +0.000 OA
BRANCH  23  24
ATOM     24  C   UNL     1      -0.788  10.749  20.846  0.00  0.00    +0.000 A 
ATOM     25  C   UNL     1      -1.303  11.887  20.209  0.00  0.00    +0.000 A 
ATOM     26  C   UNL     1      -1.732  12.989  20.951  0.00  0.00    +0.000 A 
ATOM     27  C   UNL     1      -1.668  12.957  22.342  0.00  0.00    +0.000 A 
ATOM     28 CL   UNL     1      -2.195  14.323  23.244  0.00  0.00    +0.000 Cl
ATOM     29  C   UNL     1      -1.181  11.831  22.997  0.00  0.00    +0.000 A 
ATOM     30  C   UNL     1      -0.748  10.728  22.252  0.00  0.00    +0.000 A 
ATOM     31 CL   UNL     1      -0.140   9.362  23.117  0.00  0.00    +0.000 Cl
ENDBRANCH  23  24
ENDBRANCH  22  23
ENDBRANCH   2  22
TORSDOF 4
ENDMDL
MODEL 4
REMARK VINA RESULT:      -8.0      1.201      1.545
REMARK  Name = 
REMARK  4 active torsions:
REMARK  status: ('A' for Active; 'I' for Inactive)
REMARK    1  A    between atoms: C_2  and  C_3
REMARK    2  A    between atoms: C_3  and  O_4
REMARK    3  A    between atoms: O_4  and  C_5
REMARK    4  A    between atoms: C_19  and  C_20
REMARK                            x       y       z     vdW  Elec       q    Type
REMARK                         _______ _______ _______ _____ _____    ______ ____
ROOT
ATOM      1  O   UNL     1       1.377  11.105  18.107  0.00  0.00    +0.000 OA
ATOM      2  C   UNL     1       1.601   9.979  18.565  0.00  0.00    +0.000 C 
ATOM      3  N   UNL     1       2.452   9.160  17.890  0.00  0.00    +0.000 N 
ATOM      4  C   UNL     1       2.743   7.862  18.182  0.00  0.00    +0.000 A 
ATOM      5  N   UNL     1       1.977   7.114  19.026  0.00  0.00    +0.000 NA
ATOM      6  C   UNL     1       2.607   5.974  19.085  0.00  0.00    +0.000 A 
ATOM      7  N   UNL     1       3.703   6.020  18.272  0.00  0.00    +0.000 N 
ATOM      8  N   UNL     1       3.811   7.228  17.682  0.00  0.00    +0.000 NA
ATOM      9  C   UNL     1       4.759   5.017  18.354  0.00  0.00    +0.000 C 
ATOM     10  C   UNL     1       4.196   3.685  18.868  0.00  0.00    +0.000 C 
ATOM     11  C   UNL     1       3.149   3.833  19.956  0.00  0.00    +0.000 C 
ATOM     12  O   UNL     1       2.978   2.962  20.805  0.00  0.00    +0.000 OA
ATOM     13  N   UNL     1       2.330   4.922  19.896  0.00  0.00    +0.000 N 
ATOM     14  H   UNL     1       2.957   9.556  17.109  0.00  0.00    +0.000 HD
ATOM     15  H   UNL     1       1.556   5.003  20.543  0.00  0.00    +0.000 HD
ENDROOT
BRANCH   9  16
ATOM     16  C   UNL     1       5.483   4.825  17.032  0.00  0.00    +0.000 A 
ATOM     17  C   UNL     1       4.809   4.270  15.931  0.00  0.00    +0.000 A 
ATOM     18  C   UNL     1       5.467   4.098  14.711  0.00  0.00    +0.000 A 
ATOM     19  C   UNL     1       6.799   4.483  14.573  0.00  0.00    +0.000 A 
ATOM     20  C   UNL     1       7.475   5.046  15.652  0.00  0.00    +0.000 A 
ATOM     21  C   UNL     1       6.823   5.214  16.873  0.00  0.00    +0.000 A 
ENDBRANCH   9  16
BRANCH   2  22
ATOM     22  C   UNL     1       1.022   9.565  19.923  0.00  0.00    +0.000 C 
BRANCH  22  23
ATOM     23  O   UNL     1      -0.389   9.689  20.022  0.00  0.00    +0.000 OA
BRANCH  23  24
ATOM     24  C   UNL     1      -0.837  10.731  20.800  0.00  0.00    +0.000 A 
ATOM     25  C   UNL     1      -0.600  10.825  22.178  0.00  0.00    +0.000 A 
ATOM     26  C   UNL     1      -1.078  11.912  22.913  0.00  0.00    +0.000 A 
ATOM     27  C   UNL     1      -1.784  12.927  22.272  0.00  0.00    +0.000 A 
ATOM     28 CL   UNL     1      -2.373  14.257  23.190  0.00  0.00    +0.000 Cl
ATOM     29  C   UNL     1      -2.013  12.866  20.901  0.00  0.00    +0.000 A 
ATOM     30  C   UNL     1      -1.536  11.775  20.167  0.00  0.00    +0.000 A 
ATOM     31 CL   UNL     1      -1.861  11.744  18.470  0.00  0.00    +0.000 Cl
ENDBRANCH  23  24
ENDBRANCH  22  23
ENDBRANCH   2  22
TORSDOF 4
ENDMDL
MODEL 5
REMARK VINA RESULT:      -7.7      3.574      9.619
REMARK  Name = 
REMARK  4 active torsions:
REMARK  status: ('A' for Active; 'I' for Inactive)
REMARK    1  A    between atoms: C_2  and  C_3
REMARK    2  A    between atoms: C_3  and  O_4
REMARK    3  A    between atoms: O_4  and  C_5
REMARK    4  A    between atoms: C_19  and  C_20
REMARK                            x       y       z     vdW  Elec       q    Type
REMARK                         _______ _______ _______ _____ _____    ______ ____
ROOT
ATOM      1  O   UNL     1       1.791   5.235  20.808  0.00  0.00    +0.000 OA
ATOM      2  C   UNL     1       1.895   6.392  20.388  0.00  0.00    +0.000 C 
ATOM      3  N   UNL     1       1.008   7.326  20.829  0.00  0.00    +0.000 N 
ATOM      4  C   UNL     1       0.901   8.616  20.408  0.00  0.00    +0.000 A 
ATOM      5  N   UNL     1       1.485   9.061  19.259  0.00  0.00    +0.000 NA
ATOM      6  C   UNL     1       1.203  10.334  19.243  0.00  0.00    +0.000 A 
ATOM      7  N   UNL     1       0.442  10.643  20.333  0.00  0.00    +0.000 N 
ATOM      8  N   UNL     1       0.238   9.551  21.099  0.00  0.00    +0.000 NA
ATOM      9  C   UNL     1       0.223  12.024  20.747  0.00  0.00    +0.000 C 
ATOM     10  C   UNL     1       0.318  12.968  19.540  0.00  0.00    +0.000 C 
ATOM     11  C   UNL     1       1.400  12.594  18.544  0.00  0.00    +0.000 C 
ATOM     12  O   UNL     1       1.951  13.442  17.847  0.00  0.00    +0.000 OA
ATOM     13  N   UNL     1       1.665  11.268  18.373  0.00  0.00    +0.000 N 
ATOM     14  H   UNL     1       0.381   7.055  21.573  0.00  0.00    +0.000 HD
ATOM     15  H   UNL     1       2.306  10.974  17.646  0.00  0.00    +0.000 HD
ENDROOT
BRANCH   9  16
ATOM     16  C   UNL     1      -1.095  12.212  21.478  0.00  0.00    +0.000 A 
ATOM     17  C   UNL     1      -2.214  12.722  20.799  0.00  0.00    +0.000 A 
ATOM     18  C   UNL     1      -3.431  12.888  21.464  0.00  0.00    +0.000 A 
ATOM     19  C   UNL     1      -3.547  12.543  22.808  0.00  0.00    +0.000 A 
ATOM     20  C   UNL     1      -2.451  12.025  23.491  0.00  0.00    +0.000 A 
ATOM     21  C   UNL     1      -1.232  11.862  22.832  0.00  0.00    +0.000 A 
ENDBRANCH   9  16
BRANCH   2  22
ATOM     22  C   UNL     1       3.068   6.788  19.484  0.00  0.00    +0.000 C 
BRANCH  22  23
ATOM     23  O   UNL     1       4.115   5.829  19.427  0.00  0.00    +0.000 OA
BRANCH  23  24
ATOM     24  C   UNL     1       4.541   5.495  18.163  0.00  0.00    +0.000 A 
ATOM     25  C   UNL     1       4.922   6.441  17.200  0.00  0.00    +0.000 A 
ATOM     26  C   UNL     1       5.350   6.038  15.933  0.00  0.00    +0.000 A 
ATOM     27  C   UNL     1       5.418   4.682  15.622  0.00  0.00    +0.000 A 
ATOM     28 CL   UNL     1       5.941   4.200  14.056  0.00  0.00    +0.000 Cl
ATOM     29  C   UNL     1       5.065   3.725  16.568  0.00  0.00    +0.000 A 
ATOM     30  C   UNL     1       4.634   4.131  17.836  0.00  0.00    +0.000 A 
ATOM     31 CL   UNL     1       4.195   2.900  18.968  0.00  0.00    +0.000 Cl
ENDBRANCH  23  24
ENDBRANCH  22  23
ENDBRANCH   2  22
TORSDOF 4
ENDMDL
MODEL 6
REMARK VINA RESULT:      -7.7      3.507      9.581
REMARK  Name = 
REMARK  4 active torsions:
REMARK  status: ('A' for Active; 'I' for Inactive)
REMARK    1  A    between atoms: C_2  and  C_3
REMARK    2  A    between atoms: C_3  and  O_4
REMARK    3  A    between atoms: O_4  and  C_5
REMARK    4  A    between atoms: C_19  and  C_20
REMARK                            x       y       z     vdW  Elec       q    Type
REMARK                         _______ _______ _______ _____ _____    ______ ____
ROOT
ATOM      1  O   UNL     1       1.828   4.914  20.907  0.00  0.00    +0.000 OA
ATOM      2  C   UNL     1       1.968   6.056  20.456  0.00  0.00    +0.000 C 
ATOM      3  N   UNL     1       1.111   7.028  20.870  0.00  0.00    +0.000 N 
ATOM      4  C   UNL     1       1.045   8.310  20.415  0.00  0.00    +0.000 A 
ATOM      5  N   UNL     1       1.643   8.705  19.255  0.00  0.00    +0.000 NA
ATOM      6  C   UNL     1       1.401   9.985  19.205  0.00  0.00    +0.000 A 
ATOM      7  N   UNL     1       0.649  10.347  20.285  0.00  0.00    +0.000 N 
ATOM      8  N   UNL     1       0.410   9.283  21.080  0.00  0.00    +0.000 NA
ATOM      9  C   UNL     1       0.474  11.745  20.662  0.00  0.00    +0.000 C 
ATOM     10  C   UNL     1       0.598  12.653  19.431  0.00  0.00    +0.000 C 
ATOM     11  C   UNL     1       1.668  12.219  18.447  0.00  0.00    +0.000 C 
ATOM     12  O   UNL     1       2.247  13.031  17.728  0.00  0.00    +0.000 OA
ATOM     13  N   UNL     1       1.892  10.881  18.311  0.00  0.00    +0.000 N 
ATOM     14  H   UNL     1       0.475   6.797  21.621  0.00  0.00    +0.000 HD
ATOM     15  H   UNL     1       2.524  10.548  17.593  0.00  0.00    +0.000 HD
ENDROOT
BRANCH   9  16
ATOM     16  C   UNL     1      -0.839  11.993  21.386  0.00  0.00    +0.000 A 
ATOM     17  C   UNL     1      -1.950  12.491  20.686  0.00  0.00    +0.000 A 
ATOM     18  C   UNL     1      -3.161  12.713  21.344  0.00  0.00    +0.000 A 
ATOM     19  C   UNL     1      -3.280  12.435  22.704  0.00  0.00    +0.000 A 
ATOM     20  C   UNL     1      -2.192  11.930  23.408  0.00  0.00    +0.000 A 
ATOM     21  C   UNL     1      -0.979  11.712  22.755  0.00  0.00    +0.000 A 
ENDBRANCH   9  16
BRANCH   2  22
ATOM     22  C   UNL     1       3.154   6.390  19.543  0.00  0.00    +0.000 C 
BRANCH  22  23
ATOM     23  O   UNL     1       4.213   5.446  19.587  0.00  0.00    +0.000 OA
BRANCH  23  24
ATOM     24  C   UNL     1       4.736   5.088  18.366  0.00  0.00    +0.000 A 
ATOM     25  C   UNL     1       3.950   4.690  17.275  0.00  0.00    +0.000 A 
ATOM     26  C   UNL     1       4.540   4.342  16.058  0.00  0.00    +0.000 A 
ATOM     27  C   UNL     1       5.924   4.406  15.914  0.00  0.00    +0.000 A 
ATOM     28 CL   UNL     1       6.638   3.968  14.412  0.00  0.00    +0.000 Cl
ATOM     29  C   UNL     1       6.723   4.818  16.976  0.00  0.00    +0.000 A 
ATOM     30  C   UNL     1       6.130   5.163  18.196  0.00  0.00    +0.000 A 
ATOM     31 CL   UNL     1       7.170   5.655  19.485  0.00  0.00    +0.000 Cl
ENDBRANCH  23  24
ENDBRANCH  22  23
ENDBRANCH   2  22
TORSDOF 4
ENDMDL
MODEL 7
REMARK VINA RESULT:      -7.7      2.006      2.373
REMARK  Name = 
REMARK  4 active torsions:
REMARK  status: ('A' for Active; 'I' for Inactive)
REMARK    1  A    between atoms: C_2  and  C_3
REMARK    2  A    between atoms: C_3  and  O_4
REMARK    3  A    between atoms: O_4  and  C_5
REMARK    4  A    between atoms: C_19  and  C_20
REMARK                            x       y       z     vdW  Elec       q    Type
REMARK                         _______ _______ _______ _____ _____    ______ ____
ROOT
ATOM      1  O   UNL     1       1.810  11.208  18.245  0.00  0.00    +0.000 OA
ATOM      2  C   UNL     1       1.833  10.002  18.515  0.00  0.00    +0.000 C 
ATOM      3  N   UNL     1       2.702   9.201  17.839  0.00  0.00    +0.000 N 
ATOM      4  C   UNL     1       2.802   7.846  17.925  0.00  0.00    +0.000 A 
ATOM      5  N   UNL     1       1.828   7.076  18.488  0.00  0.00    +0.000 NA
ATOM      6  C   UNL     1       2.318   5.869  18.430  0.00  0.00    +0.000 A 
ATOM      7  N   UNL     1       3.538   5.905  17.818  0.00  0.00    +0.000 N 
ATOM      8  N   UNL     1       3.870   7.169  17.488  0.00  0.00    +0.000 NA
ATOM      9  C   UNL     1       4.455   4.772  17.874  0.00  0.00    +0.000 C 
ATOM     10  C   UNL     1       3.678   3.458  18.039  0.00  0.00    +0.000 C 
ATOM     11  C   UNL     1       2.477   3.560  18.960  0.00  0.00    +0.000 C 
ATOM     12  O   UNL     1       2.071   2.590  19.595  0.00  0.00    +0.000 OA
ATOM     13  N   UNL     1       1.797   4.742  18.978  0.00  0.00    +0.000 N 
ATOM     14  H   UNL     1       3.373   9.652  17.233  0.00  0.00    +0.000 HD
ATOM     15  H   UNL     1       0.933   4.816  19.502  0.00  0.00    +0.000 HD
ENDROOT
BRANCH   9  16
ATOM     16  C   UNL     1       5.376   4.708  16.668  0.00  0.00    +0.000 A 
ATOM     17  C   UNL     1       4.868   4.348  15.408  0.00  0.00    +0.000 A 
ATOM     18  C   UNL     1       5.708   4.296  14.294  0.00  0.00    +0.000 A 
ATOM     19  C   UNL     1       7.060   4.608  14.421  0.00  0.00    +0.000 A 
ATOM     20  C   UNL     1       7.575   4.978  15.660  0.00  0.00    +0.000 A 
ATOM     21  C   UNL     1       6.740   5.026  16.776  0.00  0.00    +0.000 A 
ENDBRANCH   9  16
BRANCH   2  22
ATOM     22  C   UNL     1       0.986   9.447  19.666  0.00  0.00    +0.000 C 
BRANCH  22  23
ATOM     23  O   UNL     1       0.067  10.378  20.220  0.00  0.00    +0.000 OA
BRANCH  23  24
ATOM     24  C   UNL     1      -1.044  10.637  19.452  0.00  0.00    +0.000 A 
ATOM     25  C   UNL     1      -1.470   9.810  18.403  0.00  0.00    +0.000 A 
ATOM     26  C   UNL     1      -2.610  10.126  17.662  0.00  0.00    +0.000 A 
ATOM     27  C   UNL     1      -3.349  11.264  17.974  0.00  0.00    +0.000 A 
ATOM     28 CL   UNL     1      -4.748  11.644  17.050  0.00  0.00    +0.000 Cl
ATOM     29  C   UNL     1      -2.958  12.089  19.025  0.00  0.00    +0.000 A 
ATOM     30  C   UNL     1      -1.813  11.772  19.765  0.00  0.00    +0.000 A 
ATOM     31 CL   UNL     1      -1.367  12.839  21.050  0.00  0.00    +0.000 Cl
ENDBRANCH  23  24
ENDBRANCH  22  23
ENDBRANCH   2  22
TORSDOF 4
ENDMDL
MODEL 8
REMARK VINA RESULT:      -7.6      3.305      9.456
REMARK  Name = 
REMARK  4 active torsions:
REMARK  status: ('A' for Active; 'I' for Inactive)
REMARK    1  A    between atoms: C_2  and  C_3
REMARK    2  A    between atoms: C_3  and  O_4
REMARK    3  A    between atoms: O_4  and  C_5
REMARK    4  A    between atoms: C_19  and  C_20
REMARK                            x       y       z     vdW  Elec       q    Type
REMARK                         _______ _______ _______ _____ _____    ______ ____
ROOT
ATOM      1  O   UNL     1       2.110   4.359  21.133  0.00  0.00    +0.000 OA
ATOM      2  C   UNL     1       2.258   5.471  20.615  0.00  0.00    +0.000 C 
ATOM      3  N   UNL     1       1.444   6.486  21.012  0.00  0.00    +0.000 N 
ATOM      4  C   UNL     1       1.390   7.743  20.491  0.00  0.00    +0.000 A 
ATOM      5  N   UNL     1       1.945   8.059  19.287  0.00  0.00    +0.000 NA
ATOM      6  C   UNL     1       1.733   9.341  19.177  0.00  0.00    +0.000 A 
ATOM      7  N   UNL     1       1.038   9.780  20.267  0.00  0.00    +0.000 N 
ATOM      8  N   UNL     1       0.809   8.767  21.128  0.00  0.00    +0.000 NA
ATOM      9  C   UNL     1       0.914  11.200  20.574  0.00  0.00    +0.000 C 
ATOM     10  C   UNL     1       1.007  12.038  19.291  0.00  0.00    +0.000 C 
ATOM     11  C   UNL     1       2.021  11.523  18.287  0.00  0.00    +0.000 C 
ATOM     12  O   UNL     1       2.587  12.280  17.502  0.00  0.00    +0.000 OA
ATOM     13  N   UNL     1       2.206  10.174  18.215  0.00  0.00    +0.000 N 
ATOM     14  H   UNL     1       0.837   6.313  21.801  0.00  0.00    +0.000 HD
ATOM     15  H   UNL     1       2.798   9.787  17.491  0.00  0.00    +0.000 HD
ENDROOT
BRANCH   9  16
ATOM     16  C   UNL     1      -0.358  11.522  21.340  0.00  0.00    +0.000 A 
ATOM     17  C   UNL     1      -1.355  12.319  20.751  0.00  0.00    +0.000 A 
ATOM     18  C   UNL     1      -2.530  12.611  21.446  0.00  0.00    +0.000 A 
ATOM     19  C   UNL     1      -2.728  12.108  22.730  0.00  0.00    +0.000 A 
ATOM     20  C   UNL     1      -1.755  11.307  23.321  0.00  0.00    +0.000 A 
ATOM     21  C   UNL     1      -0.577  11.017  22.632  0.00  0.00    +0.000 A 
ENDBRANCH   9  16
BRANCH   2  22
ATOM     22  C   UNL     1       3.410   5.724  19.635  0.00  0.00    +0.000 C 
BRANCH  22  23
ATOM     23  O   UNL     1       4.246   4.598  19.408  0.00  0.00    +0.000 OA
BRANCH  23  24
ATOM     24  C   UNL     1       4.980   4.634  18.246  0.00  0.00    +0.000 A 
ATOM     25  C   UNL     1       6.307   5.082  18.183  0.00  0.00    +0.000 A 
ATOM     26  C   UNL     1       7.002   5.090  16.971  0.00  0.00    +0.000 A 
ATOM     27  C   UNL     1       6.381   4.633  15.811  0.00  0.00    +0.000 A 
ATOM     28 CL   UNL     1       7.246   4.655  14.325  0.00  0.00    +0.000 Cl
ATOM     29  C   UNL     1       5.072   4.164  15.853  0.00  0.00    +0.000 A 
ATOM     30  C   UNL     1       4.376   4.159  17.068  0.00  0.00    +0.000 A 
ATOM     31 CL   UNL     1       2.749   3.578  17.059  0.00  0.00    +0.000 Cl
ENDBRANCH  23  24
ENDBRANCH  22  23
ENDBRANCH   2  22
TORSDOF 4
ENDMDL
MODEL 9
REMARK VINA RESULT:      -7.6      3.386      9.462
REMARK  Name = 
REMARK  4 active torsions:
REMARK  status: ('A' for Active; 'I' for Inactive)
REMARK    1  A    between atoms: C_2  and  C_3
REMARK    2  A    between atoms: C_3  and  O_4
REMARK    3  A    between atoms: O_4  and  C_5
REMARK    4  A    between atoms: C_19  and  C_20
REMARK                            x       y       z     vdW  Elec       q    Type
REMARK                         _______ _______ _______ _____ _____    ______ ____
ROOT
ATOM      1  O   UNL     1       2.260   4.316  20.934  0.00  0.00    +0.000 OA
ATOM      2  C   UNL     1       2.385   5.442  20.441  0.00  0.00    +0.000 C 
ATOM      3  N   UNL     1       1.569   6.438  20.880  0.00  0.00    +0.000 N 
ATOM      4  C   UNL     1       1.489   7.706  20.392  0.00  0.00    +0.000 A 
ATOM      5  N   UNL     1       2.016   8.059  19.185  0.00  0.00    +0.000 NA
ATOM      6  C   UNL     1       1.788   9.341  19.111  0.00  0.00    +0.000 A 
ATOM      7  N   UNL     1       1.111   9.744  20.226  0.00  0.00    +0.000 N 
ATOM      8  N   UNL     1       0.911   8.708  21.066  0.00  0.00    +0.000 NA
ATOM      9  C   UNL     1       0.978  11.155  20.571  0.00  0.00    +0.000 C 
ATOM     10  C   UNL     1       1.035  12.025  19.308  0.00  0.00    +0.000 C 
ATOM     11  C   UNL     1       2.034  11.547  18.271  0.00  0.00    +0.000 C 
ATOM     12  O   UNL     1       2.575  12.329  17.493  0.00  0.00    +0.000 OA
ATOM     13  N   UNL     1       2.232  10.203  18.161  0.00  0.00    +0.000 N 
ATOM     14  H   UNL     1       0.980   6.238  21.676  0.00  0.00    +0.000 HD
ATOM     15  H   UNL     1       2.812   9.840  17.415  0.00  0.00    +0.000 HD
ENDROOT
BRANCH   9  16
ATOM     16  C   UNL     1      -0.281  11.443  21.370  0.00  0.00    +0.000 A 
ATOM     17  C   UNL     1      -0.510  10.786  22.591  0.00  0.00    +0.000 A 
ATOM     18  C   UNL     1      -1.662  11.053  23.334  0.00  0.00    +0.000 A 
ATOM     19  C   UNL     1      -2.593  11.981  22.874  0.00  0.00    +0.000 A 
ATOM     20  C   UNL     1      -2.374  12.648  21.673  0.00  0.00    +0.000 A 
ATOM     21  C   UNL     1      -1.228  12.381  20.925  0.00  0.00    +0.000 A 
ENDBRANCH   9  16
BRANCH   2  22
ATOM     22  C   UNL     1       3.514   5.732  19.444  0.00  0.00    +0.000 C 
BRANCH  22  23
ATOM     23  O   UNL     1       4.381   4.634  19.202  0.00  0.00    +0.000 OA
BRANCH  23  24
ATOM     24  C   UNL     1       5.025   4.647  17.987  0.00  0.00    +0.000 A 
ATOM     25  C   UNL     1       4.417   4.256  16.786  0.00  0.00    +0.000 A 
ATOM     26  C   UNL     1       5.124   4.295  15.582  0.00  0.00    +0.000 A 
ATOM     27  C   UNL     1       6.442   4.744  15.565  0.00  0.00    +0.000 A 
ATOM     28 CL   UNL     1       7.303   4.782  14.076  0.00  0.00    +0.000 Cl
ATOM     29  C   UNL     1       7.059   5.157  16.741  0.00  0.00    +0.000 A 
ATOM     30  C   UNL     1       6.350   5.115  17.947  0.00  0.00    +0.000 A 
ATOM     31 CL   UNL     1       7.170   5.627  19.380  0.00  0.00    +0.000 Cl
ENDBRANCH  23  24
ENDBRANCH  22  23
ENDBRANCH   2  22
TORSDOF 4
ENDMDL
