MODEL 1
REMARK VINA RESULT:      -8.0      0.000      0.000
REMARK  Name = 
REMARK  8 active torsions:
REMARK  status: ('A' for Active; 'I' for Inactive)
REMARK    1  A    between atoms: C_1  and  C_2
REMARK    2  A    between atoms: C_2  and  C_3
REMARK    3  A    between atoms: C_8  and  N_9
REMARK    4  A    between atoms: C_10  and  C_12
REMARK    5  A    between atoms: C_12  and  N_13
REMARK    6  A    between atoms: C_14  and  C_16
REMARK    7  A    between atoms: C_19  and  N_20
REMARK    8  A    between atoms: C_25  and  N_26
REMARK                            x       y       z     vdW  Elec       q    Type
REMARK                         _______ _______ _______ _____ _____    ______ ____
ROOT
ATOM      1  N   UNL     1       8.352   7.259  18.881  0.00  0.00    +0.000 N 
ATOM      2  C   UNL     1       8.095   8.204  17.922  0.00  0.00    +0.000 C 
ATOM      3  O   UNL     1       7.641   7.920  16.818  0.00  0.00    +0.000 OA
ATOM      4  H   UNL     1       8.606   7.523  19.825  0.00  0.00    +0.000 HD
ENDROOT
BRANCH   2   5
ATOM      5  C   UNL     1       8.412   9.617  18.250  0.00  0.00    +0.000 A 
ATOM      6  C   UNL     1       7.907  10.610  17.402  0.00  0.00    +0.000 A 
ATOM      7  C   UNL     1       8.252  11.955  17.588  0.00  0.00    +0.000 A 
ATOM      8  C   UNL     1       9.140  12.327  18.611  0.00  0.00    +0.000 A 
ATOM      9  C   UNL     1       9.646  11.321  19.451  0.00  0.00    +0.000 A 
ATOM     10  C   UNL     1       9.270   9.968  19.294  0.00  0.00    +0.000 A 
BRANCH   8  11
ATOM     11  N   UNL     1       9.525  13.685  18.712  0.00  0.00    +0.000 N 
ATOM     12  C   UNL     1       8.887  14.701  19.389  0.00  0.00    +0.000 A 
ATOM     13  N   UNL     1       9.484  15.849  19.169  0.00  0.00    +0.000 NA
ATOM     14  C   UNL     1      10.509  15.495  18.344  0.00  0.00    +0.000 A 
ATOM     15  N   UNL     1      10.575  14.197  18.039  0.00  0.00    +0.000 NA
ENDBRANCH   8  11
BRANCH   9  16
ATOM     16  N   UNL     1      10.495  11.627  20.593  0.00  0.00    +0.000 N 
ATOM     17  O   UNL     1      11.711  11.621  20.398  0.00  0.00    +0.000 OA
ATOM     18  O   UNL     1       9.917  11.997  21.631  0.00  0.00    +0.000 OA
ENDBRANCH   9  16
ENDBRANCH   2   5
BRANCH   1  19
ATOM     19  C   UNL     1       8.101   5.850  18.615  0.00  0.00    +0.000 C 
BRANCH  19  21
ATOM     20  N   UNL     1       5.848   5.273  17.766  0.00  0.00    +0.000 N 
ATOM     21  C   UNL     1       6.653   5.432  18.895  0.00  0.00    +0.000 C 
ATOM     22  O   UNL     1       6.283   5.331  20.065  0.00  0.00    +0.000 OA
ATOM     23  H   UNL     1       6.251   5.570  16.881  0.00  0.00    +0.000 HD
BRANCH  20  29
ATOM     24  C   UNL     1       3.410   5.737  17.771  0.00  0.00    +0.000 A 
ATOM     25  C   UNL     1       2.086   5.231  17.749  0.00  0.00    +0.000 A 
ATOM     26  C   UNL     1       1.830   3.864  17.741  0.00  0.00    +0.000 A 
ATOM     27  C   UNL     1       2.889   2.973  17.738  0.00  0.00    +0.000 A 
ATOM     28  C   UNL     1       4.199   3.453  17.741  0.00  0.00    +0.000 A 
ATOM     29  C   UNL     1       4.497   4.825  17.767  0.00  0.00    +0.000 A 
BRANCH  24  31
ATOM     30  C   UNL     1       2.400   7.900  18.573  0.00  0.00    +0.000 C 
ATOM     31  C   UNL     1       3.549   7.238  17.827  0.00  0.00    +0.000 C 
ENDBRANCH  24  31
ENDBRANCH  20  29
ENDBRANCH  19  21
ENDBRANCH   1  19
TORSDOF 7
ENDMDL
MODEL 2
REMARK VINA RESULT:      -7.6      1.539      2.395
REMARK  Name = 
REMARK  8 active torsions:
REMARK  status: ('A' for Active; 'I' for Inactive)
REMARK    1  A    between atoms: C_1  and  C_2
REMARK    2  A    between atoms: C_2  and  C_3
REMARK    3  A    between atoms: C_8  and  N_9
REMARK    4  A    between atoms: C_10  and  C_12
REMARK    5  A    between atoms: C_12  and  N_13
REMARK    6  A    between atoms: C_14  and  C_16
REMARK    7  A    between atoms: C_19  and  N_20
REMARK    8  A    between atoms: C_25  and  N_26
REMARK                            x       y       z     vdW  Elec       q    Type
REMARK                         _______ _______ _______ _____ _____    ______ ____
ROOT
ATOM      1  N   UNL     1       7.287   7.855  17.196  0.00  0.00    +0.000 N 
ATOM      2  C   UNL     1       8.150   8.181  18.209  0.00  0.00    +0.000 C 
ATOM      3  O   UNL     1       8.612   7.345  18.980  0.00  0.00    +0.000 OA
ATOM      4  H   UNL     1       7.016   8.535  16.497  0.00  0.00    +0.000 HD
ENDROOT
BRANCH   2   5
ATOM      5  C   UNL     1       8.503   9.613  18.376  0.00  0.00    +0.000 A 
ATOM      6  C   UNL     1       7.969  10.526  17.459  0.00  0.00    +0.000 A 
ATOM      7  C   UNL     1       8.342  11.876  17.489  0.00  0.00    +0.000 A 
ATOM      8  C   UNL     1       9.286  12.331  18.424  0.00  0.00    +0.000 A 
ATOM      9  C   UNL     1       9.821  11.406  19.335  0.00  0.00    +0.000 A 
ATOM     10  C   UNL     1       9.419  10.051  19.335  0.00  0.00    +0.000 A 
BRANCH   8  11
ATOM     11  N   UNL     1       9.695  13.685  18.367  0.00  0.00    +0.000 N 
ATOM     12  C   UNL     1       8.987  14.803  18.751  0.00  0.00    +0.000 A 
ATOM     13  N   UNL     1       9.652  15.896  18.453  0.00  0.00    +0.000 NA
ATOM     14  C   UNL     1      10.787  15.404  17.885  0.00  0.00    +0.000 A 
ATOM     15  N   UNL     1      10.860  14.073  17.811  0.00  0.00    +0.000 NA
ENDBRANCH   8  11
BRANCH   9  16
ATOM     16  N   UNL     1      10.732  11.808  20.397  0.00  0.00    +0.000 N 
ATOM     17  O   UNL     1      10.221  12.215  21.442  0.00  0.00    +0.000 OA
ATOM     18  O   UNL     1      11.941  11.583  20.206  0.00  0.00    +0.000 OA
ENDBRANCH   9  16
ENDBRANCH   2   5
BRANCH   1  19
ATOM     19  C   UNL     1       6.868   6.475  16.999  0.00  0.00    +0.000 C 
BRANCH  19  21
ATOM     20  N   UNL     1       5.235   5.587  18.634  0.00  0.00    +0.000 N 
ATOM     21  C   UNL     1       5.411   6.223  17.404  0.00  0.00    +0.000 C 
ATOM     22  O   UNL     1       4.517   6.526  16.614  0.00  0.00    +0.000 OA
ATOM     23  H   UNL     1       6.077   5.237  19.084  0.00  0.00    +0.000 HD
BRANCH  20  29
ATOM     24  C   UNL     1       3.569   3.983  19.536  0.00  0.00    +0.000 A 
ATOM     25  C   UNL     1       2.322   3.772  20.174  0.00  0.00    +0.000 A 
ATOM     26  C   UNL     1       1.489   4.834  20.513  0.00  0.00    +0.000 A 
ATOM     27  C   UNL     1       1.891   6.129  20.237  0.00  0.00    +0.000 A 
ATOM     28  C   UNL     1       3.124   6.357  19.626  0.00  0.00    +0.000 A 
ATOM     29  C   UNL     1       3.984   5.311  19.253  0.00  0.00    +0.000 A 
BRANCH  24  31
ATOM     30  C   UNL     1       3.550   1.777  18.322  0.00  0.00    +0.000 C 
ATOM     31  C   UNL     1       4.353   2.746  19.178  0.00  0.00    +0.000 C 
ENDBRANCH  24  31
ENDBRANCH  20  29
ENDBRANCH  19  21
ENDBRANCH   1  19
TORSDOF 7
ENDMDL
MODEL 3
REMARK VINA RESULT:      -7.6      1.124      1.290
REMARK  Name = 
REMARK  8 active torsions:
REMARK  status: ('A' for Active; 'I' for Inactive)
REMARK    1  A    between atoms: C_1  and  C_2
REMARK    2  A    between atoms: C_2  and  C_3
REMARK    3  A    between atoms: C_8  and  N_9
REMARK    4  A    between atoms: C_10  and  C_12
REMARK    5  A    between atoms: C_12  and  N_13
REMARK    6  A    between atoms: C_14  and  C_16
REMARK    7  A    between atoms: C_19  and  N_20
REMARK    8  A    between atoms: C_25  and  N_26
REMARK                            x       y       z     vdW  Elec       q    Type
REMARK                         _______ _______ _______ _____ _____    ______ ____
ROOT
ATOM      1  N   UNL     1       7.710   7.819  16.976  0.00  0.00    +0.000 N 
ATOM      2  C   UNL     1       8.294   8.187  18.160  0.00  0.00    +0.000 C 
ATOM      3  O   UNL     1       8.601   7.376  19.027  0.00  0.00    +0.000 OA
ATOM      4  H   UNL     1       7.579   8.485  16.224  0.00  0.00    +0.000 HD
ENDROOT
BRANCH   2   5
ATOM      5  C   UNL     1       8.528   9.636  18.387  0.00  0.00    +0.000 A 
ATOM      6  C   UNL     1       7.951  10.538  17.486  0.00  0.00    +0.000 A 
ATOM      7  C   UNL     1       8.216  11.910  17.576  0.00  0.00    +0.000 A 
ATOM      8  C   UNL     1       9.094  12.402  18.556  0.00  0.00    +0.000 A 
ATOM      9  C   UNL     1       9.673  11.487  19.450  0.00  0.00    +0.000 A 
ATOM     10  C   UNL     1       9.379  10.106  19.390  0.00  0.00    +0.000 A 
BRANCH   8  11
ATOM     11  N   UNL     1       9.397  13.785  18.560  0.00  0.00    +0.000 N 
ATOM     12  C   UNL     1       8.659  14.815  19.102  0.00  0.00    +0.000 A 
ATOM     13  N   UNL     1       9.207  15.974  18.819  0.00  0.00    +0.000 NA
ATOM     14  C   UNL     1      10.303  15.613  18.096  0.00  0.00    +0.000 A 
ATOM     15  N   UNL     1      10.461  14.300  17.912  0.00  0.00    +0.000 NA
ENDBRANCH   8  11
BRANCH   9  16
ATOM     16  N   UNL     1      10.518  11.919  20.554  0.00  0.00    +0.000 N 
ATOM     17  O   UNL     1      11.730  11.977  20.336  0.00  0.00    +0.000 OA
ATOM     18  O   UNL     1       9.934  12.319  21.577  0.00  0.00    +0.000 OA
ENDBRANCH   9  16
ENDBRANCH   2   5
BRANCH   1  19
ATOM     19  C   UNL     1       7.416   6.420  16.702  0.00  0.00    +0.000 C 
BRANCH  19  21
ATOM     20  N   UNL     1       5.407   5.197  17.475  0.00  0.00    +0.000 N 
ATOM     21  C   UNL     1       5.916   6.133  16.573  0.00  0.00    +0.000 C 
ATOM     22  O   UNL     1       5.286   6.677  15.665  0.00  0.00    +0.000 OA
ATOM     23  H   UNL     1       6.091   4.701  18.043  0.00  0.00    +0.000 HD
BRANCH  20  29
ATOM     24  C   UNL     1       3.054   5.730  18.056  0.00  0.00    +0.000 A 
ATOM     25  C   UNL     1       1.705   5.303  18.133  0.00  0.00    +0.000 A 
ATOM     26  C   UNL     1       1.330   4.010  17.784  0.00  0.00    +0.000 A 
ATOM     27  C   UNL     1       2.290   3.121  17.334  0.00  0.00    +0.000 A 
ATOM     28  C   UNL     1       3.621   3.529  17.235  0.00  0.00    +0.000 A 
ATOM     29  C   UNL     1       4.040   4.820  17.595  0.00  0.00    +0.000 A 
BRANCH  24  31
ATOM     30  C   UNL     1       2.443   8.161  17.818  0.00  0.00    +0.000 C 
ATOM     31  C   UNL     1       3.334   7.140  18.511  0.00  0.00    +0.000 C 
ENDBRANCH  24  31
ENDBRANCH  20  29
ENDBRANCH  19  21
ENDBRANCH   1  19
TORSDOF 7
ENDMDL
MODEL 4
REMARK VINA RESULT:      -7.5      6.607     10.259
REMARK  Name = 
REMARK  8 active torsions:
REMARK  status: ('A' for Active; 'I' for Inactive)
REMARK    1  A    between atoms: C_1  and  C_2
REMARK    2  A    between atoms: C_2  and  C_3
REMARK    3  A    between atoms: C_8  and  N_9
REMARK    4  A    between atoms: C_10  and  C_12
REMARK    5  A    between atoms: C_12  and  N_13
REMARK    6  A    between atoms: C_14  and  C_16
REMARK    7  A    between atoms: C_19  and  N_20
REMARK    8  A    between atoms: C_25  and  N_26
REMARK                            x       y       z     vdW  Elec       q    Type
REMARK                         _______ _______ _______ _____ _____    ______ ____
ROOT
ATOM      1  N   UNL     1       1.163  10.455  19.445  0.00  0.00    +0.000 N 
ATOM      2  C   UNL     1       1.741   9.571  18.573  0.00  0.00    +0.000 C 
ATOM      3  O   UNL     1       2.173   9.909  17.476  0.00  0.00    +0.000 OA
ATOM      4  H   UNL     1       0.928  10.183  20.392  0.00  0.00    +0.000 HD
ENDROOT
BRANCH   2   5
ATOM      5  C   UNL     1       1.812   8.146  18.986  0.00  0.00    +0.000 A 
ATOM      6  C   UNL     1       1.647   7.854  20.345  0.00  0.00    +0.000 A 
ATOM      7  C   UNL     1       1.805   6.547  20.823  0.00  0.00    +0.000 A 
ATOM      8  C   UNL     1       2.165   5.509  19.947  0.00  0.00    +0.000 A 
ATOM      9  C   UNL     1       2.335   5.815  18.586  0.00  0.00    +0.000 A 
ATOM     10  C   UNL     1       2.137   7.124  18.093  0.00  0.00    +0.000 A 
BRANCH   8  11
ATOM     11  N   UNL     1       2.395   4.220  20.484  0.00  0.00    +0.000 N 
ATOM     12  C   UNL     1       1.619   3.526  21.388  0.00  0.00    +0.000 A 
ATOM     13  N   UNL     1       2.205   2.403  21.732  0.00  0.00    +0.000 NA
ATOM     14  C   UNL     1       3.354   2.434  21.002  0.00  0.00    +0.000 A 
ATOM     15  N   UNL     1       3.514   3.513  20.232  0.00  0.00    +0.000 NA
ENDBRANCH   8  11
BRANCH   9  16
ATOM     16  N   UNL     1       2.614   4.786  17.595  0.00  0.00    +0.000 N 
ATOM     17  O   UNL     1       3.779   4.689  17.209  0.00  0.00    +0.000 OA
ATOM     18  O   UNL     1       1.680   4.009  17.323  0.00  0.00    +0.000 OA
ENDBRANCH   9  16
ENDBRANCH   2   5
BRANCH   1  19
ATOM     19  C   UNL     1       1.027  11.860  19.089  0.00  0.00    +0.000 C 
BRANCH  19  21
ATOM     20  N   UNL     1      -1.373  11.295  18.870  0.00  0.00    +0.000 N 
ATOM     21  C   UNL     1      -0.370  12.218  18.569  0.00  0.00    +0.000 C 
ATOM     22  O   UNL     1      -0.503  13.231  17.882  0.00  0.00    +0.000 OA
ATOM     23  H   UNL     1      -1.068  10.420  19.288  0.00  0.00    +0.000 HD
BRANCH  20  29
ATOM     24  C   UNL     1      -3.320  10.856  17.395  0.00  0.00    +0.000 A 
ATOM     25  C   UNL     1      -4.706  11.017  17.148  0.00  0.00    +0.000 A 
ATOM     26  C   UNL     1      -5.519  11.748  18.009  0.00  0.00    +0.000 A 
ATOM     27  C   UNL     1      -4.968  12.319  19.143  0.00  0.00    +0.000 A 
ATOM     28  C   UNL     1      -3.609  12.156  19.412  0.00  0.00    +0.000 A 
ATOM     29  C   UNL     1      -2.754  11.441  18.557  0.00  0.00    +0.000 A 
BRANCH  24  31
ATOM     30  C   UNL     1      -3.000  10.393  14.940  0.00  0.00    +0.000 C 
ATOM     31  C   UNL     1      -2.544  10.083  16.359  0.00  0.00    +0.000 C 
ENDBRANCH  24  31
ENDBRANCH  20  29
ENDBRANCH  19  21
ENDBRANCH   1  19
TORSDOF 7
ENDMDL
MODEL 5
REMARK VINA RESULT:      -7.5      8.532     10.739
REMARK  Name = 
REMARK  8 active torsions:
REMARK  status: ('A' for Active; 'I' for Inactive)
REMARK    1  A    between atoms: C_1  and  C_2
REMARK    2  A    between atoms: C_2  and  C_3
REMARK    3  A    between atoms: C_8  and  N_9
REMARK    4  A    between atoms: C_10  and  C_12
REMARK    5  A    between atoms: C_12  and  N_13
REMARK    6  A    between atoms: C_14  and  C_16
REMARK    7  A    between atoms: C_19  and  N_20
REMARK    8  A    between atoms: C_25  and  N_26
REMARK                            x       y       z     vdW  Elec       q    Type
REMARK                         _______ _______ _______ _____ _____    ______ ____
ROOT
ATOM      1  N   UNL     1       0.092   9.563  21.782  0.00  0.00    +0.000 N 
ATOM      2  C   UNL     1       0.029  10.930  21.726  0.00  0.00    +0.000 C 
ATOM      3  O   UNL     1       1.030  11.636  21.651  0.00  0.00    +0.000 OA
ATOM      4  H   UNL     1      -0.744   8.995  21.717  0.00  0.00    +0.000 HD
ENDROOT
BRANCH   2   5
ATOM      5  C   UNL     1      -1.314  11.558  21.787  0.00  0.00    +0.000 A 
ATOM      6  C   UNL     1      -1.880  12.002  20.586  0.00  0.00    +0.000 A 
ATOM      7  C   UNL     1      -3.096  12.698  20.579  0.00  0.00    +0.000 A 
ATOM      8  C   UNL     1      -3.754  12.991  21.786  0.00  0.00    +0.000 A 
ATOM      9  C   UNL     1      -3.174  12.547  22.985  0.00  0.00    +0.000 A 
ATOM     10  C   UNL     1      -1.968  11.810  22.995  0.00  0.00    +0.000 A 
BRANCH   8  11
ATOM     11  N   UNL     1      -4.937  13.767  21.740  0.00  0.00    +0.000 N 
ATOM     12  C   UNL     1      -5.062  15.134  21.862  0.00  0.00    +0.000 A 
ATOM     13  N   UNL     1      -6.328  15.482  21.871  0.00  0.00    +0.000 NA
ATOM     14  C   UNL     1      -6.964  14.285  21.743  0.00  0.00    +0.000 A 
ATOM     15  N   UNL     1      -6.165  13.219  21.659  0.00  0.00    +0.000 NA
ENDBRANCH   8  11
BRANCH   9  16
ATOM     16  N   UNL     1      -3.833  12.723  24.271  0.00  0.00    +0.000 N 
ATOM     17  O   UNL     1      -3.589  13.765  24.882  0.00  0.00    +0.000 OA
ATOM     18  O   UNL     1      -4.686  11.871  24.579  0.00  0.00    +0.000 OA
ENDBRANCH   9  16
ENDBRANCH   2   5
BRANCH   1  19
ATOM     19  C   UNL     1       1.379   8.882  21.765  0.00  0.00    +0.000 C 
BRANCH  19  21
ATOM     20  N   UNL     1       2.277   6.892  20.598  0.00  0.00    +0.000 N 
ATOM     21  C   UNL     1       1.646   8.129  20.457  0.00  0.00    +0.000 C 
ATOM     22  O   UNL     1       1.358   8.675  19.392  0.00  0.00    +0.000 OA
ATOM     23  H   UNL     1       2.615   6.663  21.530  0.00  0.00    +0.000 HD
BRANCH  20  29
ATOM     24  C   UNL     1       1.918   4.724  19.445  0.00  0.00    +0.000 A 
ATOM     25  C   UNL     1       2.230   3.871  18.357  0.00  0.00    +0.000 A 
ATOM     26  C   UNL     1       3.167   4.232  17.394  0.00  0.00    +0.000 A 
ATOM     27  C   UNL     1       3.798   5.460  17.487  0.00  0.00    +0.000 A 
ATOM     28  C   UNL     1       3.491   6.321  18.541  0.00  0.00    +0.000 A 
ATOM     29  C   UNL     1       2.565   5.983  19.542  0.00  0.00    +0.000 A 
BRANCH  24  31
ATOM     30  C   UNL     1       1.315   2.825  20.984  0.00  0.00    +0.000 C 
ATOM     31  C   UNL     1       0.922   4.192  20.445  0.00  0.00    +0.000 C 
ENDBRANCH  24  31
ENDBRANCH  20  29
ENDBRANCH  19  21
ENDBRANCH   1  19
TORSDOF 7
ENDMDL
MODEL 6
REMARK VINA RESULT:      -7.4      6.090      9.189
REMARK  Name = 
REMARK  8 active torsions:
REMARK  status: ('A' for Active; 'I' for Inactive)
REMARK    1  A    between atoms: C_1  and  C_2
REMARK    2  A    between atoms: C_2  and  C_3
REMARK    3  A    between atoms: C_8  and  N_9
REMARK    4  A    between atoms: C_10  and  C_12
REMARK    5  A    between atoms: C_12  and  N_13
REMARK    6  A    between atoms: C_14  and  C_16
REMARK    7  A    between atoms: C_19  and  N_20
REMARK    8  A    between atoms: C_25  and  N_26
REMARK                            x       y       z     vdW  Elec       q    Type
REMARK                         _______ _______ _______ _____ _____    ______ ____
ROOT
ATOM      1  N   UNL     1       1.480   7.401  20.873  0.00  0.00    +0.000 N 
ATOM      2  C   UNL     1       1.785   7.880  19.626  0.00  0.00    +0.000 C 
ATOM      3  O   UNL     1       1.191   8.823  19.116  0.00  0.00    +0.000 OA
ATOM      4  H   UNL     1       2.061   6.706  21.327  0.00  0.00    +0.000 HD
ENDROOT
BRANCH   2   5
ATOM      5  C   UNL     1       2.866   7.194  18.874  0.00  0.00    +0.000 A 
ATOM      6  C   UNL     1       3.312   7.789  17.688  0.00  0.00    +0.000 A 
ATOM      7  C   UNL     1       4.252   7.146  16.873  0.00  0.00    +0.000 A 
ATOM      8  C   UNL     1       4.741   5.874  17.216  0.00  0.00    +0.000 A 
ATOM      9  C   UNL     1       4.281   5.284  18.405  0.00  0.00    +0.000 A 
ATOM     10  C   UNL     1       3.363   5.945  19.252  0.00  0.00    +0.000 A 
BRANCH   8  11
ATOM     11  N   UNL     1       5.627   5.226  16.323  0.00  0.00    +0.000 N 
ATOM     12  C   UNL     1       6.982   5.430  16.174  0.00  0.00    +0.000 A 
ATOM     13  N   UNL     1       7.448   4.719  15.173  0.00  0.00    +0.000 NA
ATOM     14  C   UNL     1       6.335   4.072  14.728  0.00  0.00    +0.000 A 
ATOM     15  N   UNL     1       5.210   4.346  15.392  0.00  0.00    +0.000 NA
ENDBRANCH   8  11
BRANCH   9  16
ATOM     16  N   UNL     1       4.804   4.013  18.886  0.00  0.00    +0.000 N 
ATOM     17  O   UNL     1       4.176   3.000  18.574  0.00  0.00    +0.000 OA
ATOM     18  O   UNL     1       5.909   4.048  19.456  0.00  0.00    +0.000 OA
ENDBRANCH   9  16
ENDBRANCH   2   5
BRANCH   1  19
ATOM     19  C   UNL     1       0.406   8.001  21.652  0.00  0.00    +0.000 C 
BRANCH  19  21
ATOM     20  N   UNL     1      -0.078  10.416  21.398  0.00  0.00    +0.000 N 
ATOM     21  C   UNL     1       0.691   9.453  22.054  0.00  0.00    +0.000 C 
ATOM     22  O   UNL     1       1.599   9.677  22.855  0.00  0.00    +0.000 OA
ATOM     23  H   UNL     1      -0.657  10.082  20.631  0.00  0.00    +0.000 HD
BRANCH  20  29
ATOM     24  C   UNL     1      -0.972  12.437  22.526  0.00  0.00    +0.000 A 
ATOM     25  C   UNL     1      -0.875  13.832  22.755  0.00  0.00    +0.000 A 
ATOM     26  C   UNL     1       0.097  14.606  22.130  0.00  0.00    +0.000 A 
ATOM     27  C   UNL     1       1.003  14.002  21.276  0.00  0.00    +0.000 A 
ATOM     28  C   UNL     1       0.933  12.626  21.051  0.00  0.00    +0.000 A 
ATOM     29  C   UNL     1      -0.044  11.815  21.650  0.00  0.00    +0.000 A 
BRANCH  24  31
ATOM     30  C   UNL     1      -3.237  12.662  23.604  0.00  0.00    +0.000 C 
ATOM     31  C   UNL     1      -2.100  11.723  23.227  0.00  0.00    +0.000 C 
ENDBRANCH  24  31
ENDBRANCH  20  29
ENDBRANCH  19  21
ENDBRANCH   1  19
TORSDOF 7
ENDMDL
MODEL 7
REMARK VINA RESULT:      -7.4      1.632      2.159
REMARK  Name = 
REMARK  8 active torsions:
REMARK  status: ('A' for Active; 'I' for Inactive)
REMARK    1  A    between atoms: C_1  and  C_2
REMARK    2  A    between atoms: C_2  and  C_3
REMARK    3  A    between atoms: C_8  and  N_9
REMARK    4  A    between atoms: C_10  and  C_12
REMARK    5  A    between atoms: C_12  and  N_13
REMARK    6  A    between atoms: C_14  and  C_16
REMARK    7  A    between atoms: C_19  and  N_20
REMARK    8  A    between atoms: C_25  and  N_26
REMARK                            x       y       z     vdW  Elec       q    Type
REMARK                         _______ _______ _______ _____ _____    ______ ____
ROOT
ATOM      1  N   UNL     1       8.286   7.127  18.775  0.00  0.00    +0.000 N 
ATOM      2  C   UNL     1       8.157   8.225  17.966  0.00  0.00    +0.000 C 
ATOM      3  O   UNL     1       7.703   8.159  16.828  0.00  0.00    +0.000 OA
ATOM      4  H   UNL     1       8.544   7.219  19.750  0.00  0.00    +0.000 HD
ENDROOT
BRANCH   2   5
ATOM      5  C   UNL     1       8.618   9.530  18.503  0.00  0.00    +0.000 A 
ATOM      6  C   UNL     1       9.052   9.570  19.833  0.00  0.00    +0.000 A 
ATOM      7  C   UNL     1       9.400  10.785  20.438  0.00  0.00    +0.000 A 
ATOM      8  C   UNL     1       9.288  11.991  19.726  0.00  0.00    +0.000 A 
ATOM      9  C   UNL     1       8.846  11.940  18.394  0.00  0.00    +0.000 A 
ATOM     10  C   UNL     1       8.531  10.713  17.766  0.00  0.00    +0.000 A 
BRANCH   8  11
ATOM     11  N   UNL     1       9.573  13.203  20.401  0.00  0.00    +0.000 N 
ATOM     12  C   UNL     1      10.782  13.856  20.501  0.00  0.00    +0.000 A 
ATOM     13  N   UNL     1      10.680  14.897  21.293  0.00  0.00    +0.000 NA
ATOM     14  C   UNL     1       9.370  14.859  21.663  0.00  0.00    +0.000 A 
ATOM     15  N   UNL     1       8.659  13.852  21.149  0.00  0.00    +0.000 NA
ENDBRANCH   8  11
BRANCH   9  16
ATOM     16  N   UNL     1       8.791  13.128  17.555  0.00  0.00    +0.000 N 
ATOM     17  O   UNL     1       7.711  13.717  17.497  0.00  0.00    +0.000 OA
ATOM     18  O   UNL     1       9.871  13.519  17.076  0.00  0.00    +0.000 OA
ENDBRANCH   9  16
ENDBRANCH   2   5
BRANCH   1  19
ATOM     19  C   UNL     1       7.890   5.809  18.300  0.00  0.00    +0.000 C 
BRANCH  19  21
ATOM     20  N   UNL     1       5.610   5.143  17.603  0.00  0.00    +0.000 N 
ATOM     21  C   UNL     1       6.451   5.439  18.677  0.00  0.00    +0.000 C 
ATOM     22  O   UNL     1       6.118   5.491  19.861  0.00  0.00    +0.000 OA
ATOM     23  H   UNL     1       5.986   5.322  16.674  0.00  0.00    +0.000 HD
BRANCH  20  29
ATOM     24  C   UNL     1       3.184   5.630  17.790  0.00  0.00    +0.000 A 
ATOM     25  C   UNL     1       1.857   5.136  17.865  0.00  0.00    +0.000 A 
ATOM     26  C   UNL     1       1.588   3.771  17.874  0.00  0.00    +0.000 A 
ATOM     27  C   UNL     1       2.636   2.871  17.790  0.00  0.00    +0.000 A 
ATOM     28  C   UNL     1       3.947   3.338  17.697  0.00  0.00    +0.000 A 
ATOM     29  C   UNL     1       4.259   4.708  17.703  0.00  0.00    +0.000 A 
BRANCH  24  31
ATOM     30  C   UNL     1       2.288   7.795  18.713  0.00  0.00    +0.000 C 
ATOM     31  C   UNL     1       3.341   7.128  17.839  0.00  0.00    +0.000 C 
ENDBRANCH  24  31
ENDBRANCH  20  29
ENDBRANCH  19  21
ENDBRANCH   1  19
TORSDOF 7
ENDMDL
MODEL 8
REMARK VINA RESULT:      -7.3      6.463     10.162
REMARK  Name = 
REMARK  8 active torsions:
REMARK  status: ('A' for Active; 'I' for Inactive)
REMARK    1  A    between atoms: C_1  and  C_2
REMARK    2  A    between atoms: C_2  and  C_3
REMARK    3  A    between atoms: C_8  and  N_9
REMARK    4  A    between atoms: C_10  and  C_12
REMARK    5  A    between atoms: C_12  and  N_13
REMARK    6  A    between atoms: C_14  and  C_16
REMARK    7  A    between atoms: C_19  and  N_20
REMARK    8  A    between atoms: C_25  and  N_26
REMARK                            x       y       z     vdW  Elec       q    Type
REMARK                         _______ _______ _______ _____ _____    ______ ____
ROOT
ATOM      1  N   UNL     1       1.435   9.596  19.511  0.00  0.00    +0.000 N 
ATOM      2  C   UNL     1       2.019   8.953  18.452  0.00  0.00    +0.000 C 
ATOM      3  O   UNL     1       2.180   9.488  17.359  0.00  0.00    +0.000 OA
ATOM      4  H   UNL     1       1.424   9.184  20.436  0.00  0.00    +0.000 HD
ENDROOT
BRANCH   2   5
ATOM      5  C   UNL     1       2.441   7.543  18.653  0.00  0.00    +0.000 A 
ATOM      6  C   UNL     1       3.367   7.006  17.751  0.00  0.00    +0.000 A 
ATOM      7  C   UNL     1       3.730   5.655  17.815  0.00  0.00    +0.000 A 
ATOM      8  C   UNL     1       3.145   4.806  18.769  0.00  0.00    +0.000 A 
ATOM      9  C   UNL     1       2.211   5.354  19.664  0.00  0.00    +0.000 A 
ATOM     10  C   UNL     1       1.871   6.725  19.630  0.00  0.00    +0.000 A 
BRANCH   8  11
ATOM     11  N   UNL     1       3.479   3.430  18.746  0.00  0.00    +0.000 N 
ATOM     12  C   UNL     1       4.410   2.770  19.518  0.00  0.00    +0.000 A 
ATOM     13  N   UNL     1       4.516   1.517  19.142  0.00  0.00    +0.000 NA
ATOM     14  C   UNL     1       3.614   1.437  18.124  0.00  0.00    +0.000 A 
ATOM     15  N   UNL     1       2.963   2.569  17.848  0.00  0.00    +0.000 NA
ENDBRANCH   8  11
BRANCH   9  16
ATOM     16  N   UNL     1       1.628   4.570  20.743  0.00  0.00    +0.000 N 
ATOM     17  O   UNL     1       0.573   3.983  20.495  0.00  0.00    +0.000 OA
ATOM     18  O   UNL     1       2.310   4.454  21.777  0.00  0.00    +0.000 OA
ENDBRANCH   9  16
ENDBRANCH   2   5
BRANCH   1  19
ATOM     19  C   UNL     1       0.963  10.966  19.373  0.00  0.00    +0.000 C 
BRANCH  19  21
ATOM     20  N   UNL     1      -1.291  11.349  18.423  0.00  0.00    +0.000 N 
ATOM     21  C   UNL     1      -0.550  11.107  19.580  0.00  0.00    +0.000 C 
ATOM     22  O   UNL     1      -0.995  11.067  20.728  0.00  0.00    +0.000 OA
ATOM     23  H   UNL     1      -0.756  11.536  17.577  0.00  0.00    +0.000 HD
BRANCH  20  29
ATOM     24  C   UNL     1      -3.454  10.757  17.359  0.00  0.00    +0.000 A 
ATOM     25  C   UNL     1      -4.866  10.875  17.353  0.00  0.00    +0.000 A 
ATOM     26  C   UNL     1      -5.535  11.662  18.285  0.00  0.00    +0.000 A 
ATOM     27  C   UNL     1      -4.810  12.334  19.253  0.00  0.00    +0.000 A 
ATOM     28  C   UNL     1      -3.420  12.216  19.286  0.00  0.00    +0.000 A 
ATOM     29  C   UNL     1      -2.708  11.446  18.351  0.00  0.00    +0.000 A 
BRANCH  24  31
ATOM     30  C   UNL     1      -3.240  10.395  14.876  0.00  0.00    +0.000 C 
ATOM     31  C   UNL     1      -2.850   9.912  16.266  0.00  0.00    +0.000 C 
ENDBRANCH  24  31
ENDBRANCH  20  29
ENDBRANCH  19  21
ENDBRANCH   1  19
TORSDOF 7
ENDMDL
MODEL 9
REMARK VINA RESULT:      -7.3      6.086      9.232
REMARK  Name = 
REMARK  8 active torsions:
REMARK  status: ('A' for Active; 'I' for Inactive)
REMARK    1  A    between atoms: C_1  and  C_2
REMARK    2  A    between atoms: C_2  and  C_3
REMARK    3  A    between atoms: C_8  and  N_9
REMARK    4  A    between atoms: C_10  and  C_12
REMARK    5  A    between atoms: C_12  and  N_13
REMARK    6  A    between atoms: C_14  and  C_16
REMARK    7  A    between atoms: C_19  and  N_20
REMARK    8  A    between atoms: C_25  and  N_26
REMARK                            x       y       z     vdW  Elec       q    Type
REMARK                         _______ _______ _______ _____ _____    ______ ____
ROOT
ATOM      1  N   UNL     1       1.163   9.186  19.275  0.00  0.00    +0.000 N 
ATOM      2  C   UNL     1       1.715   8.045  19.795  0.00  0.00    +0.000 C 
ATOM      3  O   UNL     1       1.402   7.600  20.895  0.00  0.00    +0.000 OA
ATOM      4  H   UNL     1       1.339   9.467  18.319  0.00  0.00    +0.000 HD
ENDROOT
BRANCH   2   5
ATOM      5  C   UNL     1       2.749   7.352  18.986  0.00  0.00    +0.000 A 
ATOM      6  C   UNL     1       3.093   7.915  17.751  0.00  0.00    +0.000 A 
ATOM      7  C   UNL     1       3.981   7.261  16.887  0.00  0.00    +0.000 A 
ATOM      8  C   UNL     1       4.519   6.010  17.234  0.00  0.00    +0.000 A 
ATOM      9  C   UNL     1       4.161   5.452  18.472  0.00  0.00    +0.000 A 
ATOM     10  C   UNL     1       3.296   6.125  19.365  0.00  0.00    +0.000 A 
BRANCH   8  11
ATOM     11  N   UNL     1       5.348   5.348  16.297  0.00  0.00    +0.000 N 
ATOM     12  C   UNL     1       5.111   4.155  15.648  0.00  0.00    +0.000 A 
ATOM     13  N   UNL     1       6.155   3.805  14.932  0.00  0.00    +0.000 NA
ATOM     14  C   UNL     1       7.026   4.827  15.161  0.00  0.00    +0.000 A 
ATOM     15  N   UNL     1       6.583   5.784  15.980  0.00  0.00    +0.000 NA
ENDBRANCH   8  11
BRANCH   9  16
ATOM     16  N   UNL     1       4.743   4.208  18.952  0.00  0.00    +0.000 N 
ATOM     17  O   UNL     1       5.906   4.258  19.355  0.00  0.00    +0.000 OA
ATOM     18  O   UNL     1       3.975   3.232  19.038  0.00  0.00    +0.000 OA
ENDBRANCH   9  16
ENDBRANCH   2   5
BRANCH   1  19
ATOM     19  C   UNL     1       0.171   9.937  20.031  0.00  0.00    +0.000 C 
BRANCH  19  21
ATOM     20  N   UNL     1      -2.082  10.286  19.066  0.00  0.00    +0.000 N 
ATOM     21  C   UNL     1      -0.771  10.758  19.142  0.00  0.00    +0.000 C 
ATOM     22  O   UNL     1      -0.310  11.713  18.517  0.00  0.00    +0.000 OA
ATOM     23  H   UNL     1      -2.260   9.381  19.496  0.00  0.00    +0.000 HD
BRANCH  20  29
ATOM     24  C   UNL     1      -3.360  10.694  16.978  0.00  0.00    +0.000 A 
ATOM     25  C   UNL     1      -4.454  11.330  16.340  0.00  0.00    +0.000 A 
ATOM     26  C   UNL     1      -5.313  12.175  17.036  0.00  0.00    +0.000 A 
ATOM     27  C   UNL     1      -5.108  12.389  18.387  0.00  0.00    +0.000 A 
ATOM     28  C   UNL     1      -4.047  11.758  19.037  0.00  0.00    +0.000 A 
ATOM     29  C   UNL     1      -3.149  10.913  18.365  0.00  0.00    +0.000 A 
BRANCH  24  31
ATOM     30  C   UNL     1      -2.862   9.933  14.630  0.00  0.00    +0.000 C 
ATOM     31  C   UNL     1      -2.478   9.843  16.100  0.00  0.00    +0.000 C 
ENDBRANCH  24  31
ENDBRANCH  20  29
ENDBRANCH  19  21
ENDBRANCH   1  19
TORSDOF 7
ENDMDL
