MODEL 1
REMARK VINA RESULT:      -6.9      0.000      0.000
REMARK  Name = 
REMARK  11 active torsions:
REMARK  status: ('A' for Active; 'I' for Inactive)
REMARK    1  A    between atoms: C_1  and  C_2
REMARK    2  A    between atoms: C_2  and  C_3
REMARK    3  A    between atoms: C_3  and  C_4
REMARK    4  A    between atoms: C_4  and  C_5
REMARK    5  A    between atoms: C_5  and  C_6
REMARK    6  A    between atoms: C_6  and  C_7
REMARK    7  A    between atoms: C_7  and  C_8
REMARK    8  A    between atoms: C_8  and  C_10
REMARK    9  A    between atoms: C_11  and  O_12
REMARK   10  A    between atoms: C_15  and  O_16
REMARK   11  A    between atoms: C_19  and  O_20
REMARK                            x       y       z     vdW  Elec       q    Type
REMARK                         _______ _______ _______ _____ _____    ______ ____
ROOT
ATOM      1  C   UNL     1       5.552   5.076  18.019  0.00  0.00    +0.000 A 
ATOM      2  C   UNL     1       4.926   4.168  18.900  0.00  0.00    +0.000 A 
ATOM      3  C   UNL     1       3.674   4.467  19.454  0.00  0.00    +0.000 A 
ATOM      4 CL   UNL     1       2.902   3.373  20.553  0.00  0.00    +0.000 Cl
ATOM      5  C   UNL     1       3.033   5.665  19.131  0.00  0.00    +0.000 A 
ATOM      6  C   UNL     1       3.638   6.564  18.248  0.00  0.00    +0.000 A 
ATOM      7 CL   UNL     1       2.857   8.049  17.821  0.00  0.00    +0.000 Cl
ATOM      8  C   UNL     1       4.896   6.270  17.696  0.00  0.00    +0.000 A 
ENDROOT
BRANCH   1   9
ATOM      9  C   UNL     1       6.900   4.722  17.490  0.00  0.00    +0.000 C 
ATOM     10  O   UNL     1       7.780   4.456  18.312  0.00  0.00    +0.000 OA
BRANCH   9  11
ATOM     11  C   UNL     1       7.133   4.639  15.997  0.00  0.00    +0.000 C 
BRANCH  11  12
ATOM     12  C   UNL     1       6.077   3.763  15.323  0.00  0.00    +0.000 C 
BRANCH  12  13
ATOM     13  C   UNL     1       6.261   3.757  13.808  0.00  0.00    +0.000 C 
BRANCH  13  14
ATOM     14  C   UNL     1       4.914   3.829  13.093  0.00  0.00    +0.000 C 
BRANCH  14  15
ATOM     15  C   UNL     1       5.031   3.339  11.654  0.00  0.00    +0.000 C 
BRANCH  15  17
ATOM     16  C   UNL     1       3.295   3.996   9.957  0.00  0.00    +0.000 C 
ATOM     17  C   UNL     1       3.659   3.023  11.063  0.00  0.00    +0.000 C 
ENDBRANCH  15  17
ENDBRANCH  14  15
ENDBRANCH  13  14
ENDBRANCH  12  13
ENDBRANCH  11  12
ENDBRANCH   9  11
ENDBRANCH   1   9
BRANCH   2  18
ATOM     18  O   UNL     1       5.503   2.965  19.229  0.00  0.00    +0.000 OA
ATOM     19  H   UNL     1       6.217   3.121  19.891  0.00  0.00    +0.000 HD
ENDBRANCH   2  18
BRANCH   5  20
ATOM     20  O   UNL     1       1.811   5.976  19.675  0.00  0.00    +0.000 OA
ATOM     21  H   UNL     1       1.447   5.164  20.077  0.00  0.00    +0.000 HD
ENDBRANCH   5  20
BRANCH   8  22
ATOM     22  O   UNL     1       5.485   7.180  16.854  0.00  0.00    +0.000 OA
ATOM     23  H   UNL     1       4.869   7.929  16.735  0.00  0.00    +0.000 HD
ENDBRANCH   8  22
TORSDOF 10
ENDMDL
MODEL 2
REMARK VINA RESULT:      -6.8      1.414      1.629
REMARK  Name = 
REMARK  11 active torsions:
REMARK  status: ('A' for Active; 'I' for Inactive)
REMARK    1  A    between atoms: C_1  and  C_2
REMARK    2  A    between atoms: C_2  and  C_3
REMARK    3  A    between atoms: C_3  and  C_4
REMARK    4  A    between atoms: C_4  and  C_5
REMARK    5  A    between atoms: C_5  and  C_6
REMARK    6  A    between atoms: C_6  and  C_7
REMARK    7  A    between atoms: C_7  and  C_8
REMARK    8  A    between atoms: C_8  and  C_10
REMARK    9  A    between atoms: C_11  and  O_12
REMARK   10  A    between atoms: C_15  and  O_16
REMARK   11  A    between atoms: C_19  and  O_20
REMARK                            x       y       z     vdW  Elec       q    Type
REMARK                         _______ _______ _______ _____ _____    ______ ____
ROOT
ATOM      1  C   UNL     1       5.588   4.872  16.462  0.00  0.00    +0.000 A 
ATOM      2  C   UNL     1       4.877   3.729  16.884  0.00  0.00    +0.000 A 
ATOM      3  C   UNL     1       3.666   3.863  17.576  0.00  0.00    +0.000 A 
ATOM      4 CL   UNL     1       2.791   2.470  18.119  0.00  0.00    +0.000 Cl
ATOM      5  C   UNL     1       3.151   5.132  17.848  0.00  0.00    +0.000 A 
ATOM      6  C   UNL     1       3.841   6.271  17.421  0.00  0.00    +0.000 A 
ATOM      7 CL   UNL     1       3.216   7.855  17.733  0.00  0.00    +0.000 Cl
ATOM      8  C   UNL     1       5.059   6.140  16.732  0.00  0.00    +0.000 A 
ENDROOT
BRANCH   1   9
ATOM      9  C   UNL     1       6.889   4.669  15.762  0.00  0.00    +0.000 C 
ATOM     10  O   UNL     1       7.861   4.351  16.452  0.00  0.00    +0.000 OA
BRANCH   9  11
ATOM     11  C   UNL     1       6.970   4.796  14.257  0.00  0.00    +0.000 C 
BRANCH  11  12
ATOM     12  C   UNL     1       5.817   4.056  13.579  0.00  0.00    +0.000 C 
BRANCH  12  13
ATOM     13  C   UNL     1       6.301   3.313  12.337  0.00  0.00    +0.000 C 
BRANCH  13  14
ATOM     14  C   UNL     1       5.145   2.605  11.637  0.00  0.00    +0.000 C 
BRANCH  14  15
ATOM     15  C   UNL     1       3.998   3.571  11.360  0.00  0.00    +0.000 C 
BRANCH  15  17
ATOM     16  C   UNL     1       2.511   4.543   9.580  0.00  0.00    +0.000 C 
ATOM     17  C   UNL     1       3.509   3.450   9.918  0.00  0.00    +0.000 C 
ENDBRANCH  15  17
ENDBRANCH  14  15
ENDBRANCH  13  14
ENDBRANCH  12  13
ENDBRANCH  11  12
ENDBRANCH   9  11
ENDBRANCH   1   9
BRANCH   2  18
ATOM     18  O   UNL     1       5.328   2.457  16.619  0.00  0.00    +0.000 OA
ATOM     19  H   UNL     1       6.310   2.473  16.546  0.00  0.00    +0.000 HD
ENDBRANCH   2  18
BRANCH   5  20
ATOM     20  O   UNL     1       1.971   5.279  18.535  0.00  0.00    +0.000 OA
ATOM     21  H   UNL     1       2.048   6.076  19.094  0.00  0.00    +0.000 HD
ENDBRANCH   5  20
BRANCH   8  22
ATOM     22  O   UNL     1       5.733   7.271  16.348  0.00  0.00    +0.000 OA
ATOM     23  H   UNL     1       5.123   7.829  15.828  0.00  0.00    +0.000 HD
ENDBRANCH   8  22
TORSDOF 10
ENDMDL
MODEL 3
REMARK VINA RESULT:      -6.8      0.728      2.669
REMARK  Name = 
REMARK  11 active torsions:
REMARK  status: ('A' for Active; 'I' for Inactive)
REMARK    1  A    between atoms: C_1  and  C_2
REMARK    2  A    between atoms: C_2  and  C_3
REMARK    3  A    between atoms: C_3  and  C_4
REMARK    4  A    between atoms: C_4  and  C_5
REMARK    5  A    between atoms: C_5  and  C_6
REMARK    6  A    between atoms: C_6  and  C_7
REMARK    7  A    between atoms: C_7  and  C_8
REMARK    8  A    between atoms: C_8  and  C_10
REMARK    9  A    between atoms: C_11  and  O_12
REMARK   10  A    between atoms: C_15  and  O_16
REMARK   11  A    between atoms: C_19  and  O_20
REMARK                            x       y       z     vdW  Elec       q    Type
REMARK                         _______ _______ _______ _____ _____    ______ ____
ROOT
ATOM      1  C   UNL     1       5.193   4.996  17.526  0.00  0.00    +0.000 A 
ATOM      2  C   UNL     1       4.571   6.232  17.247  0.00  0.00    +0.000 A 
ATOM      3  C   UNL     1       3.501   6.680  18.033  0.00  0.00    +0.000 A 
ATOM      4 CL   UNL     1       2.714   8.185  17.692  0.00  0.00    +0.000 Cl
ATOM      5  C   UNL     1       3.047   5.908  19.105  0.00  0.00    +0.000 A 
ATOM      6  C   UNL     1       3.666   4.689  19.398  0.00  0.00    +0.000 A 
ATOM      7 CL   UNL     1       3.130   3.720  20.729  0.00  0.00    +0.000 Cl
ATOM      8  C   UNL     1       4.735   4.234  18.608  0.00  0.00    +0.000 A 
ENDROOT
BRANCH   1   9
ATOM      9  C   UNL     1       6.302   4.553  16.634  0.00  0.00    +0.000 C 
ATOM     10  O   UNL     1       7.445   4.915  16.927  0.00  0.00    +0.000 OA
BRANCH   9  11
ATOM     11  C   UNL     1       6.016   3.646  15.458  0.00  0.00    +0.000 C 
BRANCH  11  12
ATOM     12  C   UNL     1       5.871   4.449  14.165  0.00  0.00    +0.000 C 
BRANCH  12  13
ATOM     13  C   UNL     1       6.217   3.594  12.950  0.00  0.00    +0.000 C 
BRANCH  13  14
ATOM     14  C   UNL     1       4.955   3.035  12.297  0.00  0.00    +0.000 C 
BRANCH  14  15
ATOM     15  C   UNL     1       4.590   3.828  11.046  0.00  0.00    +0.000 C 
BRANCH  15  17
ATOM     16  C   UNL     1       2.733   4.336   9.427  0.00  0.00    +0.000 C 
ATOM     17  C   UNL     1       3.258   3.358  10.463  0.00  0.00    +0.000 C 
ENDBRANCH  15  17
ENDBRANCH  14  15
ENDBRANCH  13  14
ENDBRANCH  12  13
ENDBRANCH  11  12
ENDBRANCH   9  11
ENDBRANCH   1   9
BRANCH   2  18
ATOM     18  O   UNL     1       4.997   7.041  16.221  0.00  0.00    +0.000 OA
ATOM     19  H   UNL     1       4.240   7.589  15.908  0.00  0.00    +0.000 HD
ENDBRANCH   2  18
BRANCH   5  20
ATOM     20  O   UNL     1       1.992   6.329  19.876  0.00  0.00    +0.000 OA
ATOM     21  H   UNL     1       1.812   7.263  19.653  0.00  0.00    +0.000 HD
ENDBRANCH   5  20
BRANCH   8  22
ATOM     22  O   UNL     1       5.309   3.021  18.896  0.00  0.00    +0.000 OA
ATOM     23  H   UNL     1       4.684   2.510  19.446  0.00  0.00    +0.000 HD
ENDBRANCH   8  22
TORSDOF 10
ENDMDL
MODEL 4
REMARK VINA RESULT:      -6.8      0.679      2.664
REMARK  Name = 
REMARK  11 active torsions:
REMARK  status: ('A' for Active; 'I' for Inactive)
REMARK    1  A    between atoms: C_1  and  C_2
REMARK    2  A    between atoms: C_2  and  C_3
REMARK    3  A    between atoms: C_3  and  C_4
REMARK    4  A    between atoms: C_4  and  C_5
REMARK    5  A    between atoms: C_5  and  C_6
REMARK    6  A    between atoms: C_6  and  C_7
REMARK    7  A    between atoms: C_7  and  C_8
REMARK    8  A    between atoms: C_8  and  C_10
REMARK    9  A    between atoms: C_11  and  O_12
REMARK   10  A    between atoms: C_15  and  O_16
REMARK   11  A    between atoms: C_19  and  O_20
REMARK                            x       y       z     vdW  Elec       q    Type
REMARK                         _______ _______ _______ _____ _____    ______ ____
ROOT
ATOM      1  C   UNL     1       5.341   4.782  18.448  0.00  0.00    +0.000 A 
ATOM      2  C   UNL     1       4.670   5.995  18.185  0.00  0.00    +0.000 A 
ATOM      3  C   UNL     1       3.402   6.236  18.729  0.00  0.00    +0.000 A 
ATOM      4 CL   UNL     1       2.556   7.712  18.399  0.00  0.00    +0.000 Cl
ATOM      5  C   UNL     1       2.794   5.278  19.543  0.00  0.00    +0.000 A 
ATOM      6  C   UNL     1       3.457   4.079  19.822  0.00  0.00    +0.000 A 
ATOM      7 CL   UNL     1       2.731   2.881  20.839  0.00  0.00    +0.000 Cl
ATOM      8  C   UNL     1       4.726   3.831  19.272  0.00  0.00    +0.000 A 
ENDROOT
BRANCH   1   9
ATOM      9  C   UNL     1       6.672   4.565  17.813  0.00  0.00    +0.000 C 
ATOM     10  O   UNL     1       7.657   4.542  18.555  0.00  0.00    +0.000 OA
BRANCH   9  11
ATOM     11  C   UNL     1       6.773   4.325  16.322  0.00  0.00    +0.000 C 
BRANCH  11  12
ATOM     12  C   UNL     1       5.421   3.921  15.737  0.00  0.00    +0.000 C 
BRANCH  12  13
ATOM     13  C   UNL     1       5.296   4.379  14.287  0.00  0.00    +0.000 C 
BRANCH  13  14
ATOM     14  C   UNL     1       6.468   3.874  13.449  0.00  0.00    +0.000 C 
BRANCH  14  15
ATOM     15  C   UNL     1       6.001   3.426  12.068  0.00  0.00    +0.000 C 
BRANCH  15  17
ATOM     16  C   UNL     1       3.893   3.528  10.700  0.00  0.00    +0.000 C 
ATOM     17  C   UNL     1       4.494   3.175  12.048  0.00  0.00    +0.000 C 
ENDBRANCH  15  17
ENDBRANCH  14  15
ENDBRANCH  13  14
ENDBRANCH  12  13
ENDBRANCH  11  12
ENDBRANCH   9  11
ENDBRANCH   1   9
BRANCH   2  18
ATOM     18  O   UNL     1       5.235   6.981  17.412  0.00  0.00    +0.000 OA
ATOM     19  H   UNL     1       4.753   7.827  17.567  0.00  0.00    +0.000 HD
ENDBRANCH   2  18
BRANCH   5  20
ATOM     20  O   UNL     1       1.547   5.496  20.073  0.00  0.00    +0.000 OA
ATOM     21  H   UNL     1       1.651   5.639  21.034  0.00  0.00    +0.000 HD
ENDBRANCH   5  20
BRANCH   8  22
ATOM     22  O   UNL     1       5.346   2.635  19.536  0.00  0.00    +0.000 OA
ATOM     23  H   UNL     1       6.297   2.809  19.676  0.00  0.00    +0.000 HD
ENDBRANCH   8  22
TORSDOF 10
ENDMDL
MODEL 5
REMARK VINA RESULT:      -6.8      1.211      2.995
REMARK  Name = 
REMARK  11 active torsions:
REMARK  status: ('A' for Active; 'I' for Inactive)
REMARK    1  A    between atoms: C_1  and  C_2
REMARK    2  A    between atoms: C_2  and  C_3
REMARK    3  A    between atoms: C_3  and  C_4
REMARK    4  A    between atoms: C_4  and  C_5
REMARK    5  A    between atoms: C_5  and  C_6
REMARK    6  A    between atoms: C_6  and  C_7
REMARK    7  A    between atoms: C_7  and  C_8
REMARK    8  A    between atoms: C_8  and  C_10
REMARK    9  A    between atoms: C_11  and  O_12
REMARK   10  A    between atoms: C_15  and  O_16
REMARK   11  A    between atoms: C_19  and  O_20
REMARK                            x       y       z     vdW  Elec       q    Type
REMARK                         _______ _______ _______ _____ _____    ______ ____
ROOT
ATOM      1  C   UNL     1       4.882   4.678  18.477  0.00  0.00    +0.000 A 
ATOM      2  C   UNL     1       4.224   5.920  18.356  0.00  0.00    +0.000 A 
ATOM      3  C   UNL     1       3.075   6.190  19.111  0.00  0.00    +0.000 A 
ATOM      4 CL   UNL     1       2.243   7.702  18.960  0.00  0.00    +0.000 Cl
ATOM      5  C   UNL     1       2.577   5.232  19.997  0.00  0.00    +0.000 A 
ATOM      6  C   UNL     1       3.231   4.004  20.135  0.00  0.00    +0.000 A 
ATOM      7 CL   UNL     1       2.641   2.804  21.236  0.00  0.00    +0.000 Cl
ATOM      8  C   UNL     1       4.379   3.727  19.374  0.00  0.00    +0.000 A 
ENDROOT
BRANCH   1   9
ATOM      9  C   UNL     1       6.078   4.433  17.622  0.00  0.00    +0.000 C 
ATOM     10  O   UNL     1       7.179   4.417  18.177  0.00  0.00    +0.000 OA
BRANCH   9  11
ATOM     11  C   UNL     1       5.912   4.157  16.143  0.00  0.00    +0.000 C 
BRANCH  11  12
ATOM     12  C   UNL     1       7.142   4.610  15.357  0.00  0.00    +0.000 C 
BRANCH  12  13
ATOM     13  C   UNL     1       6.850   4.642  13.860  0.00  0.00    +0.000 C 
BRANCH  13  14
ATOM     14  C   UNL     1       5.519   3.964  13.546  0.00  0.00    +0.000 C 
BRANCH  14  15
ATOM     15  C   UNL     1       5.536   3.341  12.154  0.00  0.00    +0.000 C 
BRANCH  15  17
ATOM     16  C   UNL     1       7.128   1.701  11.105  0.00  0.00    +0.000 C 
ATOM     17  C   UNL     1       6.965   3.100  11.674  0.00  0.00    +0.000 C 
ENDBRANCH  15  17
ENDBRANCH  14  15
ENDBRANCH  13  14
ENDBRANCH  12  13
ENDBRANCH  11  12
ENDBRANCH   9  11
ENDBRANCH   1   9
BRANCH   2  18
ATOM     18  O   UNL     1       4.688   6.907  17.519  0.00  0.00    +0.000 OA
ATOM     19  H   UNL     1       4.393   6.713  16.599  0.00  0.00    +0.000 HD
ENDBRANCH   2  18
BRANCH   5  20
ATOM     20  O   UNL     1       1.446   5.478  20.735  0.00  0.00    +0.000 OA
ATOM     21  H   UNL     1       1.500   6.395  21.068  0.00  0.00    +0.000 HD
ENDBRANCH   5  20
BRANCH   8  22
ATOM     22  O   UNL     1       4.988   2.505  19.504  0.00  0.00    +0.000 OA
ATOM     23  H   UNL     1       4.338   1.878  19.877  0.00  0.00    +0.000 HD
ENDBRANCH   8  22
TORSDOF 10
ENDMDL
MODEL 6
REMARK VINA RESULT:      -6.8      1.319      1.409
REMARK  Name = 
REMARK  11 active torsions:
REMARK  status: ('A' for Active; 'I' for Inactive)
REMARK    1  A    between atoms: C_1  and  C_2
REMARK    2  A    between atoms: C_2  and  C_3
REMARK    3  A    between atoms: C_3  and  C_4
REMARK    4  A    between atoms: C_4  and  C_5
REMARK    5  A    between atoms: C_5  and  C_6
REMARK    6  A    between atoms: C_6  and  C_7
REMARK    7  A    between atoms: C_7  and  C_8
REMARK    8  A    between atoms: C_8  and  C_10
REMARK    9  A    between atoms: C_11  and  O_12
REMARK   10  A    between atoms: C_15  and  O_16
REMARK   11  A    between atoms: C_19  and  O_20
REMARK                            x       y       z     vdW  Elec       q    Type
REMARK                         _______ _______ _______ _____ _____    ______ ____
ROOT
ATOM      1  C   UNL     1       4.511   4.671  17.134  0.00  0.00    +0.000 A 
ATOM      2  C   UNL     1       3.948   3.514  17.713  0.00  0.00    +0.000 A 
ATOM      3  C   UNL     1       2.898   3.623  18.634  0.00  0.00    +0.000 A 
ATOM      4 CL   UNL     1       2.208   2.214  19.370  0.00  0.00    +0.000 Cl
ATOM      5  C   UNL     1       2.395   4.879  18.980  0.00  0.00    +0.000 A 
ATOM      6  C   UNL     1       2.937   6.030  18.400  0.00  0.00    +0.000 A 
ATOM      7 CL   UNL     1       2.323   7.598  18.802  0.00  0.00    +0.000 Cl
ATOM      8  C   UNL     1       3.995   5.925  17.481  0.00  0.00    +0.000 A 
ENDROOT
BRANCH   1   9
ATOM      9  C   UNL     1       5.651   4.497  16.189  0.00  0.00    +0.000 C 
ATOM     10  O   UNL     1       6.745   4.191  16.669  0.00  0.00    +0.000 OA
BRANCH   9  11
ATOM     11  C   UNL     1       5.431   4.635  14.698  0.00  0.00    +0.000 C 
BRANCH  11  12
ATOM     12  C   UNL     1       6.735   4.428  13.928  0.00  0.00    +0.000 C 
BRANCH  12  13
ATOM     13  C   UNL     1       6.473   3.750  12.586  0.00  0.00    +0.000 C 
BRANCH  13  14
ATOM     14  C   UNL     1       5.049   3.206  12.516  0.00  0.00    +0.000 C 
BRANCH  14  15
ATOM     15  C   UNL     1       4.637   2.932  11.073  0.00  0.00    +0.000 C 
BRANCH  15  17
ATOM     16  C   UNL     1       3.030   4.056   9.500  0.00  0.00    +0.000 C 
ATOM     17  C   UNL     1       3.185   3.335  10.827  0.00  0.00    +0.000 C 
ENDBRANCH  15  17
ENDBRANCH  14  15
ENDBRANCH  13  14
ENDBRANCH  12  13
ENDBRANCH  11  12
ENDBRANCH   9  11
ENDBRANCH   1   9
BRANCH   2  18
ATOM     18  O   UNL     1       4.388   2.253  17.387  0.00  0.00    +0.000 OA
ATOM     19  H   UNL     1       5.272   2.323  16.956  0.00  0.00    +0.000 HD
ENDBRANCH   2  18
BRANCH   5  20
ATOM     20  O   UNL     1       1.374   5.001  19.890  0.00  0.00    +0.000 OA
ATOM     21  H   UNL     1       0.548   5.155  19.392  0.00  0.00    +0.000 HD
ENDBRANCH   5  20
BRANCH   8  22
ATOM     22  O   UNL     1       4.531   7.070  16.946  0.00  0.00    +0.000 OA
ATOM     23  H   UNL     1       3.844   7.503  16.403  0.00  0.00    +0.000 HD
ENDBRANCH   8  22
TORSDOF 10
ENDMDL
MODEL 7
REMARK VINA RESULT:      -6.7      1.146      1.375
REMARK  Name = 
REMARK  11 active torsions:
REMARK  status: ('A' for Active; 'I' for Inactive)
REMARK    1  A    between atoms: C_1  and  C_2
REMARK    2  A    between atoms: C_2  and  C_3
REMARK    3  A    between atoms: C_3  and  C_4
REMARK    4  A    between atoms: C_4  and  C_5
REMARK    5  A    between atoms: C_5  and  C_6
REMARK    6  A    between atoms: C_6  and  C_7
REMARK    7  A    between atoms: C_7  and  C_8
REMARK    8  A    between atoms: C_8  and  C_10
REMARK    9  A    between atoms: C_11  and  O_12
REMARK   10  A    between atoms: C_15  and  O_16
REMARK   11  A    between atoms: C_19  and  O_20
REMARK                            x       y       z     vdW  Elec       q    Type
REMARK                         _______ _______ _______ _____ _____    ______ ____
ROOT
ATOM      1  C   UNL     1       5.117   4.963  18.428  0.00  0.00    +0.000 A 
ATOM      2  C   UNL     1       4.657   3.942  19.287  0.00  0.00    +0.000 A 
ATOM      3  C   UNL     1       3.445   4.088  19.975  0.00  0.00    +0.000 A 
ATOM      4 CL   UNL     1       2.877   2.854  21.049  0.00  0.00    +0.000 Cl
ATOM      5  C   UNL     1       2.679   5.243  19.809  0.00  0.00    +0.000 A 
ATOM      6  C   UNL     1       3.119   6.254  18.948  0.00  0.00    +0.000 A 
ATOM      7 CL   UNL     1       2.181   7.690  18.715  0.00  0.00    +0.000 Cl
ATOM      8  C   UNL     1       4.337   6.114  18.262  0.00  0.00    +0.000 A 
ENDROOT
BRANCH   1   9
ATOM      9  C   UNL     1       6.431   4.769  17.751  0.00  0.00    +0.000 C 
ATOM     10  O   UNL     1       7.387   4.431  18.454  0.00  0.00    +0.000 OA
BRANCH   9  11
ATOM     11  C   UNL     1       6.545   4.928  16.251  0.00  0.00    +0.000 C 
BRANCH  11  12
ATOM     12  C   UNL     1       5.868   3.767  15.522  0.00  0.00    +0.000 C 
BRANCH  12  13
ATOM     13  C   UNL     1       5.564   4.137  14.073  0.00  0.00    +0.000 C 
BRANCH  13  14
ATOM     14  C   UNL     1       6.850   4.393  13.291  0.00  0.00    +0.000 C 
BRANCH  14  15
ATOM     15  C   UNL     1       6.832   3.662  11.953  0.00  0.00    +0.000 C 
BRANCH  15  17
ATOM     16  C   UNL     1       6.058   1.352  11.327  0.00  0.00    +0.000 C 
ATOM     17  C   UNL     1       5.640   2.712  11.858  0.00  0.00    +0.000 C 
ENDBRANCH  15  17
ENDBRANCH  14  15
ENDBRANCH  13  14
ENDBRANCH  12  13
ENDBRANCH  11  12
ENDBRANCH   9  11
ENDBRANCH   1   9
BRANCH   2  18
ATOM     18  O   UNL     1       5.360   2.774  19.465  0.00  0.00    +0.000 OA
ATOM     19  H   UNL     1       6.243   2.986  19.849  0.00  0.00    +0.000 HD
ENDBRANCH   2  18
BRANCH   5  20
ATOM     20  O   UNL     1       1.495   5.405  20.485  0.00  0.00    +0.000 OA
ATOM     21  H   UNL     1       0.784   5.502  19.823  0.00  0.00    +0.000 HD
ENDBRANCH   5  20
BRANCH   8  22
ATOM     22  O   UNL     1       4.764   7.131  17.445  0.00  0.00    +0.000 OA
ATOM     23  H   UNL     1       5.242   6.735  16.690  0.00  0.00    +0.000 HD
ENDBRANCH   8  22
TORSDOF 10
ENDMDL
MODEL 8
REMARK VINA RESULT:      -6.6      1.315      2.993
REMARK  Name = 
REMARK  11 active torsions:
REMARK  status: ('A' for Active; 'I' for Inactive)
REMARK    1  A    between atoms: C_1  and  C_2
REMARK    2  A    between atoms: C_2  and  C_3
REMARK    3  A    between atoms: C_3  and  C_4
REMARK    4  A    between atoms: C_4  and  C_5
REMARK    5  A    between atoms: C_5  and  C_6
REMARK    6  A    between atoms: C_6  and  C_7
REMARK    7  A    between atoms: C_7  and  C_8
REMARK    8  A    between atoms: C_8  and  C_10
REMARK    9  A    between atoms: C_11  and  O_12
REMARK   10  A    between atoms: C_15  and  O_16
REMARK   11  A    between atoms: C_19  and  O_20
REMARK                            x       y       z     vdW  Elec       q    Type
REMARK                         _______ _______ _______ _____ _____    ______ ____
ROOT
ATOM      1  C   UNL     1       5.077   4.963  18.641  0.00  0.00    +0.000 A 
ATOM      2  C   UNL     1       4.198   5.969  18.187  0.00  0.00    +0.000 A 
ATOM      3  C   UNL     1       2.830   5.702  18.042  0.00  0.00    +0.000 A 
ATOM      4 CL   UNL     1       1.740   6.919  17.466  0.00  0.00    +0.000 Cl
ATOM      5  C   UNL     1       2.326   4.437  18.352  0.00  0.00    +0.000 A 
ATOM      6  C   UNL     1       3.187   3.438  18.817  0.00  0.00    +0.000 A 
ATOM      7 CL   UNL     1       2.584   1.866  19.221  0.00  0.00    +0.000 Cl
ATOM      8  C   UNL     1       4.560   3.701  18.957  0.00  0.00    +0.000 A 
ENDROOT
BRANCH   1   9
ATOM      9  C   UNL     1       6.527   5.293  18.741  0.00  0.00    +0.000 C 
ATOM     10  O   UNL     1       7.037   5.274  19.865  0.00  0.00    +0.000 OA
BRANCH   9  11
ATOM     11  C   UNL     1       7.331   5.578  17.492  0.00  0.00    +0.000 C 
BRANCH  11  12
ATOM     12  C   UNL     1       7.128   4.482  16.445  0.00  0.00    +0.000 C 
BRANCH  12  13
ATOM     13  C   UNL     1       6.415   5.031  15.213  0.00  0.00    +0.000 C 
BRANCH  13  14
ATOM     14  C   UNL     1       5.850   3.900  14.358  0.00  0.00    +0.000 C 
BRANCH  14  15
ATOM     15  C   UNL     1       6.468   3.906  12.964  0.00  0.00    +0.000 C 
BRANCH  15  17
ATOM     16  C   UNL     1       4.417   3.398  11.600  0.00  0.00    +0.000 C 
ATOM     17  C   UNL     1       5.778   2.897  12.048  0.00  0.00    +0.000 C 
ENDBRANCH  15  17
ENDBRANCH  14  15
ENDBRANCH  13  14
ENDBRANCH  12  13
ENDBRANCH  11  12
ENDBRANCH   9  11
ENDBRANCH   1   9
BRANCH   2  18
ATOM     18  O   UNL     1       4.639   7.237  17.894  0.00  0.00    +0.000 OA
ATOM     19  H   UNL     1       5.623   7.230  17.835  0.00  0.00    +0.000 HD
ENDBRANCH   2  18
BRANCH   5  20
ATOM     20  O   UNL     1       0.990   4.158  18.203  0.00  0.00    +0.000 OA
ATOM     21  H   UNL     1       0.599   4.856  17.644  0.00  0.00    +0.000 HD
ENDBRANCH   5  20
BRANCH   8  22
ATOM     22  O   UNL     1       5.391   2.697  19.387  0.00  0.00    +0.000 OA
ATOM     23  H   UNL     1       5.058   1.851  19.031  0.00  0.00    +0.000 HD
ENDBRANCH   8  22
TORSDOF 10
ENDMDL
MODEL 9
REMARK VINA RESULT:      -6.6      1.465      2.840
REMARK  Name = 
REMARK  11 active torsions:
REMARK  status: ('A' for Active; 'I' for Inactive)
REMARK    1  A    between atoms: C_1  and  C_2
REMARK    2  A    between atoms: C_2  and  C_3
REMARK    3  A    between atoms: C_3  and  C_4
REMARK    4  A    between atoms: C_4  and  C_5
REMARK    5  A    between atoms: C_5  and  C_6
REMARK    6  A    between atoms: C_6  and  C_7
REMARK    7  A    between atoms: C_7  and  C_8
REMARK    8  A    between atoms: C_8  and  C_10
REMARK    9  A    between atoms: C_11  and  O_12
REMARK   10  A    between atoms: C_15  and  O_16
REMARK   11  A    between atoms: C_19  and  O_20
REMARK                            x       y       z     vdW  Elec       q    Type
REMARK                         _______ _______ _______ _____ _____    ______ ____
ROOT
ATOM      1  C   UNL     1       4.256   4.520  17.750  0.00  0.00    +0.000 A 
ATOM      2  C   UNL     1       3.809   5.770  18.227  0.00  0.00    +0.000 A 
ATOM      3  C   UNL     1       2.733   5.843  19.122  0.00  0.00    +0.000 A 
ATOM      4 CL   UNL     1       2.157   7.370  19.702  0.00  0.00    +0.000 Cl
ATOM      5  C   UNL     1       2.099   4.676  19.552  0.00  0.00    +0.000 A 
ATOM      6  C   UNL     1       2.544   3.431  19.097  0.00  0.00    +0.000 A 
ATOM      7 CL   UNL     1       1.784   1.969  19.626  0.00  0.00    +0.000 Cl
ATOM      8  C   UNL     1       3.619   3.355  18.194  0.00  0.00    +0.000 A 
ENDROOT
BRANCH   1   9
ATOM      9  C   UNL     1       5.381   4.506  16.772  0.00  0.00    +0.000 C 
ATOM     10  O   UNL     1       6.528   4.507  17.227  0.00  0.00    +0.000 OA
BRANCH   9  11
ATOM     11  C   UNL     1       5.098   4.431  15.288  0.00  0.00    +0.000 C 
BRANCH  11  12
ATOM     12  C   UNL     1       6.204   3.672  14.554  0.00  0.00    +0.000 C 
BRANCH  12  13
ATOM     13  C   UNL     1       6.671   4.444  13.324  0.00  0.00    +0.000 C 
BRANCH  13  14
ATOM     14  C   UNL     1       6.756   3.531  12.104  0.00  0.00    +0.000 C 
BRANCH  14  15
ATOM     15  C   UNL     1       5.444   2.784  11.887  0.00  0.00    +0.000 C 
BRANCH  15  17
ATOM     16  C   UNL     1       3.319   3.003  10.561  0.00  0.00    +0.000 C 
ATOM     17  C   UNL     1       4.340   3.729  11.418  0.00  0.00    +0.000 C 
ENDBRANCH  15  17
ENDBRANCH  14  15
ENDBRANCH  13  14
ENDBRANCH  12  13
ENDBRANCH  11  12
ENDBRANCH   9  11
ENDBRANCH   1   9
BRANCH   2  18
ATOM     18  O   UNL     1       4.415   6.946  17.855  0.00  0.00    +0.000 OA
ATOM     19  H   UNL     1       3.815   7.438  17.248  0.00  0.00    +0.000 HD
ENDBRANCH   2  18
BRANCH   5  20
ATOM     20  O   UNL     1       1.036   4.732  20.420  0.00  0.00    +0.000 OA
ATOM     21  H   UNL     1       1.274   5.341  21.145  0.00  0.00    +0.000 HD
ENDBRANCH   5  20
BRANCH   8  22
ATOM     22  O   UNL     1       4.021   2.125  17.737  0.00  0.00    +0.000 OA
ATOM     23  H   UNL     1       3.620   1.980  16.858  0.00  0.00    +0.000 HD
ENDBRANCH   8  22
TORSDOF 10
ENDMDL
