MODEL 1
REMARK VINA RESULT:      -6.9      0.000      0.000
REMARK  Name = 
REMARK  7 active torsions:
REMARK  status: ('A' for Active; 'I' for Inactive)
REMARK    1  A    between atoms: N_1  and  CA_2
REMARK    2  A    between atoms: CA_2  and  C_3
REMARK    3  A    between atoms: CA_2  and  C_20
REMARK    4  A    between atoms: C_3  and  N_4
REMARK    5  A    between atoms: C_5  and  C_7
REMARK    6  A    between atoms: C_16  and  N_17
REMARK    7  A    between atoms: C_20  and  OXT_22
REMARK                            x       y       z     vdW  Elec       q    Type
REMARK                         _______ _______ _______ _____ _____    ______ ____
ROOT
ATOM      1  C   UNL     1       4.897   4.509  18.288  0.00  0.00    +0.000 A 
ATOM      2  N   UNL     1       4.525   5.830  18.423  0.00  0.00    +0.000 N 
ATOM      3  C   UNL     1       3.431   5.964  19.241  0.00  0.00    +0.000 A 
ATOM      4  C   UNL     1       2.693   7.112  19.548  0.00  0.00    +0.000 A 
ATOM      5  C   UNL     1       1.602   6.979  20.404  0.00  0.00    +0.000 A 
ATOM      6  C   UNL     1       1.267   5.737  20.938  0.00  0.00    +0.000 A 
ATOM      7  C   UNL     1       2.022   4.594  20.630  0.00  0.00    +0.000 A 
ATOM      8 BR   UNL     1       1.437   2.947  21.357  0.00  0.00    +0.000 Br
ATOM      9  C   UNL     1       3.137   4.698  19.763  0.00  0.00    +0.000 A 
ATOM     10  C   UNL     1       4.116   3.809  19.202  0.00  0.00    +0.000 A 
ATOM     11  H   UNL     1       4.973   6.589  17.918  0.00  0.00    +0.000 HD
ENDROOT
BRANCH   1  13
ATOM     12  N   UNL     1       5.557   3.587  16.162  0.00  0.00    +0.000 N 
ATOM     13  C   UNL     1       5.942   4.157  17.356  0.00  0.00    +0.000 C 
ATOM     14  O   UNL     1       7.113   4.438  17.582  0.00  0.00    +0.000 OA
ATOM     15  H   UNL     1       4.574   3.433  15.953  0.00  0.00    +0.000 HD
BRANCH  12  16
ATOM     16  C   UNL     1       6.527   3.311  15.104  0.00  0.00    +0.000 C 
BRANCH  16  17
ATOM     17  CA  UNL     1       6.325   4.211  13.871  0.00  0.00    +0.000 C 
BRANCH  17  18
ATOM     18  N   UNL     1       6.293   3.441  12.584  0.00  0.00    +0.000 NA
ATOM     19  H1  UNL     1       6.500   4.103  11.831  0.00  0.00    +0.000 HD
ATOM     20  H2  UNL     1       5.323   3.158  12.404  0.00  0.00    +0.000 HD
ENDBRANCH  17  18
BRANCH  17  21
ATOM     21  C   UNL     1       7.445   5.254  13.775  0.00  0.00    +0.000 C 
ATOM     22  O   UNL     1       7.999   5.616  12.750  0.00  0.00    +0.000 OA
BRANCH  21  23
ATOM     23  OXT UNL     1       7.772   5.733  15.005  0.00  0.00    +0.000 OA
ATOM     24  HXT UNL     1       7.024   6.311  15.296  0.00  0.00    +0.000 HD
ENDBRANCH  21  23
ENDBRANCH  17  21
ENDBRANCH  16  17
ENDBRANCH  12  16
ENDBRANCH   1  13
BRANCH  10  25
ATOM     25  N   UNL     1       4.279   2.422  19.511  0.00  0.00    +0.000 N 
ATOM     26  O   UNL     1       3.710   1.626  18.752  0.00  0.00    +0.000 OA
ATOM     27  O   UNL     1       5.027   2.141  20.454  0.00  0.00    +0.000 OA
ENDBRANCH  10  25
TORSDOF 7
ENDMDL
MODEL 2
REMARK VINA RESULT:      -6.8      3.402      6.608
REMARK  Name = 
REMARK  7 active torsions:
REMARK  status: ('A' for Active; 'I' for Inactive)
REMARK    1  A    between atoms: N_1  and  CA_2
REMARK    2  A    between atoms: CA_2  and  C_3
REMARK    3  A    between atoms: CA_2  and  C_20
REMARK    4  A    between atoms: C_3  and  N_4
REMARK    5  A    between atoms: C_5  and  C_7
REMARK    6  A    between atoms: C_16  and  N_17
REMARK    7  A    between atoms: C_20  and  OXT_22
REMARK                            x       y       z     vdW  Elec       q    Type
REMARK                         _______ _______ _______ _____ _____    ______ ____
ROOT
ATOM      1  C   UNL     1       3.763   3.864  17.268  0.00  0.00    +0.000 A 
ATOM      2  N   UNL     1       4.153   3.475  16.005  0.00  0.00    +0.000 N 
ATOM      3  C   UNL     1       5.294   4.128  15.607  0.00  0.00    +0.000 A 
ATOM      4  C   UNL     1       5.947   4.090  14.371  0.00  0.00    +0.000 A 
ATOM      5  C   UNL     1       7.094   4.866  14.213  0.00  0.00    +0.000 A 
ATOM      6  C   UNL     1       7.572   5.646  15.263  0.00  0.00    +0.000 A 
ATOM      7  C   UNL     1       6.912   5.666  16.502  0.00  0.00    +0.000 A 
ATOM      8 BR   UNL     1       7.609   6.815  17.836  0.00  0.00    +0.000 Br
ATOM      9  C   UNL     1       5.745   4.889  16.692  0.00  0.00    +0.000 A 
ATOM     10  C   UNL     1       4.801   4.655  17.751  0.00  0.00    +0.000 A 
ATOM     11  H   UNL     1       3.614   2.837  15.427  0.00  0.00    +0.000 HD
ENDROOT
BRANCH   1  13
ATOM     12  N   UNL     1       2.564   2.450  18.807  0.00  0.00    +0.000 N 
ATOM     13  C   UNL     1       2.508   3.390  17.802  0.00  0.00    +0.000 C 
ATOM     14  O   UNL     1       1.441   3.872  17.437  0.00  0.00    +0.000 OA
ATOM     15  H   UNL     1       3.459   2.116  19.156  0.00  0.00    +0.000 HD
BRANCH  12  16
ATOM     16  C   UNL     1       1.356   2.001  19.496  0.00  0.00    +0.000 C 
BRANCH  16  17
ATOM     17  CA  UNL     1       1.021   2.869  20.723  0.00  0.00    +0.000 C 
BRANCH  17  18
ATOM     18  N   UNL     1       0.348   4.160  20.361  0.00  0.00    +0.000 NA
ATOM     19  H1  UNL     1      -0.178   3.994  19.498  0.00  0.00    +0.000 HD
ATOM     20  H2  UNL     1       1.073   4.832  20.083  0.00  0.00    +0.000 HD
ENDBRANCH  17  18
BRANCH  17  21
ATOM     21  C   UNL     1       2.292   3.199  21.515  0.00  0.00    +0.000 C 
ATOM     22  O   UNL     1       3.009   2.395  22.085  0.00  0.00    +0.000 OA
BRANCH  21  23
ATOM     23  OXT UNL     1       2.526   4.540  21.523  0.00  0.00    +0.000 OA
ATOM     24  HXT UNL     1       2.906   4.759  22.409  0.00  0.00    +0.000 HD
ENDBRANCH  21  23
ENDBRANCH  17  21
ENDBRANCH  16  17
ENDBRANCH  12  16
ENDBRANCH   1  13
BRANCH  10  25
ATOM     25  N   UNL     1       4.890   5.146  19.091  0.00  0.00    +0.000 N 
ATOM     26  O   UNL     1       5.838   4.719  19.764  0.00  0.00    +0.000 OA
ATOM     27  O   UNL     1       4.065   6.001  19.431  0.00  0.00    +0.000 OA
ENDBRANCH  10  25
TORSDOF 7
ENDMDL
MODEL 3
REMARK VINA RESULT:      -6.8      0.658      1.130
REMARK  Name = 
REMARK  7 active torsions:
REMARK  status: ('A' for Active; 'I' for Inactive)
REMARK    1  A    between atoms: N_1  and  CA_2
REMARK    2  A    between atoms: CA_2  and  C_3
REMARK    3  A    between atoms: CA_2  and  C_20
REMARK    4  A    between atoms: C_3  and  N_4
REMARK    5  A    between atoms: C_5  and  C_7
REMARK    6  A    between atoms: C_16  and  N_17
REMARK    7  A    between atoms: C_20  and  OXT_22
REMARK                            x       y       z     vdW  Elec       q    Type
REMARK                         _______ _______ _______ _____ _____    ______ ____
ROOT
ATOM      1  C   UNL     1       5.050   4.685  18.473  0.00  0.00    +0.000 A 
ATOM      2  N   UNL     1       4.591   5.970  18.666  0.00  0.00    +0.000 N 
ATOM      3  C   UNL     1       3.430   5.986  19.397  0.00  0.00    +0.000 A 
ATOM      4  C   UNL     1       2.604   7.068  19.719  0.00  0.00    +0.000 A 
ATOM      5  C   UNL     1       1.458   6.815  20.471  0.00  0.00    +0.000 A 
ATOM      6  C   UNL     1       1.157   5.522  20.891  0.00  0.00    +0.000 A 
ATOM      7  C   UNL     1       2.000   4.447  20.570  0.00  0.00    +0.000 A 
ATOM      8 BR   UNL     1       1.458   2.722  21.133  0.00  0.00    +0.000 Br
ATOM      9  C   UNL     1       3.171   4.673  19.807  0.00  0.00    +0.000 A 
ATOM     10  C   UNL     1       4.242   3.880  19.269  0.00  0.00    +0.000 A 
ATOM     11  H   UNL     1       5.032   6.787  18.252  0.00  0.00    +0.000 HD
ENDROOT
BRANCH   1  13
ATOM     12  N   UNL     1       5.966   4.529  16.250  0.00  0.00    +0.000 N 
ATOM     13  C   UNL     1       6.184   4.458  17.608  0.00  0.00    +0.000 C 
ATOM     14  O   UNL     1       7.309   4.299  18.068  0.00  0.00    +0.000 OA
ATOM     15  H   UNL     1       5.042   4.741  15.882  0.00  0.00    +0.000 HD
BRANCH  12  16
ATOM     16  C   UNL     1       7.071   4.437  15.297  0.00  0.00    +0.000 C 
BRANCH  16  17
ATOM     17  CA  UNL     1       6.596   4.521  13.835  0.00  0.00    +0.000 C 
BRANCH  17  18
ATOM     18  N   UNL     1       6.207   3.186  13.269  0.00  0.00    +0.000 NA
ATOM     19  H1  UNL     1       6.325   3.244  12.253  0.00  0.00    +0.000 HD
ATOM     20  H2  UNL     1       5.195   3.068  13.394  0.00  0.00    +0.000 HD
ENDBRANCH  17  18
BRANCH  17  21
ATOM     21  C   UNL     1       7.692   5.116  12.943  0.00  0.00    +0.000 C 
ATOM     22  O   UNL     1       8.577   5.872  13.306  0.00  0.00    +0.000 OA
BRANCH  21  23
ATOM     23  OXT UNL     1       7.550   4.703  11.655  0.00  0.00    +0.000 OA
ATOM     24  HXT UNL     1       7.599   3.715  11.663  0.00  0.00    +0.000 HD
ENDBRANCH  21  23
ENDBRANCH  17  21
ENDBRANCH  16  17
ENDBRANCH  12  16
ENDBRANCH   1  13
BRANCH  10  25
ATOM     25  N   UNL     1       4.463   2.485  19.497  0.00  0.00    +0.000 N 
ATOM     26  O   UNL     1       5.153   2.199  20.486  0.00  0.00    +0.000 OA
ATOM     27  O   UNL     1       3.890   1.694  18.739  0.00  0.00    +0.000 OA
ENDBRANCH  10  25
TORSDOF 7
ENDMDL
MODEL 4
REMARK VINA RESULT:      -6.7      3.334      6.643
REMARK  Name = 
REMARK  7 active torsions:
REMARK  status: ('A' for Active; 'I' for Inactive)
REMARK    1  A    between atoms: N_1  and  CA_2
REMARK    2  A    between atoms: CA_2  and  C_3
REMARK    3  A    between atoms: CA_2  and  C_20
REMARK    4  A    between atoms: C_3  and  N_4
REMARK    5  A    between atoms: C_5  and  C_7
REMARK    6  A    between atoms: C_16  and  N_17
REMARK    7  A    between atoms: C_20  and  OXT_22
REMARK                            x       y       z     vdW  Elec       q    Type
REMARK                         _______ _______ _______ _____ _____    ______ ____
ROOT
ATOM      1  C   UNL     1       4.615   3.275  17.604  0.00  0.00    +0.000 A 
ATOM      2  N   UNL     1       4.959   2.886  16.327  0.00  0.00    +0.000 N 
ATOM      3  C   UNL     1       5.803   3.793  15.734  0.00  0.00    +0.000 A 
ATOM      4  C   UNL     1       6.295   3.816  14.425  0.00  0.00    +0.000 A 
ATOM      5  C   UNL     1       7.134   4.867  14.061  0.00  0.00    +0.000 A 
ATOM      6  C   UNL     1       7.473   5.856  14.981  0.00  0.00    +0.000 A 
ATOM      7  C   UNL     1       6.981   5.814  16.295  0.00  0.00    +0.000 A 
ATOM      8 BR   UNL     1       7.451   7.245  17.442  0.00  0.00    +0.000 Br
ATOM      9  C   UNL     1       6.126   4.759  16.695  0.00  0.00    +0.000 A 
ATOM     10  C   UNL     1       5.420   4.375  17.886  0.00  0.00    +0.000 A 
ATOM     11  H   UNL     1       4.572   2.064  15.872  0.00  0.00    +0.000 HD
ENDROOT
BRANCH   1  13
ATOM     12  N   UNL     1       2.465   3.173  18.686  0.00  0.00    +0.000 N 
ATOM     13  C   UNL     1       3.626   2.519  18.334  0.00  0.00    +0.000 C 
ATOM     14  O   UNL     1       3.775   1.322  18.551  0.00  0.00    +0.000 OA
ATOM     15  H   UNL     1       2.319   4.146  18.429  0.00  0.00    +0.000 HD
BRANCH  12  16
ATOM     16  C   UNL     1       1.354   2.463  19.315  0.00  0.00    +0.000 C 
BRANCH  16  17
ATOM     17  CA  UNL     1       0.930   3.099  20.652  0.00  0.00    +0.000 C 
BRANCH  17  18
ATOM     18  N   UNL     1       0.268   4.435  20.481  0.00  0.00    +0.000 NA
ATOM     19  H1  UNL     1      -0.426   4.334  19.735  0.00  0.00    +0.000 HD
ATOM     20  H2  UNL     1       0.958   5.087  20.091  0.00  0.00    +0.000 HD
ENDBRANCH  17  18
BRANCH  17  21
ATOM     21  C   UNL     1       2.143   3.283  21.572  0.00  0.00    +0.000 C 
ATOM     22  O   UNL     1       2.687   2.407  22.222  0.00  0.00    +0.000 OA
BRANCH  21  23
ATOM     23  OXT UNL     1       2.546   4.583  21.593  0.00  0.00    +0.000 OA
ATOM     24  HXT UNL     1       2.410   4.910  22.516  0.00  0.00    +0.000 HD
ENDBRANCH  21  23
ENDBRANCH  17  21
ENDBRANCH  16  17
ENDBRANCH  12  16
ENDBRANCH   1  13
BRANCH  10  25
ATOM     25  N   UNL     1       5.508   5.007  19.166  0.00  0.00    +0.000 N 
ATOM     26  O   UNL     1       4.473   5.553  19.574  0.00  0.00    +0.000 OA
ATOM     27  O   UNL     1       6.575   4.890  19.778  0.00  0.00    +0.000 OA
ENDBRANCH  10  25
TORSDOF 7
ENDMDL
MODEL 5
REMARK VINA RESULT:      -6.7      3.140      6.496
REMARK  Name = 
REMARK  7 active torsions:
REMARK  status: ('A' for Active; 'I' for Inactive)
REMARK    1  A    between atoms: N_1  and  CA_2
REMARK    2  A    between atoms: CA_2  and  C_3
REMARK    3  A    between atoms: CA_2  and  C_20
REMARK    4  A    between atoms: C_3  and  N_4
REMARK    5  A    between atoms: C_5  and  C_7
REMARK    6  A    between atoms: C_16  and  N_17
REMARK    7  A    between atoms: C_20  and  OXT_22
REMARK                            x       y       z     vdW  Elec       q    Type
REMARK                         _______ _______ _______ _____ _____    ______ ____
ROOT
ATOM      1  C   UNL     1       4.599   3.391  17.907  0.00  0.00    +0.000 A 
ATOM      2  N   UNL     1       4.856   2.917  16.639  0.00  0.00    +0.000 N 
ATOM      3  C   UNL     1       5.676   3.768  15.940  0.00  0.00    +0.000 A 
ATOM      4  C   UNL     1       6.086   3.701  14.604  0.00  0.00    +0.000 A 
ATOM      5  C   UNL     1       6.918   4.709  14.124  0.00  0.00    +0.000 A 
ATOM      6  C   UNL     1       7.330   5.746  14.958  0.00  0.00    +0.000 A 
ATOM      7  C   UNL     1       6.920   5.795  16.300  0.00  0.00    +0.000 A 
ATOM      8 BR   UNL     1       7.485   7.284  17.324  0.00  0.00    +0.000 Br
ATOM      9  C   UNL     1       6.075   4.785  16.817  0.00  0.00    +0.000 A 
ATOM     10  C   UNL     1       5.437   4.489  18.070  0.00  0.00    +0.000 A 
ATOM     11  H   UNL     1       4.428   2.077  16.261  0.00  0.00    +0.000 HD
ENDROOT
BRANCH   1  13
ATOM     12  N   UNL     1       3.669   2.981  20.092  0.00  0.00    +0.000 N 
ATOM     13  C   UNL     1       3.644   2.702  18.743  0.00  0.00    +0.000 C 
ATOM     14  O   UNL     1       2.789   1.970  18.258  0.00  0.00    +0.000 OA
ATOM     15  H   UNL     1       4.332   3.652  20.471  0.00  0.00    +0.000 HD
BRANCH  12  16
ATOM     16  C   UNL     1       2.665   2.432  21.000  0.00  0.00    +0.000 C 
BRANCH  16  17
ATOM     17  CA  UNL     1       1.381   3.281  21.042  0.00  0.00    +0.000 C 
BRANCH  17  18
ATOM     18  N   UNL     1       0.291   2.737  20.166  0.00  0.00    +0.000 NA
ATOM     19  H1  UNL     1       0.684   1.943  19.653  0.00  0.00    +0.000 HD
ATOM     20  H2  UNL     1       0.092   3.430  19.434  0.00  0.00    +0.000 HD
ENDBRANCH  17  18
BRANCH  17  21
ATOM     21  C   UNL     1       1.671   4.721  20.604  0.00  0.00    +0.000 C 
ATOM     22  O   UNL     1       1.321   5.233  19.554  0.00  0.00    +0.000 OA
BRANCH  21  23
ATOM     23  OXT UNL     1       2.403   5.378  21.544  0.00  0.00    +0.000 OA
ATOM     24  HXT UNL     1       2.971   4.703  21.989  0.00  0.00    +0.000 HD
ENDBRANCH  21  23
ENDBRANCH  17  21
ENDBRANCH  16  17
ENDBRANCH  12  16
ENDBRANCH   1  13
BRANCH  10  25
ATOM     25  N   UNL     1       5.615   5.197  19.300  0.00  0.00    +0.000 N 
ATOM     26  O   UNL     1       6.731   5.094  19.829  0.00  0.00    +0.000 OA
ATOM     27  O   UNL     1       4.676   5.901  19.685  0.00  0.00    +0.000 OA
ENDBRANCH  10  25
TORSDOF 7
ENDMDL
MODEL 6
REMARK VINA RESULT:      -6.6      4.633      7.069
REMARK  Name = 
REMARK  7 active torsions:
REMARK  status: ('A' for Active; 'I' for Inactive)
REMARK    1  A    between atoms: N_1  and  CA_2
REMARK    2  A    between atoms: CA_2  and  C_3
REMARK    3  A    between atoms: CA_2  and  C_20
REMARK    4  A    between atoms: C_3  and  N_4
REMARK    5  A    between atoms: C_5  and  C_7
REMARK    6  A    between atoms: C_16  and  N_17
REMARK    7  A    between atoms: C_20  and  OXT_22
REMARK                            x       y       z     vdW  Elec       q    Type
REMARK                         _______ _______ _______ _____ _____    ______ ____
ROOT
ATOM      1  C   UNL     1       1.735   7.998  20.000  0.00  0.00    +0.000 A 
ATOM      2  N   UNL     1       1.296   7.873  21.300  0.00  0.00    +0.000 N 
ATOM      3  C   UNL     1       0.581   8.974  21.699  0.00  0.00    +0.000 A 
ATOM      4  C   UNL     1       0.056   9.278  22.960  0.00  0.00    +0.000 A 
ATOM      5  C   UNL     1      -0.626  10.483  23.111  0.00  0.00    +0.000 A 
ATOM      6  C   UNL     1      -0.783  11.350  22.033  0.00  0.00    +0.000 A 
ATOM      7  C   UNL     1      -0.261  11.027  20.770  0.00  0.00    +0.000 A 
ATOM      8 BR   UNL     1      -0.473  12.309  19.392  0.00  0.00    +0.000 Br
ATOM      9  C   UNL     1       0.437   9.810  20.585  0.00  0.00    +0.000 A 
ATOM     10  C   UNL     1       1.115   9.143  19.508  0.00  0.00    +0.000 A 
ATOM     11  H   UNL     1       1.539   7.087  21.896  0.00  0.00    +0.000 HD
ENDROOT
BRANCH   1  13
ATOM     12  N   UNL     1       2.860   5.878  20.212  0.00  0.00    +0.000 N 
ATOM     13  C   UNL     1       2.622   7.001  19.450  0.00  0.00    +0.000 C 
ATOM     14  O   UNL     1       3.071   7.109  18.314  0.00  0.00    +0.000 OA
ATOM     15  H   UNL     1       2.417   5.764  21.120  0.00  0.00    +0.000 HD
BRANCH  12  16
ATOM     16  C   UNL     1       3.641   4.758  19.692  0.00  0.00    +0.000 C 
BRANCH  16  17
ATOM     17  CA  UNL     1       2.903   3.413  19.826  0.00  0.00    +0.000 C 
BRANCH  17  18
ATOM     18  N   UNL     1       2.163   3.025  18.579  0.00  0.00    +0.000 NA
ATOM     19  H1  UNL     1       2.584   2.156  18.237  0.00  0.00    +0.000 HD
ATOM     20  H2  UNL     1       2.384   3.711  17.849  0.00  0.00    +0.000 HD
ENDBRANCH  17  18
BRANCH  17  21
ATOM     21  C   UNL     1       1.896   3.461  20.982  0.00  0.00    +0.000 C 
ATOM     22  O   UNL     1       2.160   3.339  22.166  0.00  0.00    +0.000 OA
BRANCH  21  23
ATOM     23  OXT UNL     1       0.630   3.644  20.517  0.00  0.00    +0.000 OA
ATOM     24  HXT UNL     1       0.680   3.617  19.530  0.00  0.00    +0.000 HD
ENDBRANCH  21  23
ENDBRANCH  17  21
ENDBRANCH  16  17
ENDBRANCH  12  16
ENDBRANCH   1  13
BRANCH  10  25
ATOM     25  N   UNL     1       1.164   9.568  18.143  0.00  0.00    +0.000 N 
ATOM     26  O   UNL     1       2.218  10.110  17.782  0.00  0.00    +0.000 OA
ATOM     27  O   UNL     1       0.191   9.292  17.433  0.00  0.00    +0.000 OA
ENDBRANCH  10  25
TORSDOF 7
ENDMDL
MODEL 7
REMARK VINA RESULT:      -6.5      3.243      6.713
REMARK  Name = 
REMARK  7 active torsions:
REMARK  status: ('A' for Active; 'I' for Inactive)
REMARK    1  A    between atoms: N_1  and  CA_2
REMARK    2  A    between atoms: CA_2  and  C_3
REMARK    3  A    between atoms: CA_2  and  C_20
REMARK    4  A    between atoms: C_3  and  N_4
REMARK    5  A    between atoms: C_5  and  C_7
REMARK    6  A    between atoms: C_16  and  N_17
REMARK    7  A    between atoms: C_20  and  OXT_22
REMARK                            x       y       z     vdW  Elec       q    Type
REMARK                         _______ _______ _______ _____ _____    ______ ____
ROOT
ATOM      1  C   UNL     1       4.569   3.325  17.806  0.00  0.00    +0.000 A 
ATOM      2  N   UNL     1       4.865   2.890  16.532  0.00  0.00    +0.000 N 
ATOM      3  C   UNL     1       5.679   3.777  15.873  0.00  0.00    +0.000 A 
ATOM      4  C   UNL     1       6.119   3.753  14.546  0.00  0.00    +0.000 A 
ATOM      5  C   UNL     1       6.938   4.793  14.109  0.00  0.00    +0.000 A 
ATOM      6  C   UNL     1       7.307   5.817  14.978  0.00  0.00    +0.000 A 
ATOM      7  C   UNL     1       6.867   5.823  16.311  0.00  0.00    +0.000 A 
ATOM      8 BR   UNL     1       7.372   7.299  17.383  0.00  0.00    +0.000 Br
ATOM      9  C   UNL     1       6.034   4.780  16.783  0.00  0.00    +0.000 A 
ATOM     10  C   UNL     1       5.377   4.439  18.014  0.00  0.00    +0.000 A 
ATOM     11  H   UNL     1       4.466   2.050  16.124  0.00  0.00    +0.000 HD
ENDROOT
BRANCH   1  13
ATOM     12  N   UNL     1       3.757   2.650  19.971  0.00  0.00    +0.000 N 
ATOM     13  C   UNL     1       3.613   2.594  18.603  0.00  0.00    +0.000 C 
ATOM     14  O   UNL     1       2.660   2.022  18.084  0.00  0.00    +0.000 OA
ATOM     15  H   UNL     1       4.506   3.194  20.393  0.00  0.00    +0.000 HD
BRANCH  12  16
ATOM     16  C   UNL     1       2.770   2.048  20.865  0.00  0.00    +0.000 C 
BRANCH  16  17
ATOM     17  CA  UNL     1       1.959   3.101  21.642  0.00  0.00    +0.000 C 
BRANCH  17  18
ATOM     18  N   UNL     1       0.946   2.495  22.567  0.00  0.00    +0.000 NA
ATOM     19  H1  UNL     1       0.647   3.232  23.213  0.00  0.00    +0.000 HD
ATOM     20  H2  UNL     1       1.427   1.818  23.171  0.00  0.00    +0.000 HD
ENDBRANCH  17  18
BRANCH  17  21
ATOM     21  C   UNL     1       1.223   4.037  20.676  0.00  0.00    +0.000 C 
ATOM     22  O   UNL     1       1.281   5.255  20.676  0.00  0.00    +0.000 OA
BRANCH  21  23
ATOM     23  OXT UNL     1       0.458   3.329  19.801  0.00  0.00    +0.000 OA
ATOM     24  HXT UNL     1       0.693   2.377  19.920  0.00  0.00    +0.000 HD
ENDBRANCH  21  23
ENDBRANCH  17  21
ENDBRANCH  16  17
ENDBRANCH  12  16
ENDBRANCH   1  13
BRANCH  10  25
ATOM     25  N   UNL     1       5.511   5.119  19.265  0.00  0.00    +0.000 N 
ATOM     26  O   UNL     1       4.489   5.675  19.693  0.00  0.00    +0.000 OA
ATOM     27  O   UNL     1       6.602   5.031  19.839  0.00  0.00    +0.000 OA
ENDBRANCH  10  25
TORSDOF 7
ENDMDL
MODEL 8
REMARK VINA RESULT:      -6.4      4.470      7.607
REMARK  Name = 
REMARK  7 active torsions:
REMARK  status: ('A' for Active; 'I' for Inactive)
REMARK    1  A    between atoms: N_1  and  CA_2
REMARK    2  A    between atoms: CA_2  and  C_3
REMARK    3  A    between atoms: CA_2  and  C_20
REMARK    4  A    between atoms: C_3  and  N_4
REMARK    5  A    between atoms: C_5  and  C_7
REMARK    6  A    between atoms: C_16  and  N_17
REMARK    7  A    between atoms: C_20  and  OXT_22
REMARK                            x       y       z     vdW  Elec       q    Type
REMARK                         _______ _______ _______ _____ _____    ______ ____
ROOT
ATOM      1  C   UNL     1       2.654   6.856  18.957  0.00  0.00    +0.000 A 
ATOM      2  N   UNL     1       3.406   7.101  17.828  0.00  0.00    +0.000 N 
ATOM      3  C   UNL     1       4.005   5.956  17.364  0.00  0.00    +0.000 A 
ATOM      4  C   UNL     1       4.917   5.800  16.315  0.00  0.00    +0.000 A 
ATOM      5  C   UNL     1       5.395   4.518  16.049  0.00  0.00    +0.000 A 
ATOM      6  C   UNL     1       4.967   3.431  16.807  0.00  0.00    +0.000 A 
ATOM      7  C   UNL     1       4.043   3.600  17.849  0.00  0.00    +0.000 A 
ATOM      8 BR   UNL     1       3.582   2.065  18.857  0.00  0.00    +0.000 Br
ATOM      9  C   UNL     1       3.539   4.890  18.143  0.00  0.00    +0.000 A 
ATOM     10  C   UNL     1       2.637   5.472  19.098  0.00  0.00    +0.000 A 
ATOM     11  H   UNL     1       3.544   8.030  17.442  0.00  0.00    +0.000 HD
ENDROOT
BRANCH   1  13
ATOM     12  N   UNL     1       1.956   7.849  21.038  0.00  0.00    +0.000 N 
ATOM     13  C   UNL     1       2.061   7.963  19.669  0.00  0.00    +0.000 C 
ATOM     14  O   UNL     1       1.750   8.997  19.088  0.00  0.00    +0.000 OA
ATOM     15  H   UNL     1       2.292   7.017  21.517  0.00  0.00    +0.000 HD
BRANCH  12  16
ATOM     16  C   UNL     1       1.486   8.962  21.860  0.00  0.00    +0.000 C 
BRANCH  16  17
ATOM     17  CA  UNL     1      -0.049   9.082  21.868  0.00  0.00    +0.000 C 
BRANCH  17  18
ATOM     18  N   UNL     1      -0.584   9.827  20.680  0.00  0.00    +0.000 NA
ATOM     19  H1  UNL     1      -1.248  10.522  21.035  0.00  0.00    +0.000 HD
ATOM     20  H2  UNL     1      -1.169   9.182  20.135  0.00  0.00    +0.000 HD
ENDBRANCH  17  18
BRANCH  17  21
ATOM     21  C   UNL     1      -0.529   9.799  23.136  0.00  0.00    +0.000 C 
ATOM     22  O   UNL     1      -1.498  10.534  23.218  0.00  0.00    +0.000 OA
BRANCH  21  23
ATOM     23  OXT UNL     1       0.288   9.524  24.189  0.00  0.00    +0.000 OA
ATOM     24  HXT UNL     1      -0.296   9.358  24.969  0.00  0.00    +0.000 HD
ENDBRANCH  21  23
ENDBRANCH  17  21
ENDBRANCH  16  17
ENDBRANCH  12  16
ENDBRANCH   1  13
BRANCH  10  25
ATOM     25  N   UNL     1       1.840   4.766  20.053  0.00  0.00    +0.000 N 
ATOM     26  O   UNL     1       2.222   4.828  21.230  0.00  0.00    +0.000 OA
ATOM     27  O   UNL     1       0.811   4.223  19.636  0.00  0.00    +0.000 OA
ENDBRANCH  10  25
TORSDOF 7
ENDMDL
MODEL 9
REMARK VINA RESULT:      -6.4      1.591      1.906
REMARK  Name = 
REMARK  7 active torsions:
REMARK  status: ('A' for Active; 'I' for Inactive)
REMARK    1  A    between atoms: N_1  and  CA_2
REMARK    2  A    between atoms: CA_2  and  C_3
REMARK    3  A    between atoms: CA_2  and  C_20
REMARK    4  A    between atoms: C_3  and  N_4
REMARK    5  A    between atoms: C_5  and  C_7
REMARK    6  A    between atoms: C_16  and  N_17
REMARK    7  A    between atoms: C_20  and  OXT_22
REMARK                            x       y       z     vdW  Elec       q    Type
REMARK                         _______ _______ _______ _____ _____    ______ ____
ROOT
ATOM      1  C   UNL     1       4.102   5.953  17.343  0.00  0.00    +0.000 A 
ATOM      2  N   UNL     1       3.562   7.166  17.710  0.00  0.00    +0.000 N 
ATOM      3  C   UNL     1       2.794   7.054  18.842  0.00  0.00    +0.000 A 
ATOM      4  C   UNL     1       2.003   8.020  19.473  0.00  0.00    +0.000 A 
ATOM      5  C   UNL     1       1.300   7.646  20.616  0.00  0.00    +0.000 A 
ATOM      6  C   UNL     1       1.392   6.348  21.112  0.00  0.00    +0.000 A 
ATOM      7  C   UNL     1       2.198   5.391  20.476  0.00  0.00    +0.000 A 
ATOM      8 BR   UNL     1       2.197   3.640  21.197  0.00  0.00    +0.000 Br
ATOM      9  C   UNL     1       2.925   5.741  19.313  0.00  0.00    +0.000 A 
ATOM     10  C   UNL     1       3.808   5.084  18.390  0.00  0.00    +0.000 A 
ATOM     11  H   UNL     1       3.672   8.013  17.161  0.00  0.00    +0.000 HD
ENDROOT
BRANCH   1  13
ATOM     12  N   UNL     1       4.996   4.581  15.575  0.00  0.00    +0.000 N 
ATOM     13  C   UNL     1       4.826   5.844  16.098  0.00  0.00    +0.000 C 
ATOM     14  O   UNL     1       5.192   6.843  15.490  0.00  0.00    +0.000 OA
ATOM     15  H   UNL     1       4.616   3.767  16.050  0.00  0.00    +0.000 HD
BRANCH  12  16
ATOM     16  C   UNL     1       5.604   4.379  14.261  0.00  0.00    +0.000 C 
BRANCH  16  17
ATOM     17  CA  UNL     1       7.141   4.443  14.308  0.00  0.00    +0.000 C 
BRANCH  17  18
ATOM     18  N   UNL     1       7.658   5.323  15.408  0.00  0.00    +0.000 NA
ATOM     19  H1  UNL     1       7.332   4.922  16.293  0.00  0.00    +0.000 HD
ATOM     20  H2  UNL     1       7.172   6.225  15.352  0.00  0.00    +0.000 HD
ENDBRANCH  17  18
BRANCH  17  21
ATOM     21  C   UNL     1       7.701   4.964  12.979  0.00  0.00    +0.000 C 
ATOM     22  O   UNL     1       7.391   4.568  11.868  0.00  0.00    +0.000 OA
BRANCH  21  23
ATOM     23  OXT UNL     1       8.628   5.938  13.189  0.00  0.00    +0.000 OA
ATOM     24  HXT UNL     1       9.492   5.482  13.344  0.00  0.00    +0.000 HD
ENDBRANCH  21  23
ENDBRANCH  17  21
ENDBRANCH  16  17
ENDBRANCH  12  16
ENDBRANCH   1  13
BRANCH  10  25
ATOM     25  N   UNL     1       4.314   3.751  18.502  0.00  0.00    +0.000 N 
ATOM     26  O   UNL     1       5.240   3.588  19.310  0.00  0.00    +0.000 OA
ATOM     27  O   UNL     1       3.741   2.874  17.846  0.00  0.00    +0.000 OA
ENDBRANCH  10  25
TORSDOF 7
ENDMDL
