MODEL 1
REMARK VINA RESULT:      -8.3      0.000      0.000
REMARK  Name = 
REMARK  8 active torsions:
REMARK  status: ('A' for Active; 'I' for Inactive)
REMARK    1  A    between atoms: C_1  and  O_2
REMARK    2  A    between atoms: O_2  and  C_3
REMARK    3  A    between atoms: C_3  and  C_5
REMARK    4  A    between atoms: C_5  and  N_6
REMARK    5  A    between atoms: C_10  and  O_11
REMARK    6  A    between atoms: O_11  and  C_12
REMARK    7  A    between atoms: C_19  and  O_20
REMARK    8  A    between atoms: O_20  and  C_21
REMARK                            x       y       z     vdW  Elec       q    Type
REMARK                         _______ _______ _______ _____ _____    ______ ____
ROOT
ATOM      1  N   UNL     1       4.776   6.763  17.132  0.00  0.00    +0.000 NA
ATOM      2  C   UNL     1       5.278   6.340  18.451  0.00  0.00    +0.000 C 
ATOM      3  C   UNL     1       4.406   5.317  19.198  0.00  0.00    +0.000 A 
ATOM      4  C   UNL     1       4.948   3.982  19.248  0.00  0.00    +0.000 A 
ATOM      5  C   UNL     1       4.210   2.908  19.760  0.00  0.00    +0.000 A 
ATOM      6  C   UNL     1       2.890   3.189  20.116  0.00  0.00    +0.000 A 
ATOM      7  C   UNL     1       2.370   4.503  20.084  0.00  0.00    +0.000 A 
ATOM      8  C   UNL     1       3.091   5.653  19.755  0.00  0.00    +0.000 A 
ATOM      9  C   UNL     1       2.430   7.129  19.716  0.00  0.00    +0.000 A 
ATOM     10  C   UNL     1       2.636   7.591  18.288  0.00  0.00    +0.000 A 
ATOM     11  C   UNL     1       2.226   8.870  17.868  0.00  0.00    +0.000 A 
ATOM     12  C   UNL     1       1.563   9.525  18.784  0.00  0.00    +0.000 A 
ATOM     13  C   UNL     1       1.193   8.876  19.930  0.00  0.00    +0.000 A 
ATOM     14  C   UNL     1       1.642   7.825  20.760  0.00  0.00    +0.000 A 
ATOM     15  O   UNL     1       0.849   8.550  21.779  0.00  0.00    +0.000 OA
ATOM     16  C   UNL     1       0.099   9.806  21.329  0.00  0.00    +0.000 C 
ATOM     17  O   UNL     1      -0.130   9.338  20.075  0.00  0.00    +0.000 OA
ATOM     18  C   UNL     1       3.314   6.839  17.171  0.00  0.00    +0.000 C 
ATOM     19  O   UNL     1       1.028   4.534  20.331  0.00  0.00    +0.000 OA
ATOM     20  C   UNL     1       0.761   3.173  20.667  0.00  0.00    +0.000 C 
ATOM     21  O   UNL     1       1.922   2.314  20.547  0.00  0.00    +0.000 OA
ENDROOT
BRANCH   5  22
ATOM     22  O   UNL     1       4.925   1.738  19.820  0.00  0.00    +0.000 OA
ATOM     23  C   UNL     1       5.251   1.228  21.106  0.00  0.00    +0.000 C 
ENDBRANCH   5  22
BRANCH  12  24
ATOM     24  O   UNL     1       0.987  10.739  18.683  0.00  0.00    +0.000 OA
ATOM     25  C   UNL     1       1.814  11.850  18.598  0.00  0.00    +0.000 C 
ENDBRANCH  12  24
BRANCH   1  26
ATOM     26  C   UNL     1       5.240   5.926  15.950  0.00  0.00    +0.000 C 
BRANCH  26  27
ATOM     27  C   UNL     1       6.785   5.611  15.927  0.00  0.00    +0.000 C 
ATOM     28  O   UNL     1       7.697   6.388  16.192  0.00  0.00    +0.000 OA
BRANCH  27  30
ATOM     29  C   UNL     1       6.152   3.906  14.511  0.00  0.00    +0.000 C 
ATOM     30  O   UNL     1       7.081   4.337  15.531  0.00  0.00    +0.000 OA
ENDBRANCH  27  30
ENDBRANCH  26  27
ENDBRANCH   1  26
TORSDOF 5
ENDMDL
MODEL 2
REMARK VINA RESULT:      -7.6      1.633      4.953
REMARK  Name = 
REMARK  8 active torsions:
REMARK  status: ('A' for Active; 'I' for Inactive)
REMARK    1  A    between atoms: C_1  and  O_2
REMARK    2  A    between atoms: O_2  and  C_3
REMARK    3  A    between atoms: C_3  and  C_5
REMARK    4  A    between atoms: C_5  and  N_6
REMARK    5  A    between atoms: C_10  and  O_11
REMARK    6  A    between atoms: O_11  and  C_12
REMARK    7  A    between atoms: C_19  and  O_20
REMARK    8  A    between atoms: O_20  and  C_21
REMARK                            x       y       z     vdW  Elec       q    Type
REMARK                         _______ _______ _______ _____ _____    ______ ____
ROOT
ATOM      1  N   UNL     1       1.890   4.004  19.259  0.00  0.00    +0.000 NA
ATOM      2  C   UNL     1       1.964   4.203  17.801  0.00  0.00    +0.000 C 
ATOM      3  C   UNL     1       3.253   4.861  17.283  0.00  0.00    +0.000 A 
ATOM      4  C   UNL     1       4.150   3.972  16.588  0.00  0.00    +0.000 A 
ATOM      5  C   UNL     1       5.428   4.381  16.188  0.00  0.00    +0.000 A 
ATOM      6  C   UNL     1       5.815   5.658  16.596  0.00  0.00    +0.000 A 
ATOM      7  C   UNL     1       4.925   6.534  17.259  0.00  0.00    +0.000 A 
ATOM      8  C   UNL     1       3.582   6.268  17.538  0.00  0.00    +0.000 A 
ATOM      9  C   UNL     1       2.621   7.306  18.322  0.00  0.00    +0.000 A 
ATOM     10  C   UNL     1       2.171   6.541  19.550  0.00  0.00    +0.000 A 
ATOM     11  C   UNL     1       1.273   7.106  20.474  0.00  0.00    +0.000 A 
ATOM     12  C   UNL     1       0.991   8.357  20.219  0.00  0.00    +0.000 A 
ATOM     13  C   UNL     1       1.695   9.013  19.247  0.00  0.00    +0.000 A 
ATOM     14  C   UNL     1       2.360   8.736  18.032  0.00  0.00    +0.000 A 
ATOM     15  O   UNL     1       2.078  10.166  17.775  0.00  0.00    +0.000 OA
ATOM     16  C   UNL     1       1.367  10.956  18.876  0.00  0.00    +0.000 C 
ATOM     17  O   UNL     1       1.934  10.246  19.886  0.00  0.00    +0.000 OA
ATOM     18  C   UNL     1       2.537   5.130  19.935  0.00  0.00    +0.000 C 
ATOM     19  O   UNL     1       5.545   7.670  17.693  0.00  0.00    +0.000 OA
ATOM     20  C   UNL     1       6.849   7.524  17.132  0.00  0.00    +0.000 C 
ATOM     21  O   UNL     1       7.035   6.269  16.430  0.00  0.00    +0.000 OA
ENDROOT
BRANCH   5  22
ATOM     22  O   UNL     1       6.096   3.433  15.452  0.00  0.00    +0.000 OA
ATOM     23  C   UNL     1       6.296   3.692  14.070  0.00  0.00    +0.000 C 
ENDBRANCH   5  22
BRANCH  12  24
ATOM     24  O   UNL     1       0.219   9.197  20.937  0.00  0.00    +0.000 OA
ATOM     25  C   UNL     1      -0.446   8.687  22.044  0.00  0.00    +0.000 C 
ENDBRANCH  12  24
BRANCH   1  26
ATOM     26  C   UNL     1       2.436   2.682  19.772  0.00  0.00    +0.000 C 
BRANCH  26  27
ATOM     27  C   UNL     1       2.658   2.617  21.333  0.00  0.00    +0.000 C 
ATOM     28  O   UNL     1       1.870   2.973  22.202  0.00  0.00    +0.000 OA
BRANCH  27  30
ATOM     29  C   UNL     1       4.695   1.906  20.519  0.00  0.00    +0.000 C 
ATOM     30  O   UNL     1       3.887   2.139  21.695  0.00  0.00    +0.000 OA
ENDBRANCH  27  30
ENDBRANCH  26  27
ENDBRANCH   1  26
TORSDOF 5
ENDMDL
MODEL 3
REMARK VINA RESULT:      -7.6      0.554      1.084
REMARK  Name = 
REMARK  8 active torsions:
REMARK  status: ('A' for Active; 'I' for Inactive)
REMARK    1  A    between atoms: C_1  and  O_2
REMARK    2  A    between atoms: O_2  and  C_3
REMARK    3  A    between atoms: C_3  and  C_5
REMARK    4  A    between atoms: C_5  and  N_6
REMARK    5  A    between atoms: C_10  and  O_11
REMARK    6  A    between atoms: O_11  and  C_12
REMARK    7  A    between atoms: C_19  and  O_20
REMARK    8  A    between atoms: O_20  and  C_21
REMARK                            x       y       z     vdW  Elec       q    Type
REMARK                         _______ _______ _______ _____ _____    ______ ____
ROOT
ATOM      1  N   UNL     1       4.850   6.836  17.363  0.00  0.00    +0.000 NA
ATOM      2  C   UNL     1       5.257   6.379  18.702  0.00  0.00    +0.000 C 
ATOM      3  C   UNL     1       4.342   5.329  19.354  0.00  0.00    +0.000 A 
ATOM      4  C   UNL     1       4.890   3.996  19.405  0.00  0.00    +0.000 A 
ATOM      5  C   UNL     1       4.125   2.902  19.830  0.00  0.00    +0.000 A 
ATOM      6  C   UNL     1       2.781   3.165  20.096  0.00  0.00    +0.000 A 
ATOM      7  C   UNL     1       2.254   4.476  20.064  0.00  0.00    +0.000 A 
ATOM      8  C   UNL     1       2.987   5.640  19.822  0.00  0.00    +0.000 A 
ATOM      9  C   UNL     1       2.319   7.112  19.777  0.00  0.00    +0.000 A 
ATOM     10  C   UNL     1       2.624   7.617  18.383  0.00  0.00    +0.000 A 
ATOM     11  C   UNL     1       2.236   8.905  17.971  0.00  0.00    +0.000 A 
ATOM     12  C   UNL     1       1.502   9.529  18.855  0.00  0.00    +0.000 A 
ATOM     13  C   UNL     1       1.054   8.844  19.951  0.00  0.00    +0.000 A 
ATOM     14  C   UNL     1       1.450   7.772  20.781  0.00  0.00    +0.000 A 
ATOM     15  O   UNL     1       0.579   8.461  21.760  0.00  0.00    +0.000 OA
ATOM     16  C   UNL     1      -0.146   9.726  21.293  0.00  0.00    +0.000 C 
ATOM     17  O   UNL     1      -0.280   9.293  20.012  0.00  0.00    +0.000 OA
ATOM     18  C   UNL     1       3.388   6.903  17.297  0.00  0.00    +0.000 C 
ATOM     19  O   UNL     1       0.897   4.491  20.212  0.00  0.00    +0.000 OA
ATOM     20  C   UNL     1       0.618   3.119  20.489  0.00  0.00    +0.000 C 
ATOM     21  O   UNL     1       1.791   2.271  20.429  0.00  0.00    +0.000 OA
ENDROOT
BRANCH   5  22
ATOM     22  O   UNL     1       4.845   1.735  19.908  0.00  0.00    +0.000 OA
ATOM     23  C   UNL     1       5.172   1.247  21.202  0.00  0.00    +0.000 C 
ENDBRANCH   5  22
BRANCH  12  24
ATOM     24  O   UNL     1       0.924  10.742  18.747  0.00  0.00    +0.000 OA
ATOM     25  C   UNL     1       1.750  11.855  18.687  0.00  0.00    +0.000 C 
ENDBRANCH  12  24
BRANCH   1  26
ATOM     26  C   UNL     1       5.406   6.038  16.195  0.00  0.00    +0.000 C 
BRANCH  26  27
ATOM     27  C   UNL     1       6.929   5.649  16.323  0.00  0.00    +0.000 C 
ATOM     28  O   UNL     1       7.385   4.532  16.542  0.00  0.00    +0.000 OA
BRANCH  27  30
ATOM     29  C   UNL     1       7.885   7.409  17.465  0.00  0.00    +0.000 C 
ATOM     30  O   UNL     1       7.780   6.712  16.203  0.00  0.00    +0.000 OA
ENDBRANCH  27  30
ENDBRANCH  26  27
ENDBRANCH   1  26
TORSDOF 5
ENDMDL
MODEL 4
REMARK VINA RESULT:      -7.4      0.765      1.020
REMARK  Name = 
REMARK  8 active torsions:
REMARK  status: ('A' for Active; 'I' for Inactive)
REMARK    1  A    between atoms: C_1  and  O_2
REMARK    2  A    between atoms: O_2  and  C_3
REMARK    3  A    between atoms: C_3  and  C_5
REMARK    4  A    between atoms: C_5  and  N_6
REMARK    5  A    between atoms: C_10  and  O_11
REMARK    6  A    between atoms: O_11  and  C_12
REMARK    7  A    between atoms: C_19  and  O_20
REMARK    8  A    between atoms: O_20  and  C_21
REMARK                            x       y       z     vdW  Elec       q    Type
REMARK                         _______ _______ _______ _____ _____    ______ ____
ROOT
ATOM      1  N   UNL     1       4.787   6.834  17.182  0.00  0.00    +0.000 NA
ATOM      2  C   UNL     1       5.278   6.407  18.504  0.00  0.00    +0.000 C 
ATOM      3  C   UNL     1       4.406   5.373  19.235  0.00  0.00    +0.000 A 
ATOM      4  C   UNL     1       4.958   4.041  19.283  0.00  0.00    +0.000 A 
ATOM      5  C   UNL     1       4.223   2.958  19.780  0.00  0.00    +0.000 A 
ATOM      6  C   UNL     1       2.897   3.227  20.123  0.00  0.00    +0.000 A 
ATOM      7  C   UNL     1       2.367   4.537  20.093  0.00  0.00    +0.000 A 
ATOM      8  C   UNL     1       3.083   5.695  19.779  0.00  0.00    +0.000 A 
ATOM      9  C   UNL     1       2.410   7.166  19.743  0.00  0.00    +0.000 A 
ATOM     10  C   UNL     1       2.628   7.638  18.320  0.00  0.00    +0.000 A 
ATOM     11  C   UNL     1       2.213   8.916  17.903  0.00  0.00    +0.000 A 
ATOM     12  C   UNL     1       1.534   9.560  18.817  0.00  0.00    +0.000 A 
ATOM     13  C   UNL     1       1.157   8.901  19.954  0.00  0.00    +0.000 A 
ATOM     14  C   UNL     1       1.605   7.849  20.783  0.00  0.00    +0.000 A 
ATOM     15  O   UNL     1       0.796   8.561  21.797  0.00  0.00    +0.000 OA
ATOM     16  C   UNL     1       0.041   9.813  21.347  0.00  0.00    +0.000 C 
ATOM     17  O   UNL     1      -0.172   9.351  20.087  0.00  0.00    +0.000 OA
ATOM     18  C   UNL     1       3.324   6.899  17.206  0.00  0.00    +0.000 C 
ATOM     19  O   UNL     1       1.022   4.555  20.326  0.00  0.00    +0.000 OA
ATOM     20  C   UNL     1       0.763   3.190  20.651  0.00  0.00    +0.000 C 
ATOM     21  O   UNL     1       1.932   2.341  20.538  0.00  0.00    +0.000 OA
ENDROOT
BRANCH   5  22
ATOM     22  O   UNL     1       4.948   1.793  19.840  0.00  0.00    +0.000 OA
ATOM     23  C   UNL     1       5.239   1.263  21.126  0.00  0.00    +0.000 C 
ENDBRANCH   5  22
BRANCH  12  24
ATOM     24  O   UNL     1       0.949  10.771  18.717  0.00  0.00    +0.000 OA
ATOM     25  C   UNL     1       1.769  11.885  18.607  0.00  0.00    +0.000 C 
ENDBRANCH  12  24
BRANCH   1  26
ATOM     26  C   UNL     1       5.270   6.009  16.001  0.00  0.00    +0.000 C 
BRANCH  26  27
ATOM     27  C   UNL     1       4.926   4.472  16.080  0.00  0.00    +0.000 C 
ATOM     28  O   UNL     1       3.823   3.975  16.277  0.00  0.00    +0.000 OA
BRANCH  27  30
ATOM     29  C   UNL     1       7.231   4.433  16.034  0.00  0.00    +0.000 C 
ATOM     30  O   UNL     1       6.015   3.656  15.944  0.00  0.00    +0.000 OA
ENDBRANCH  27  30
ENDBRANCH  26  27
ENDBRANCH   1  26
TORSDOF 5
ENDMDL
MODEL 5
REMARK VINA RESULT:      -7.2      1.572      4.735
REMARK  Name = 
REMARK  8 active torsions:
REMARK  status: ('A' for Active; 'I' for Inactive)
REMARK    1  A    between atoms: C_1  and  O_2
REMARK    2  A    between atoms: O_2  and  C_3
REMARK    3  A    between atoms: C_3  and  C_5
REMARK    4  A    between atoms: C_5  and  N_6
REMARK    5  A    between atoms: C_10  and  O_11
REMARK    6  A    between atoms: O_11  and  C_12
REMARK    7  A    between atoms: C_19  and  O_20
REMARK    8  A    between atoms: O_20  and  C_21
REMARK                            x       y       z     vdW  Elec       q    Type
REMARK                         _______ _______ _______ _____ _____    ______ ____
ROOT
ATOM      1  N   UNL     1       1.785   4.523  19.670  0.00  0.00    +0.000 NA
ATOM      2  C   UNL     1       1.827   4.585  18.199  0.00  0.00    +0.000 C 
ATOM      3  C   UNL     1       3.112   5.173  17.594  0.00  0.00    +0.000 A 
ATOM      4  C   UNL     1       3.981   4.210  16.964  0.00  0.00    +0.000 A 
ATOM      5  C   UNL     1       5.254   4.562  16.500  0.00  0.00    +0.000 A 
ATOM      6  C   UNL     1       5.667   5.865  16.779  0.00  0.00    +0.000 A 
ATOM      7  C   UNL     1       4.804   6.811  17.378  0.00  0.00    +0.000 A 
ATOM      8  C   UNL     1       3.465   6.592  17.710  0.00  0.00    +0.000 A 
ATOM      9  C   UNL     1       2.536   7.713  18.415  0.00  0.00    +0.000 A 
ATOM     10  C   UNL     1       2.105   7.072  19.718  0.00  0.00    +0.000 A 
ATOM     11  C   UNL     1       1.236   7.733  20.606  0.00  0.00    +0.000 A 
ATOM     12  C   UNL     1       0.965   8.959  20.242  0.00  0.00    +0.000 A 
ATOM     13  C   UNL     1       1.655   9.512  19.198  0.00  0.00    +0.000 A 
ATOM     14  C   UNL     1       2.287   9.114  18.000  0.00  0.00    +0.000 A 
ATOM     15  O   UNL     1       2.017  10.518  17.617  0.00  0.00    +0.000 OA
ATOM     16  C   UNL     1       1.343  11.417  18.656  0.00  0.00    +0.000 C 
ATOM     17  O   UNL     1       1.925  10.795  19.715  0.00  0.00    +0.000 OA
ATOM     18  C   UNL     1       2.462   5.697  20.225  0.00  0.00    +0.000 C 
ATOM     19  O   UNL     1       5.449   7.973  17.691  0.00  0.00    +0.000 OA
ATOM     20  C   UNL     1       6.737   7.756  17.117  0.00  0.00    +0.000 C 
ATOM     21  O   UNL     1       6.891   6.440  16.530  0.00  0.00    +0.000 OA
ENDROOT
BRANCH   5  22
ATOM     22  O   UNL     1       5.892   3.540  15.841  0.00  0.00    +0.000 OA
ATOM     23  C   UNL     1       6.273   3.762  14.490  0.00  0.00    +0.000 C 
ENDBRANCH   5  22
BRANCH  12  24
ATOM     24  O   UNL     1       0.221   9.873  20.896  0.00  0.00    +0.000 OA
ATOM     25  C   UNL     1      -0.234   9.556  22.168  0.00  0.00    +0.000 C 
ENDBRANCH  12  24
BRANCH   1  26
ATOM     26  C   UNL     1       2.326   3.246  20.292  0.00  0.00    +0.000 C 
BRANCH  26  27
ATOM     27  C   UNL     1       2.369   2.002  19.322  0.00  0.00    +0.000 C 
ATOM     28  O   UNL     1       1.408   1.431  18.818  0.00  0.00    +0.000 OA
BRANCH  27  30
ATOM     29  C   UNL     1       4.569   2.146  19.998  0.00  0.00    +0.000 C 
ATOM     30  O   UNL     1       3.631   1.536  19.081  0.00  0.00    +0.000 OA
ENDBRANCH  27  30
ENDBRANCH  26  27
ENDBRANCH   1  26
TORSDOF 5
ENDMDL
MODEL 6
REMARK VINA RESULT:      -7.0      1.607      4.543
REMARK  Name = 
REMARK  8 active torsions:
REMARK  status: ('A' for Active; 'I' for Inactive)
REMARK    1  A    between atoms: C_1  and  O_2
REMARK    2  A    between atoms: O_2  and  C_3
REMARK    3  A    between atoms: C_3  and  C_5
REMARK    4  A    between atoms: C_5  and  N_6
REMARK    5  A    between atoms: C_10  and  O_11
REMARK    6  A    between atoms: O_11  and  C_12
REMARK    7  A    between atoms: C_19  and  O_20
REMARK    8  A    between atoms: O_20  and  C_21
REMARK                            x       y       z     vdW  Elec       q    Type
REMARK                         _______ _______ _______ _____ _____    ______ ____
ROOT
ATOM      1  N   UNL     1       2.025   4.203  19.525  0.00  0.00    +0.000 NA
ATOM      2  C   UNL     1       2.052   4.314  18.057  0.00  0.00    +0.000 C 
ATOM      3  C   UNL     1       3.303   4.979  17.462  0.00  0.00    +0.000 A 
ATOM      4  C   UNL     1       4.211   4.078  16.796  0.00  0.00    +0.000 A 
ATOM      5  C   UNL     1       5.463   4.502  16.335  0.00  0.00    +0.000 A 
ATOM      6  C   UNL     1       5.817   5.814  16.652  0.00  0.00    +0.000 A 
ATOM      7  C   UNL     1       4.917   6.700  17.287  0.00  0.00    +0.000 A 
ATOM      8  C   UNL     1       3.592   6.409  17.621  0.00  0.00    +0.000 A 
ATOM      9  C   UNL     1       2.617   7.462  18.368  0.00  0.00    +0.000 A 
ATOM     10  C   UNL     1       2.227   6.762  19.652  0.00  0.00    +0.000 A 
ATOM     11  C   UNL     1       1.336   7.353  20.566  0.00  0.00    +0.000 A 
ATOM     12  C   UNL     1       1.006   8.577  20.244  0.00  0.00    +0.000 A 
ATOM     13  C   UNL     1       1.661   9.194  19.213  0.00  0.00    +0.000 A 
ATOM     14  C   UNL     1       2.301   8.863  17.999  0.00  0.00    +0.000 A 
ATOM     15  O   UNL     1       1.964  10.264  17.663  0.00  0.00    +0.000 OA
ATOM     16  C   UNL     1       1.257  11.098  18.734  0.00  0.00    +0.000 C 
ATOM     17  O   UNL     1       1.875  10.471  19.768  0.00  0.00    +0.000 OA
ATOM     18  C   UNL     1       2.651   5.389  20.112  0.00  0.00    +0.000 C 
ATOM     19  O   UNL     1       5.510   7.880  17.632  0.00  0.00    +0.000 OA
ATOM     20  C   UNL     1       6.802   7.741  17.043  0.00  0.00    +0.000 C 
ATOM     21  O   UNL     1       7.011   6.452  16.414  0.00  0.00    +0.000 OA
ENDROOT
BRANCH   5  22
ATOM     22  O   UNL     1       6.142   3.533  15.639  0.00  0.00    +0.000 OA
ATOM     23  C   UNL     1       6.313   3.721  14.241  0.00  0.00    +0.000 C 
ENDBRANCH   5  22
BRANCH  12  24
ATOM     24  O   UNL     1       0.225   9.434  20.932  0.00  0.00    +0.000 OA
ATOM     25  C   UNL     1      -0.214   9.051  22.191  0.00  0.00    +0.000 C 
ENDBRANCH  12  24
BRANCH   1  26
ATOM     26  C   UNL     1       2.629   2.934  20.103  0.00  0.00    +0.000 C 
BRANCH  26  27
ATOM     27  C   UNL     1       4.184   2.780  19.884  0.00  0.00    +0.000 C 
ATOM     28  O   UNL     1       5.038   3.643  20.057  0.00  0.00    +0.000 OA
BRANCH  27  30
ATOM     29  C   UNL     1       3.613   1.087  18.427  0.00  0.00    +0.000 C 
ATOM     30  O   UNL     1       4.556   1.549  19.421  0.00  0.00    +0.000 OA
ENDBRANCH  27  30
ENDBRANCH  26  27
ENDBRANCH   1  26
TORSDOF 5
ENDMDL
MODEL 7
REMARK VINA RESULT:      -6.6      1.368      5.981
REMARK  Name = 
REMARK  8 active torsions:
REMARK  status: ('A' for Active; 'I' for Inactive)
REMARK    1  A    between atoms: C_1  and  O_2
REMARK    2  A    between atoms: O_2  and  C_3
REMARK    3  A    between atoms: C_3  and  C_5
REMARK    4  A    between atoms: C_5  and  N_6
REMARK    5  A    between atoms: C_10  and  O_11
REMARK    6  A    between atoms: O_11  and  C_12
REMARK    7  A    between atoms: C_19  and  O_20
REMARK    8  A    between atoms: O_20  and  C_21
REMARK                            x       y       z     vdW  Elec       q    Type
REMARK                         _______ _______ _______ _____ _____    ______ ____
ROOT
ATOM      1  N   UNL     1       4.885   6.618  17.479  0.00  0.00    +0.000 NA
ATOM      2  C   UNL     1       3.493   6.855  17.061  0.00  0.00    +0.000 C 
ATOM      3  C   UNL     1       2.606   7.587  18.082  0.00  0.00    +0.000 A 
ATOM      4  C   UNL     1       2.293   8.953  17.744  0.00  0.00    +0.000 A 
ATOM      5  C   UNL     1       1.623   9.797  18.638  0.00  0.00    +0.000 A 
ATOM      6  C   UNL     1       1.377   9.270  19.906  0.00  0.00    +0.000 A 
ATOM      7  C   UNL     1       1.668   7.924  20.227  0.00  0.00    +0.000 A 
ATOM      8  C   UNL     1       2.172   6.970  19.340  0.00  0.00    +0.000 A 
ATOM      9  C   UNL     1       2.504   5.448  19.776  0.00  0.00    +0.000 A 
ATOM     10  C   UNL     1       3.983   5.293  19.487  0.00  0.00    +0.000 A 
ATOM     11  C   UNL     1       4.645   4.070  19.699  0.00  0.00    +0.000 A 
ATOM     12  C   UNL     1       3.889   3.168  20.270  0.00  0.00    +0.000 A 
ATOM     13  C   UNL     1       2.660   3.534  20.746  0.00  0.00    +0.000 A 
ATOM     14  C   UNL     1       1.635   4.465  20.466  0.00  0.00    +0.000 A 
ATOM     15  O   UNL     1       0.798   3.458  21.156  0.00  0.00    +0.000 OA
ATOM     16  C   UNL     1       1.497   2.214  21.707  0.00  0.00    +0.000 C 
ATOM     17  O   UNL     1       2.654   2.870  21.988  0.00  0.00    +0.000 OA
ATOM     18  C   UNL     1       4.918   6.328  18.914  0.00  0.00    +0.000 C 
ATOM     19  O   UNL     1       1.483   7.657  21.552  0.00  0.00    +0.000 OA
ATOM     20  C   UNL     1       0.916   8.880  22.021  0.00  0.00    +0.000 C 
ATOM     21  O   UNL     1       0.832   9.903  20.998  0.00  0.00    +0.000 OA
ENDROOT
BRANCH   5  22
ATOM     22  O   UNL     1       1.324  11.026  18.103  0.00  0.00    +0.000 OA
ATOM     23  C   UNL     1       2.159  12.120  18.456  0.00  0.00    +0.000 C 
ENDBRANCH   5  22
BRANCH  12  24
ATOM     24  O   UNL     1       4.232   1.924  20.660  0.00  0.00    +0.000 OA
ATOM     25  C   UNL     1       4.710   1.046  19.697  0.00  0.00    +0.000 C 
ENDBRANCH  12  24
BRANCH   1  26
ATOM     26  C   UNL     1       5.875   7.716  17.129  0.00  0.00    +0.000 C 
BRANCH  26  27
ATOM     27  C   UNL     1       7.387   7.264  17.107  0.00  0.00    +0.000 C 
ATOM     28  O   UNL     1       7.917   6.515  16.295  0.00  0.00    +0.000 OA
BRANCH  27  30
ATOM     29  C   UNL     1       8.239   9.200  18.026  0.00  0.00    +0.000 C 
ATOM     30  O   UNL     1       8.125   7.763  18.144  0.00  0.00    +0.000 OA
ENDBRANCH  27  30
ENDBRANCH  26  27
ENDBRANCH   1  26
TORSDOF 5
ENDMDL
MODEL 8
REMARK VINA RESULT:      -6.6      6.638     10.045
REMARK  Name = 
REMARK  8 active torsions:
REMARK  status: ('A' for Active; 'I' for Inactive)
REMARK    1  A    between atoms: C_1  and  O_2
REMARK    2  A    between atoms: O_2  and  C_3
REMARK    3  A    between atoms: C_3  and  C_5
REMARK    4  A    between atoms: C_5  and  N_6
REMARK    5  A    between atoms: C_10  and  O_11
REMARK    6  A    between atoms: O_11  and  C_12
REMARK    7  A    between atoms: C_19  and  O_20
REMARK    8  A    between atoms: O_20  and  C_21
REMARK                            x       y       z     vdW  Elec       q    Type
REMARK                         _______ _______ _______ _____ _____    ______ ____
ROOT
ATOM      1  N   UNL     1      -0.172  12.329  19.678  0.00  0.00    +0.000 NA
ATOM      2  C   UNL     1      -0.592  13.673  20.108  0.00  0.00    +0.000 C 
ATOM      3  C   UNL     1      -1.558  13.718  21.303  0.00  0.00    +0.000 A 
ATOM      4  C   UNL     1      -0.973  14.177  22.538  0.00  0.00    +0.000 A 
ATOM      5  C   UNL     1      -1.679  14.134  23.747  0.00  0.00    +0.000 A 
ATOM      6  C   UNL     1      -2.933  13.525  23.699  0.00  0.00    +0.000 A 
ATOM      7  C   UNL     1      -3.511  13.096  22.483  0.00  0.00    +0.000 A 
ATOM      8  C   UNL     1      -2.950  13.262  21.215  0.00  0.00    +0.000 A 
ATOM      9  C   UNL     1      -3.654  12.727  19.860  0.00  0.00    +0.000 A 
ATOM     10  C   UNL     1      -2.645  11.761  19.274  0.00  0.00    +0.000 A 
ATOM     11  C   UNL     1      -2.882  11.112  18.048  0.00  0.00    +0.000 A 
ATOM     12  C   UNL     1      -4.077  11.338  17.569  0.00  0.00    +0.000 A 
ATOM     13  C   UNL     1      -4.993  11.992  18.346  0.00  0.00    +0.000 A 
ATOM     14  C   UNL     1      -5.032  12.965  19.369  0.00  0.00    +0.000 A 
ATOM     15  O   UNL     1      -6.401  13.179  18.849  0.00  0.00    +0.000 OA
ATOM     16  C   UNL     1      -6.867  12.287  17.696  0.00  0.00    +0.000 C 
ATOM     17  O   UNL     1      -6.142  11.213  18.106  0.00  0.00    +0.000 OA
ATOM     18  C   UNL     1      -1.292  11.398  19.832  0.00  0.00    +0.000 C 
ATOM     19  O   UNL     1      -4.671  12.403  22.678  0.00  0.00    +0.000 OA
ATOM     20  C   UNL     1      -4.866  12.550  24.084  0.00  0.00    +0.000 C 
ATOM     21  O   UNL     1      -3.789  13.261  24.742  0.00  0.00    +0.000 OA
ENDROOT
BRANCH   5  22
ATOM     22  O   UNL     1      -0.997  14.706  24.793  0.00  0.00    +0.000 OA
ATOM     23  C   UNL     1      -1.585  15.834  25.425  0.00  0.00    +0.000 C 
ENDBRANCH   5  22
BRANCH  12  24
ATOM     24  O   UNL     1      -4.635  10.823  16.455  0.00  0.00    +0.000 OA
ATOM     25  C   UNL     1      -3.804  10.530  15.384  0.00  0.00    +0.000 C 
ENDBRANCH  12  24
BRANCH   1  26
ATOM     26  C   UNL     1       1.078  11.782  20.348  0.00  0.00    +0.000 C 
BRANCH  26  27
ATOM     27  C   UNL     1       0.826  10.589  21.349  0.00  0.00    +0.000 C 
ATOM     28  O   UNL     1       0.958   9.393  21.113  0.00  0.00    +0.000 OA
BRANCH  27  30
ATOM     29  C   UNL     1      -0.677  10.118  23.032  0.00  0.00    +0.000 C 
ATOM     30  O   UNL     1       0.385  10.988  22.580  0.00  0.00    +0.000 OA
ENDBRANCH  27  30
ENDBRANCH  26  27
ENDBRANCH   1  26
TORSDOF 5
ENDMDL
MODEL 9
REMARK VINA RESULT:      -6.5      4.899      8.436
REMARK  Name = 
REMARK  8 active torsions:
REMARK  status: ('A' for Active; 'I' for Inactive)
REMARK    1  A    between atoms: C_1  and  O_2
REMARK    2  A    between atoms: O_2  and  C_3
REMARK    3  A    between atoms: C_3  and  C_5
REMARK    4  A    between atoms: C_5  and  N_6
REMARK    5  A    between atoms: C_10  and  O_11
REMARK    6  A    between atoms: O_11  and  C_12
REMARK    7  A    between atoms: C_19  and  O_20
REMARK    8  A    between atoms: O_20  and  C_21
REMARK                            x       y       z     vdW  Elec       q    Type
REMARK                         _______ _______ _______ _____ _____    ______ ____
ROOT
ATOM      1  N   UNL     1      -2.301  12.125  18.249  0.00  0.00    +0.000 NA
ATOM      2  C   UNL     1      -0.835  12.249  18.336  0.00  0.00    +0.000 C 
ATOM      3  C   UNL     1      -0.162  11.423  19.444  0.00  0.00    +0.000 A 
ATOM      4  C   UNL     1       0.579  10.277  18.980  0.00  0.00    +0.000 A 
ATOM      5  C   UNL     1       1.123   9.343  19.870  0.00  0.00    +0.000 A 
ATOM      6  C   UNL     1       0.814   9.533  21.218  0.00  0.00    +0.000 A 
ATOM      7  C   UNL     1       0.105  10.669  21.670  0.00  0.00    +0.000 A 
ATOM      8  C   UNL     1      -0.319  11.733  20.870  0.00  0.00    +0.000 A 
ATOM      9  C   UNL     1      -1.148  12.997  21.447  0.00  0.00    +0.000 A 
ATOM     10  C   UNL     1      -2.447  12.975  20.670  0.00  0.00    +0.000 A 
ATOM     11  C   UNL     1      -3.430  13.963  20.862  0.00  0.00    +0.000 A 
ATOM     12  C   UNL     1      -3.149  14.785  21.839  0.00  0.00    +0.000 A 
ATOM     13  C   UNL     1      -2.083  14.514  22.652  0.00  0.00    +0.000 A 
ATOM     14  C   UNL     1      -0.821  13.882  22.590  0.00  0.00    +0.000 A 
ATOM     15  O   UNL     1      -0.529  14.784  23.726  0.00  0.00    +0.000 OA
ATOM     16  C   UNL     1      -1.659  15.692  24.217  0.00  0.00    +0.000 C 
ATOM     17  O   UNL     1      -2.638  14.800  23.914  0.00  0.00    +0.000 OA
ATOM     18  C   UNL     1      -2.857  11.997  19.597  0.00  0.00    +0.000 C 
ATOM     19  O   UNL     1      -0.213  10.586  22.995  0.00  0.00    +0.000 OA
ATOM     20  C   UNL     1       0.468   9.395  23.385  0.00  0.00    +0.000 C 
ATOM     21  O   UNL     1       1.128   8.723  22.283  0.00  0.00    +0.000 OA
ENDROOT
BRANCH   5  22
ATOM     22  O   UNL     1       1.878   8.378  19.250  0.00  0.00    +0.000 OA
ATOM     23  C   UNL     1       2.145   8.540  17.864  0.00  0.00    +0.000 C 
ENDBRANCH   5  22
BRANCH  12  24
ATOM     24  O   UNL     1      -3.902  15.797  22.315  0.00  0.00    +0.000 OA
ATOM     25  C   UNL     1      -4.962  16.243  21.539  0.00  0.00    +0.000 C 
ENDBRANCH  12  24
BRANCH   1  26
ATOM     26  C   UNL     1      -2.816  11.016  17.347  0.00  0.00    +0.000 C 
BRANCH  26  27
ATOM     27  C   UNL     1      -4.098  11.388  16.506  0.00  0.00    +0.000 C 
ATOM     28  O   UNL     1      -5.059  12.048  16.885  0.00  0.00    +0.000 OA
BRANCH  27  30
ATOM     29  C   UNL     1      -2.889  10.105  15.020  0.00  0.00    +0.000 C 
ATOM     30  O   UNL     1      -4.099  10.864  15.243  0.00  0.00    +0.000 OA
ENDBRANCH  27  30
ENDBRANCH  26  27
ENDBRANCH   1  26
TORSDOF 5
ENDMDL
