MODEL 1
REMARK VINA RESULT:      -7.4      0.000      0.000
REMARK  Name = 
REMARK  5 active torsions:
REMARK  status: ('A' for Active; 'I' for Inactive)
REMARK    1  A    between atoms: C_2  and  C_3
REMARK    2  A    between atoms: C_2  and  N_18
REMARK    3  A    between atoms: C_7  and  O_8
REMARK    4  A    between atoms: O_8  and  C_9
REMARK    5  A    between atoms: C_9  and  C_10
REMARK                            x       y       z     vdW  Elec       q    Type
REMARK                         _______ _______ _______ _____ _____    ______ ____
ROOT
ATOM      1  C   UNL     1       3.771   4.079  17.795  0.00  0.00    +0.000 A 
ATOM      2  C   UNL     1       4.594   3.962  16.666  0.00  0.00    +0.000 A 
ATOM      3  C   UNL     1       5.135   5.098  16.070  0.00  0.00    +0.000 A 
ATOM      4  C   UNL     1       4.838   6.360  16.579  0.00  0.00    +0.000 A 
ATOM      5  C   UNL     1       3.972   6.496  17.669  0.00  0.00    +0.000 A 
ATOM      6  C   UNL     1       3.463   5.353  18.296  0.00  0.00    +0.000 A 
ENDROOT
BRANCH   1   8
ATOM      7  C   UNL     1       3.419   1.718  17.708  0.00  0.00    +0.000 C 
ATOM      8  C   UNL     1       3.243   2.848  18.419  0.00  0.00    +0.000 C 
BRANCH   8   9
ATOM      9  N   UNL     1       2.663   2.896  19.707  0.00  0.00    +0.000 N 
ATOM     10  C   UNL     1       1.328   3.053  20.041  0.00  0.00    +0.000 A 
ATOM     11  C   UNL     1       1.254   2.978  21.411  0.00  0.00    +0.000 A 
ATOM     12  N   UNL     1       2.492   2.807  21.954  0.00  0.00    +0.000 NA
ATOM     13  C   UNL     1       3.311   2.774  20.926  0.00  0.00    +0.000 A 
ENDBRANCH   8   9
ENDBRANCH   1   8
BRANCH   5  14
ATOM     14  O   UNL     1       3.567   7.697  18.195  0.00  0.00    +0.000 OA
BRANCH  14  15
ATOM     15  C   UNL     1       2.217   8.063  17.891  0.00  0.00    +0.000 C 
BRANCH  15  16
ATOM     16  C   UNL     1       1.548   8.605  19.133  0.00  0.00    +0.000 A 
ATOM     17  C   UNL     1       1.696   7.955  20.367  0.00  0.00    +0.000 A 
ATOM     18  C   UNL     1       1.085   8.473  21.512  0.00  0.00    +0.000 A 
ATOM     19  C   UNL     1       0.324   9.638  21.428  0.00  0.00    +0.000 A 
ATOM     20 CL   UNL     1      -0.431  10.270  22.838  0.00  0.00    +0.000 Cl
ATOM     21  C   UNL     1       0.171  10.294  20.210  0.00  0.00    +0.000 A 
ATOM     22  C   UNL     1       0.781   9.779  19.066  0.00  0.00    +0.000 A 
ENDBRANCH  15  16
ENDBRANCH  14  15
ENDBRANCH   5  14
TORSDOF 5
ENDMDL
MODEL 2
REMARK VINA RESULT:      -7.4      0.211      1.053
REMARK  Name = 
REMARK  5 active torsions:
REMARK  status: ('A' for Active; 'I' for Inactive)
REMARK    1  A    between atoms: C_2  and  C_3
REMARK    2  A    between atoms: C_2  and  N_18
REMARK    3  A    between atoms: C_7  and  O_8
REMARK    4  A    between atoms: O_8  and  C_9
REMARK    5  A    between atoms: C_9  and  C_10
REMARK                            x       y       z     vdW  Elec       q    Type
REMARK                         _______ _______ _______ _____ _____    ______ ____
ROOT
ATOM      1  C   UNL     1       3.871   4.044  17.706  0.00  0.00    +0.000 A 
ATOM      2  C   UNL     1       4.620   3.917  16.529  0.00  0.00    +0.000 A 
ATOM      3  C   UNL     1       5.140   5.046  15.901  0.00  0.00    +0.000 A 
ATOM      4  C   UNL     1       4.892   6.311  16.428  0.00  0.00    +0.000 A 
ATOM      5  C   UNL     1       4.096   6.458  17.569  0.00  0.00    +0.000 A 
ATOM      6  C   UNL     1       3.612   5.321  18.225  0.00  0.00    +0.000 A 
ENDROOT
BRANCH   1   8
ATOM      7  C   UNL     1       3.642   1.666  17.723  0.00  0.00    +0.000 C 
ATOM      8  C   UNL     1       3.364   2.820  18.361  0.00  0.00    +0.000 C 
BRANCH   8   9
ATOM      9  N   UNL     1       2.701   2.902  19.606  0.00  0.00    +0.000 N 
ATOM     10  C   UNL     1       1.345   3.038  19.848  0.00  0.00    +0.000 A 
ATOM     11  C   UNL     1       1.183   3.012  21.212  0.00  0.00    +0.000 A 
ATOM     12  N   UNL     1       2.388   2.893  21.839  0.00  0.00    +0.000 NA
ATOM     13  C   UNL     1       3.272   2.842  20.868  0.00  0.00    +0.000 A 
ENDBRANCH   8   9
ENDBRANCH   1   8
BRANCH   5  14
ATOM     14  O   UNL     1       3.741   7.664  18.119  0.00  0.00    +0.000 OA
BRANCH  14  15
ATOM     15  C   UNL     1       2.446   8.140  17.742  0.00  0.00    +0.000 C 
BRANCH  15  16
ATOM     16  C   UNL     1       1.697   8.599  18.972  0.00  0.00    +0.000 A 
ATOM     17  C   UNL     1       0.864   9.726  18.923  0.00  0.00    +0.000 A 
ATOM     18  C   UNL     1       0.166  10.134  20.063  0.00  0.00    +0.000 A 
ATOM     19  C   UNL     1       0.299   9.420  21.252  0.00  0.00    +0.000 A 
ATOM     20 CL   UNL     1      -0.558   9.927  22.655  0.00  0.00    +0.000 Cl
ATOM     21  C   UNL     1       1.122   8.298  21.314  0.00  0.00    +0.000 A 
ATOM     22  C   UNL     1       1.819   7.889  20.176  0.00  0.00    +0.000 A 
ENDBRANCH  15  16
ENDBRANCH  14  15
ENDBRANCH   5  14
TORSDOF 5
ENDMDL
MODEL 3
REMARK VINA RESULT:      -7.2      1.195      1.696
REMARK  Name = 
REMARK  5 active torsions:
REMARK  status: ('A' for Active; 'I' for Inactive)
REMARK    1  A    between atoms: C_2  and  C_3
REMARK    2  A    between atoms: C_2  and  N_18
REMARK    3  A    between atoms: C_7  and  O_8
REMARK    4  A    between atoms: O_8  and  C_9
REMARK    5  A    between atoms: C_9  and  C_10
REMARK                            x       y       z     vdW  Elec       q    Type
REMARK                         _______ _______ _______ _____ _____    ______ ____
ROOT
ATOM      1  C   UNL     1       3.253   4.549  17.926  0.00  0.00    +0.000 A 
ATOM      2  C   UNL     1       4.368   4.507  17.077  0.00  0.00    +0.000 A 
ATOM      3  C   UNL     1       4.978   5.687  16.660  0.00  0.00    +0.000 A 
ATOM      4  C   UNL     1       4.464   6.917  17.064  0.00  0.00    +0.000 A 
ATOM      5  C   UNL     1       3.318   6.976  17.864  0.00  0.00    +0.000 A 
ATOM      6  C   UNL     1       2.731   5.790  18.319  0.00  0.00    +0.000 A 
ENDROOT
BRANCH   1   8
ATOM      7  C   UNL     1       2.492   2.343  17.413  0.00  0.00    +0.000 C 
ATOM      8  C   UNL     1       2.654   3.274  18.373  0.00  0.00    +0.000 C 
BRANCH   8   9
ATOM      9  N   UNL     1       2.354   3.070  19.739  0.00  0.00    +0.000 N 
ATOM     10  C   UNL     1       1.116   3.104  20.359  0.00  0.00    +0.000 A 
ATOM     11  C   UNL     1       1.329   2.787  21.679  0.00  0.00    +0.000 A 
ATOM     12  N   UNL     1       2.655   2.582  21.919  0.00  0.00    +0.000 NA
ATOM     13  C   UNL     1       3.242   2.767  20.759  0.00  0.00    +0.000 A 
ENDBRANCH   8   9
ENDBRANCH   1   8
BRANCH   5  14
ATOM     14  O   UNL     1       2.701   8.137  18.254  0.00  0.00    +0.000 OA
BRANCH  14  15
ATOM     15  C   UNL     1       2.013   8.062  19.507  0.00  0.00    +0.000 C 
BRANCH  15  16
ATOM     16  C   UNL     1       1.001   9.180  19.596  0.00  0.00    +0.000 A 
ATOM     17  C   UNL     1       0.541   9.823  18.438  0.00  0.00    +0.000 A 
ATOM     18  C   UNL     1      -0.405  10.847  18.530  0.00  0.00    +0.000 A 
ATOM     19  C   UNL     1      -0.893  11.232  19.777  0.00  0.00    +0.000 A 
ATOM     20 CL   UNL     1      -2.054  12.496  19.889  0.00  0.00    +0.000 Cl
ATOM     21  C   UNL     1      -0.446  10.602  20.935  0.00  0.00    +0.000 A 
ATOM     22  C   UNL     1       0.498   9.579  20.844  0.00  0.00    +0.000 A 
ENDBRANCH  15  16
ENDBRANCH  14  15
ENDBRANCH   5  14
TORSDOF 5
ENDMDL
MODEL 4
REMARK VINA RESULT:      -7.2      5.783      7.021
REMARK  Name = 
REMARK  5 active torsions:
REMARK  status: ('A' for Active; 'I' for Inactive)
REMARK    1  A    between atoms: C_2  and  C_3
REMARK    2  A    between atoms: C_2  and  N_18
REMARK    3  A    between atoms: C_7  and  O_8
REMARK    4  A    between atoms: O_8  and  C_9
REMARK    5  A    between atoms: C_9  and  C_10
REMARK                            x       y       z     vdW  Elec       q    Type
REMARK                         _______ _______ _______ _____ _____    ______ ____
ROOT
ATOM      1  C   UNL     1       6.315   6.073  17.345  0.00  0.00    +0.000 A 
ATOM      2  C   UNL     1       6.897   5.240  18.311  0.00  0.00    +0.000 A 
ATOM      3  C   UNL     1       7.917   5.718  19.128  0.00  0.00    +0.000 A 
ATOM      4  C   UNL     1       8.383   7.021  18.970  0.00  0.00    +0.000 A 
ATOM      5  C   UNL     1       7.853   7.845  17.972  0.00  0.00    +0.000 A 
ATOM      6  C   UNL     1       6.797   7.380  17.180  0.00  0.00    +0.000 A 
ENDROOT
BRANCH   1   8
ATOM      7  C   UNL     1       5.444   5.508  15.194  0.00  0.00    +0.000 C 
ATOM      8  C   UNL     1       5.211   5.539  16.520  0.00  0.00    +0.000 C 
BRANCH   8   9
ATOM      9  N   UNL     1       4.040   5.042  17.134  0.00  0.00    +0.000 N 
ATOM     10  C   UNL     1       3.115   5.732  17.900  0.00  0.00    +0.000 A 
ATOM     11  C   UNL     1       2.124   4.836  18.223  0.00  0.00    +0.000 A 
ATOM     12  N   UNL     1       2.404   3.603  17.714  0.00  0.00    +0.000 NA
ATOM     13  C   UNL     1       3.548   3.747  17.084  0.00  0.00    +0.000 A 
ENDBRANCH   8   9
ENDBRANCH   1   8
BRANCH   5  14
ATOM     14  O   UNL     1       8.294   9.114  17.695  0.00  0.00    +0.000 OA
BRANCH  14  15
ATOM     15  C   UNL     1       8.888   9.800  18.802  0.00  0.00    +0.000 C 
BRANCH  15  16
ATOM     16  C   UNL     1       9.489  11.102  18.326  0.00  0.00    +0.000 A 
ATOM     17  C   UNL     1      10.847  11.181  17.986  0.00  0.00    +0.000 A 
ATOM     18  C   UNL     1      11.390  12.387  17.535  0.00  0.00    +0.000 A 
ATOM     19  C   UNL     1      10.580  13.516  17.423  0.00  0.00    +0.000 A 
ATOM     20 CL   UNL     1      11.252  15.000  16.872  0.00  0.00    +0.000 Cl
ATOM     21  C   UNL     1       9.230  13.451  17.756  0.00  0.00    +0.000 A 
ATOM     22  C   UNL     1       8.686  12.247  18.206  0.00  0.00    +0.000 A 
ENDBRANCH  15  16
ENDBRANCH  14  15
ENDBRANCH   5  14
TORSDOF 5
ENDMDL
MODEL 5
REMARK VINA RESULT:      -7.2      2.408      3.872
REMARK  Name = 
REMARK  5 active torsions:
REMARK  status: ('A' for Active; 'I' for Inactive)
REMARK    1  A    between atoms: C_2  and  C_3
REMARK    2  A    between atoms: C_2  and  N_18
REMARK    3  A    between atoms: C_7  and  O_8
REMARK    4  A    between atoms: O_8  and  C_9
REMARK    5  A    between atoms: C_9  and  C_10
REMARK                            x       y       z     vdW  Elec       q    Type
REMARK                         _______ _______ _______ _____ _____    ______ ____
ROOT
ATOM      1  C   UNL     1       4.219   4.711  17.458  0.00  0.00    +0.000 A 
ATOM      2  C   UNL     1       3.427   3.604  17.123  0.00  0.00    +0.000 A 
ATOM      3  C   UNL     1       2.147   3.469  17.655  0.00  0.00    +0.000 A 
ATOM      4  C   UNL     1       1.659   4.422  18.545  0.00  0.00    +0.000 A 
ATOM      5  C   UNL     1       2.460   5.501  18.934  0.00  0.00    +0.000 A 
ATOM      6  C   UNL     1       3.729   5.661  18.366  0.00  0.00    +0.000 A 
ENDROOT
BRANCH   1   8
ATOM      7  C   UNL     1       5.773   4.066  15.763  0.00  0.00    +0.000 C 
ATOM      8  C   UNL     1       5.559   4.836  16.847  0.00  0.00    +0.000 C 
BRANCH   8   9
ATOM      9  N   UNL     1       6.491   5.765  17.361  0.00  0.00    +0.000 N 
ATOM     10  C   UNL     1       6.734   7.060  16.934  0.00  0.00    +0.000 A 
ATOM     11  C   UNL     1       7.684   7.581  17.780  0.00  0.00    +0.000 A 
ATOM     12  N   UNL     1       8.067   6.656  18.704  0.00  0.00    +0.000 NA
ATOM     13  C   UNL     1       7.356   5.586  18.429  0.00  0.00    +0.000 A 
ENDBRANCH   8   9
ENDBRANCH   1   8
BRANCH   5  14
ATOM     14  O   UNL     1       2.093   6.450  19.855  0.00  0.00    +0.000 OA
BRANCH  14  15
ATOM     15  C   UNL     1       2.074   7.793  19.362  0.00  0.00    +0.000 C 
BRANCH  15  16
ATOM     16  C   UNL     1       1.258   8.662  20.291  0.00  0.00    +0.000 A 
ATOM     17  C   UNL     1       1.286   8.450  21.677  0.00  0.00    +0.000 A 
ATOM     18  C   UNL     1       0.539   9.268  22.528  0.00  0.00    +0.000 A 
ATOM     19  C   UNL     1      -0.239  10.296  21.999  0.00  0.00    +0.000 A 
ATOM     20 CL   UNL     1      -1.162  11.298  23.049  0.00  0.00    +0.000 Cl
ATOM     21  C   UNL     1      -0.275  10.518  20.625  0.00  0.00    +0.000 A 
ATOM     22  C   UNL     1       0.472   9.703  19.774  0.00  0.00    +0.000 A 
ENDBRANCH  15  16
ENDBRANCH  14  15
ENDBRANCH   5  14
TORSDOF 5
ENDMDL
MODEL 6
REMARK VINA RESULT:      -7.2      0.979      1.524
REMARK  Name = 
REMARK  5 active torsions:
REMARK  status: ('A' for Active; 'I' for Inactive)
REMARK    1  A    between atoms: C_2  and  C_3
REMARK    2  A    between atoms: C_2  and  N_18
REMARK    3  A    between atoms: C_7  and  O_8
REMARK    4  A    between atoms: O_8  and  C_9
REMARK    5  A    between atoms: C_9  and  C_10
REMARK                            x       y       z     vdW  Elec       q    Type
REMARK                         _______ _______ _______ _____ _____    ______ ____
ROOT
ATOM      1  C   UNL     1       3.109   4.777  18.098  0.00  0.00    +0.000 A 
ATOM      2  C   UNL     1       4.438   5.014  17.719  0.00  0.00    +0.000 A 
ATOM      3  C   UNL     1       4.854   6.299  17.384  0.00  0.00    +0.000 A 
ATOM      4  C   UNL     1       3.942   7.352  17.397  0.00  0.00    +0.000 A 
ATOM      5  C   UNL     1       2.600   7.120  17.715  0.00  0.00    +0.000 A 
ATOM      6  C   UNL     1       2.191   5.837  18.096  0.00  0.00    +0.000 A 
ENDROOT
BRANCH   1   8
ATOM      7  C   UNL     1       2.746   2.497  17.484  0.00  0.00    +0.000 C 
ATOM      8  C   UNL     1       2.714   3.405  18.478  0.00  0.00    +0.000 C 
BRANCH   8   9
ATOM      9  N   UNL     1       2.399   3.102  19.822  0.00  0.00    +0.000 N 
ATOM     10  C   UNL     1       1.155   3.094  20.431  0.00  0.00    +0.000 A 
ATOM     11  C   UNL     1       1.354   2.682  21.727  0.00  0.00    +0.000 A 
ATOM     12  N   UNL     1       2.677   2.457  21.965  0.00  0.00    +0.000 NA
ATOM     13  C   UNL     1       3.277   2.724  20.827  0.00  0.00    +0.000 A 
ENDBRANCH   8   9
ENDBRANCH   1   8
BRANCH   5  14
ATOM     14  O   UNL     1       1.618   8.078  17.688  0.00  0.00    +0.000 OA
BRANCH  14  15
ATOM     15  C   UNL     1       2.001   9.349  18.222  0.00  0.00    +0.000 C 
BRANCH  15  16
ATOM     16  C   UNL     1       1.218   9.624  19.484  0.00  0.00    +0.000 A 
ATOM     17  C   UNL     1       0.423  10.774  19.597  0.00  0.00    +0.000 A 
ATOM     18  C   UNL     1      -0.308  11.012  20.764  0.00  0.00    +0.000 A 
ATOM     19  C   UNL     1      -0.245  10.105  21.821  0.00  0.00    +0.000 A 
ATOM     20 CL   UNL     1      -1.141  10.403  23.258  0.00  0.00    +0.000 Cl
ATOM     21  C   UNL     1       0.540   8.960  21.722  0.00  0.00    +0.000 A 
ATOM     22  C   UNL     1       1.269   8.720  20.557  0.00  0.00    +0.000 A 
ENDBRANCH  15  16
ENDBRANCH  14  15
ENDBRANCH   5  14
TORSDOF 5
ENDMDL
MODEL 7
REMARK VINA RESULT:      -7.1      1.385      1.767
REMARK  Name = 
REMARK  5 active torsions:
REMARK  status: ('A' for Active; 'I' for Inactive)
REMARK    1  A    between atoms: C_2  and  C_3
REMARK    2  A    between atoms: C_2  and  N_18
REMARK    3  A    between atoms: C_7  and  O_8
REMARK    4  A    between atoms: O_8  and  C_9
REMARK    5  A    between atoms: C_9  and  C_10
REMARK                            x       y       z     vdW  Elec       q    Type
REMARK                         _______ _______ _______ _____ _____    ______ ____
ROOT
ATOM      1  C   UNL     1       3.102   4.734  17.991  0.00  0.00    +0.000 A 
ATOM      2  C   UNL     1       4.341   4.803  17.339  0.00  0.00    +0.000 A 
ATOM      3  C   UNL     1       4.876   6.036  16.974  0.00  0.00    +0.000 A 
ATOM      4  C   UNL     1       4.165   7.206  17.231  0.00  0.00    +0.000 A 
ATOM      5  C   UNL     1       2.901   7.149  17.828  0.00  0.00    +0.000 A 
ATOM      6  C   UNL     1       2.384   5.914  18.236  0.00  0.00    +0.000 A 
ENDROOT
BRANCH   1   8
ATOM      7  C   UNL     1       2.463   2.511  17.397  0.00  0.00    +0.000 C 
ATOM      8  C   UNL     1       2.584   3.410  18.393  0.00  0.00    +0.000 C 
BRANCH   8   9
ATOM      9  N   UNL     1       2.317   3.133  19.753  0.00  0.00    +0.000 N 
ATOM     10  C   UNL     1       1.098   3.163  20.410  0.00  0.00    +0.000 A 
ATOM     11  C   UNL     1       1.339   2.763  21.702  0.00  0.00    +0.000 A 
ATOM     12  N   UNL     1       2.664   2.510  21.891  0.00  0.00    +0.000 NA
ATOM     13  C   UNL     1       3.224   2.747  20.726  0.00  0.00    +0.000 A 
ENDBRANCH   8   9
ENDBRANCH   1   8
BRANCH   5  14
ATOM     14  O   UNL     1       2.100   8.238  18.057  0.00  0.00    +0.000 OA
BRANCH  14  15
ATOM     15  C   UNL     1       1.821   8.502  19.436  0.00  0.00    +0.000 C 
BRANCH  15  16
ATOM     16  C   UNL     1       0.714   9.525  19.542  0.00  0.00    +0.000 A 
ATOM     17  C   UNL     1       0.353  10.062  20.786  0.00  0.00    +0.000 A 
ATOM     18  C   UNL     1      -0.663  11.017  20.871  0.00  0.00    +0.000 A 
ATOM     19  C   UNL     1      -1.322  11.437  19.717  0.00  0.00    +0.000 A 
ATOM     20 CL   UNL     1      -2.576  12.609  19.825  0.00  0.00    +0.000 Cl
ATOM     21  C   UNL     1      -0.973  10.912  18.476  0.00  0.00    +0.000 A 
ATOM     22  C   UNL     1       0.042   9.959  18.389  0.00  0.00    +0.000 A 
ENDBRANCH  15  16
ENDBRANCH  14  15
ENDBRANCH   5  14
TORSDOF 5
ENDMDL
MODEL 8
REMARK VINA RESULT:      -7.0      2.361      4.000
REMARK  Name = 
REMARK  5 active torsions:
REMARK  status: ('A' for Active; 'I' for Inactive)
REMARK    1  A    between atoms: C_2  and  C_3
REMARK    2  A    between atoms: C_2  and  N_18
REMARK    3  A    between atoms: C_7  and  O_8
REMARK    4  A    between atoms: O_8  and  C_9
REMARK    5  A    between atoms: C_9  and  C_10
REMARK                            x       y       z     vdW  Elec       q    Type
REMARK                         _______ _______ _______ _____ _____    ______ ____
ROOT
ATOM      1  C   UNL     1       3.671   4.664  18.255  0.00  0.00    +0.000 A 
ATOM      2  C   UNL     1       3.001   3.438  18.369  0.00  0.00    +0.000 A 
ATOM      3  C   UNL     1       1.907   3.312  19.221  0.00  0.00    +0.000 A 
ATOM      4  C   UNL     1       1.491   4.399  19.986  0.00  0.00    +0.000 A 
ATOM      5  C   UNL     1       2.186   5.612  19.927  0.00  0.00    +0.000 A 
ATOM      6  C   UNL     1       3.257   5.753  19.038  0.00  0.00    +0.000 A 
ENDROOT
BRANCH   1   8
ATOM      7  C   UNL     1       4.733   3.975  16.229  0.00  0.00    +0.000 C 
ATOM      8  C   UNL     1       4.807   4.768  17.316  0.00  0.00    +0.000 C 
BRANCH   8   9
ATOM      9  N   UNL     1       5.842   5.701  17.551  0.00  0.00    +0.000 N 
ATOM     10  C   UNL     1       6.895   5.606  18.444  0.00  0.00    +0.000 A 
ATOM     11  C   UNL     1       7.665   6.730  18.265  0.00  0.00    +0.000 A 
ATOM     12  N   UNL     1       7.122   7.542  17.314  0.00  0.00    +0.000 NA
ATOM     13  C   UNL     1       6.037   6.917  16.915  0.00  0.00    +0.000 A 
ENDBRANCH   8   9
ENDBRANCH   1   8
BRANCH   5  14
ATOM     14  O   UNL     1       1.894   6.713  20.691  0.00  0.00    +0.000 OA
BRANCH  14  15
ATOM     15  C   UNL     1       1.822   7.946  19.968  0.00  0.00    +0.000 C 
BRANCH  15  16
ATOM     16  C   UNL     1       0.989   8.940  20.744  0.00  0.00    +0.000 A 
ATOM     17  C   UNL     1       0.681   8.716  22.094  0.00  0.00    +0.000 A 
ATOM     18  C   UNL     1      -0.078   9.647  22.806  0.00  0.00    +0.000 A 
ATOM     19  C   UNL     1      -0.533  10.803  22.174  0.00  0.00    +0.000 A 
ATOM     20 CL   UNL     1      -1.471  11.946  23.051  0.00  0.00    +0.000 Cl
ATOM     21  C   UNL     1      -0.234  11.038  20.834  0.00  0.00    +0.000 A 
ATOM     22  C   UNL     1       0.525  10.109  20.122  0.00  0.00    +0.000 A 
ENDBRANCH  15  16
ENDBRANCH  14  15
ENDBRANCH   5  14
TORSDOF 5
ENDMDL
MODEL 9
REMARK VINA RESULT:      -7.0      2.588      4.201
REMARK  Name = 
REMARK  5 active torsions:
REMARK  status: ('A' for Active; 'I' for Inactive)
REMARK    1  A    between atoms: C_2  and  C_3
REMARK    2  A    between atoms: C_2  and  N_18
REMARK    3  A    between atoms: C_7  and  O_8
REMARK    4  A    between atoms: O_8  and  C_9
REMARK    5  A    between atoms: C_9  and  C_10
REMARK                            x       y       z     vdW  Elec       q    Type
REMARK                         _______ _______ _______ _____ _____    ______ ____
ROOT
ATOM      1  C   UNL     1       4.312   4.018  17.204  0.00  0.00    +0.000 A 
ATOM      2  C   UNL     1       3.931   2.670  17.175  0.00  0.00    +0.000 A 
ATOM      3  C   UNL     1       2.731   2.266  17.756  0.00  0.00    +0.000 A 
ATOM      4  C   UNL     1       1.918   3.200  18.394  0.00  0.00    +0.000 A 
ATOM      5  C   UNL     1       2.314   4.538  18.482  0.00  0.00    +0.000 A 
ATOM      6  C   UNL     1       3.497   4.952  17.860  0.00  0.00    +0.000 A 
ENDROOT
BRANCH   1   8
ATOM      7  C   UNL     1       5.831   3.807  15.372  0.00  0.00    +0.000 C 
ATOM      8  C   UNL     1       5.576   4.412  16.548  0.00  0.00    +0.000 C 
BRANCH   8   9
ATOM      9  N   UNL     1       6.393   5.413  17.121  0.00  0.00    +0.000 N 
ATOM     10  C   UNL     1       7.181   5.330  18.257  0.00  0.00    +0.000 A 
ATOM     11  C   UNL     1       7.829   6.535  18.375  0.00  0.00    +0.000 A 
ATOM     12  N   UNL     1       7.460   7.383  17.374  0.00  0.00    +0.000 NA
ATOM     13  C   UNL     1       6.600   6.700  16.652  0.00  0.00    +0.000 A 
ENDBRANCH   8   9
ENDBRANCH   1   8
BRANCH   5  14
ATOM     14  O   UNL     1       1.615   5.513  19.148  0.00  0.00    +0.000 OA
BRANCH  14  15
ATOM     15  C   UNL     1       2.425   6.475  19.832  0.00  0.00    +0.000 C 
BRANCH  15  16
ATOM     16  C   UNL     1       1.901   7.865  19.556  0.00  0.00    +0.000 A 
ATOM     17  C   UNL     1       2.047   8.446  18.288  0.00  0.00    +0.000 A 
ATOM     18  C   UNL     1       1.547   9.727  18.040  0.00  0.00    +0.000 A 
ATOM     19  C   UNL     1       0.902  10.431  19.056  0.00  0.00    +0.000 A 
ATOM     20 CL   UNL     1       0.292  12.009  18.749  0.00  0.00    +0.000 Cl
ATOM     21  C   UNL     1       0.750   9.865  20.319  0.00  0.00    +0.000 A 
ATOM     22  C   UNL     1       1.248   8.586  20.568  0.00  0.00    +0.000 A 
ENDBRANCH  15  16
ENDBRANCH  14  15
ENDBRANCH   5  14
TORSDOF 5
ENDMDL
