MODEL 1
REMARK VINA RESULT:      -7.4      0.000      0.000
REMARK  Name = 
REMARK  3 active torsions:
REMARK  status: ('A' for Active; 'I' for Inactive)
REMARK    1  A    between atoms: C_1  and  C_2
REMARK    2  A    between atoms: C_5  and  C_6
REMARK    3  A    between atoms: C_6  and  N_7
REMARK                            x       y       z     vdW  Elec       q    Type
REMARK                         _______ _______ _______ _____ _____    ______ ____
ROOT
ATOM      1  N   UNL     1       3.071   3.503  17.234  0.00  0.00    +0.000 N 
ATOM      2  C   UNL     1       2.429   4.261  18.107  0.00  0.00    +0.000 C 
ATOM      3  N   UNL     1       1.855   3.504  19.044  0.00  0.00    +0.000 N 
ATOM      4  C   UNL     1       0.883   3.784  20.124  0.00  0.00    +0.000 C 
ATOM      5  C   UNL     1       1.191   2.827  21.290  0.00  0.00    +0.000 C 
ATOM      6  C   UNL     1       2.677   2.877  21.593  0.00  0.00    +0.000 C 
ATOM      7  C   UNL     1       3.488   2.635  20.317  0.00  0.00    +0.000 C 
ATOM      8  C   UNL     1       2.529   2.153  19.083  0.00  0.00    +0.000 C 
ATOM      9  C   UNL     1       2.506   2.161  17.499  0.00  0.00    +0.000 C 
ENDROOT
BRANCH   1  10
ATOM     10  C   UNL     1       4.522   3.604  16.972  0.00  0.00    +0.000 C 
BRANCH  10  15
ATOM     11  C   UNL     1       8.088   8.096  17.833  0.00  0.00    +0.000 C 
ATOM     12  C   UNL     1       7.070   7.000  17.705  0.00  0.00    +0.000 A 
ATOM     13  C   UNL     1       7.260   5.786  18.359  0.00  0.00    +0.000 A 
ATOM     14  C   UNL     1       6.361   4.745  18.153  0.00  0.00    +0.000 A 
ATOM     15  C   UNL     1       5.259   4.868  17.285  0.00  0.00    +0.000 A 
ATOM     16  C   UNL     1       5.058   6.093  16.656  0.00  0.00    +0.000 A 
ATOM     17  C   UNL     1       5.949   7.157  16.864  0.00  0.00    +0.000 A 
ENDBRANCH  10  15
ENDBRANCH   1  10
TORSDOF 2
ENDMDL
MODEL 2
REMARK VINA RESULT:      -7.3      0.525      1.277
REMARK  Name = 
REMARK  3 active torsions:
REMARK  status: ('A' for Active; 'I' for Inactive)
REMARK    1  A    between atoms: C_1  and  C_2
REMARK    2  A    between atoms: C_5  and  C_6
REMARK    3  A    between atoms: C_6  and  N_7
REMARK                            x       y       z     vdW  Elec       q    Type
REMARK                         _______ _______ _______ _____ _____    ______ ____
ROOT
ATOM      1  N   UNL     1       3.341   4.070  17.370  0.00  0.00    +0.000 N 
ATOM      2  C   UNL     1       2.951   4.782  18.414  0.00  0.00    +0.000 C 
ATOM      3  N   UNL     1       2.152   4.055  19.198  0.00  0.00    +0.000 N 
ATOM      4  C   UNL     1       1.295   4.381  20.359  0.00  0.00    +0.000 C 
ATOM      5  C   UNL     1       1.269   3.148  21.281  0.00  0.00    +0.000 C 
ATOM      6  C   UNL     1       2.692   2.672  21.513  0.00  0.00    +0.000 C 
ATOM      7  C   UNL     1       3.410   2.473  20.176  0.00  0.00    +0.000 C 
ATOM      8  C   UNL     1       2.371   2.588  18.918  0.00  0.00    +0.000 C 
ATOM      9  C   UNL     1       2.381   2.943  17.374  0.00  0.00    +0.000 C 
ENDROOT
BRANCH   1  10
ATOM     10  C   UNL     1       4.755   3.773  17.062  0.00  0.00    +0.000 C 
BRANCH  10  15
ATOM     11  C   UNL     1       8.141   8.391  17.984  0.00  0.00    +0.000 C 
ATOM     12  C   UNL     1       7.378   7.138  17.666  0.00  0.00    +0.000 A 
ATOM     13  C   UNL     1       6.380   7.151  16.695  0.00  0.00    +0.000 A 
ATOM     14  C   UNL     1       5.614   6.010  16.480  0.00  0.00    +0.000 A 
ATOM     15  C   UNL     1       5.801   4.831  17.227  0.00  0.00    +0.000 A 
ATOM     16  C   UNL     1       6.818   4.815  18.177  0.00  0.00    +0.000 A 
ATOM     17  C   UNL     1       7.609   5.954  18.395  0.00  0.00    +0.000 A 
ENDBRANCH  10  15
ENDBRANCH   1  10
TORSDOF 2
ENDMDL
MODEL 3
REMARK VINA RESULT:      -7.0      1.060      1.861
REMARK  Name = 
REMARK  3 active torsions:
REMARK  status: ('A' for Active; 'I' for Inactive)
REMARK    1  A    between atoms: C_1  and  C_2
REMARK    2  A    between atoms: C_5  and  C_6
REMARK    3  A    between atoms: C_6  and  N_7
REMARK                            x       y       z     vdW  Elec       q    Type
REMARK                         _______ _______ _______ _____ _____    ______ ____
ROOT
ATOM      1  N   UNL     1       3.998   2.745  17.738  0.00  0.00    +0.000 N 
ATOM      2  C   UNL     1       2.836   2.255  18.138  0.00  0.00    +0.000 C 
ATOM      3  N   UNL     1       2.604   2.595  19.408  0.00  0.00    +0.000 N 
ATOM      4  C   UNL     1       1.589   2.180  20.402  0.00  0.00    +0.000 C 
ATOM      5  C   UNL     1       1.317   3.384  21.322  0.00  0.00    +0.000 C 
ATOM      6  C   UNL     1       1.066   4.613  20.469  0.00  0.00    +0.000 C 
ATOM      7  C   UNL     1       2.204   4.804  19.463  0.00  0.00    +0.000 C 
ATOM      8  C   UNL     1       3.450   3.790  19.774  0.00  0.00    +0.000 C 
ATOM      9  C   UNL     1       4.656   3.094  19.017  0.00  0.00    +0.000 C 
ENDROOT
BRANCH   1  10
ATOM     10  C   UNL     1       4.147   3.682  16.605  0.00  0.00    +0.000 C 
BRANCH  10  15
ATOM     11  C   UNL     1       7.816   8.050  17.653  0.00  0.00    +0.000 C 
ATOM     12  C   UNL     1       6.898   6.937  17.236  0.00  0.00    +0.000 A 
ATOM     13  C   UNL     1       5.520   7.137  17.210  0.00  0.00    +0.000 A 
ATOM     14  C   UNL     1       4.676   6.070  16.918  0.00  0.00    +0.000 A 
ATOM     15  C   UNL     1       5.167   4.776  16.661  0.00  0.00    +0.000 A 
ATOM     16  C   UNL     1       6.547   4.589  16.661  0.00  0.00    +0.000 A 
ATOM     17  C   UNL     1       7.411   5.659  16.940  0.00  0.00    +0.000 A 
ENDBRANCH  10  15
ENDBRANCH   1  10
TORSDOF 2
ENDMDL
MODEL 4
REMARK VINA RESULT:      -6.9      1.068      1.844
REMARK  Name = 
REMARK  3 active torsions:
REMARK  status: ('A' for Active; 'I' for Inactive)
REMARK    1  A    between atoms: C_1  and  C_2
REMARK    2  A    between atoms: C_5  and  C_6
REMARK    3  A    between atoms: C_6  and  N_7
REMARK                            x       y       z     vdW  Elec       q    Type
REMARK                         _______ _______ _______ _____ _____    ______ ____
ROOT
ATOM      1  N   UNL     1       4.253   4.696  18.102  0.00  0.00    +0.000 N 
ATOM      2  C   UNL     1       3.518   5.211  19.073  0.00  0.00    +0.000 C 
ATOM      3  N   UNL     1       2.578   4.344  19.453  0.00  0.00    +0.000 N 
ATOM      4  C   UNL     1       1.393   4.448  20.333  0.00  0.00    +0.000 C 
ATOM      5  C   UNL     1       1.184   3.077  21.001  0.00  0.00    +0.000 C 
ATOM      6  C   UNL     1       2.504   2.602  21.581  0.00  0.00    +0.000 C 
ATOM      7  C   UNL     1       3.601   2.649  20.514  0.00  0.00    +0.000 C 
ATOM      8  C   UNL     1       2.978   2.950  19.032  0.00  0.00    +0.000 C 
ATOM      9  C   UNL     1       3.421   3.562  17.639  0.00  0.00    +0.000 C 
ENDROOT
BRANCH   1  10
ATOM     10  C   UNL     1       5.712   4.488  18.199  0.00  0.00    +0.000 C 
BRANCH  10  15
ATOM     11  C   UNL     1       8.644   9.493  18.163  0.00  0.00    +0.000 C 
ATOM     12  C   UNL     1       7.996   8.140  18.090  0.00  0.00    +0.000 A 
ATOM     13  C   UNL     1       6.917   7.925  17.237  0.00  0.00    +0.000 A 
ATOM     14  C   UNL     1       6.263   6.696  17.251  0.00  0.00    +0.000 A 
ATOM     15  C   UNL     1       6.647   5.654  18.117  0.00  0.00    +0.000 A 
ATOM     16  C   UNL     1       7.744   5.866  18.947  0.00  0.00    +0.000 A 
ATOM     17  C   UNL     1       8.422   7.095  18.934  0.00  0.00    +0.000 A 
ENDBRANCH  10  15
ENDBRANCH   1  10
TORSDOF 2
ENDMDL
MODEL 5
REMARK VINA RESULT:      -6.9      3.531      4.381
REMARK  Name = 
REMARK  3 active torsions:
REMARK  status: ('A' for Active; 'I' for Inactive)
REMARK    1  A    between atoms: C_1  and  C_2
REMARK    2  A    between atoms: C_5  and  C_6
REMARK    3  A    between atoms: C_6  and  N_7
REMARK                            x       y       z     vdW  Elec       q    Type
REMARK                         _______ _______ _______ _____ _____    ______ ____
ROOT
ATOM      1  N   UNL     1       3.177   5.463  17.717  0.00  0.00    +0.000 N 
ATOM      2  C   UNL     1       1.985   4.902  17.831  0.00  0.00    +0.000 C 
ATOM      3  N   UNL     1       2.060   3.801  18.581  0.00  0.00    +0.000 N 
ATOM      4  C   UNL     1       1.112   2.704  18.876  0.00  0.00    +0.000 C 
ATOM      5  C   UNL     1       1.401   2.208  20.305  0.00  0.00    +0.000 C 
ATOM      6  C   UNL     1       1.475   3.403  21.239  0.00  0.00    +0.000 C 
ATOM      7  C   UNL     1       2.459   4.442  20.696  0.00  0.00    +0.000 C 
ATOM      8  C   UNL     1       3.309   3.853  19.429  0.00  0.00    +0.000 C 
ATOM      9  C   UNL     1       4.084   4.376  18.149  0.00  0.00    +0.000 C 
ENDROOT
BRANCH   1  10
ATOM     10  C   UNL     1       3.483   6.838  18.164  0.00  0.00    +0.000 C 
BRANCH  10  15
ATOM     11  C   UNL     1      -0.209  10.826  20.189  0.00  0.00    +0.000 C 
ATOM     12  C   UNL     1       0.627   9.721  19.612  0.00  0.00    +0.000 A 
ATOM     13  C   UNL     1       1.164   8.741  20.442  0.00  0.00    +0.000 A 
ATOM     14  C   UNL     1       2.017   7.779  19.910  0.00  0.00    +0.000 A 
ATOM     15  C   UNL     1       2.375   7.769  18.548  0.00  0.00    +0.000 A 
ATOM     16  C   UNL     1       1.813   8.734  17.717  0.00  0.00    +0.000 A 
ATOM     17  C   UNL     1       0.940   9.702  18.238  0.00  0.00    +0.000 A 
ENDBRANCH  10  15
ENDBRANCH   1  10
TORSDOF 2
ENDMDL
MODEL 6
REMARK VINA RESULT:      -6.9      1.535      5.640
REMARK  Name = 
REMARK  3 active torsions:
REMARK  status: ('A' for Active; 'I' for Inactive)
REMARK    1  A    between atoms: C_1  and  C_2
REMARK    2  A    between atoms: C_5  and  C_6
REMARK    3  A    between atoms: C_6  and  N_7
REMARK                            x       y       z     vdW  Elec       q    Type
REMARK                         _______ _______ _______ _____ _____    ______ ____
ROOT
ATOM      1  N   UNL     1       4.547   5.095  16.484  0.00  0.00    +0.000 N 
ATOM      2  C   UNL     1       5.758   5.486  16.120  0.00  0.00    +0.000 C 
ATOM      3  N   UNL     1       6.279   6.298  17.042  0.00  0.00    +0.000 N 
ATOM      4  C   UNL     1       7.481   7.160  17.076  0.00  0.00    +0.000 C 
ATOM      5  C   UNL     1       7.983   7.206  18.530  0.00  0.00    +0.000 C 
ATOM      6  C   UNL     1       8.064   5.790  19.071  0.00  0.00    +0.000 C 
ATOM      7  C   UNL     1       6.733   5.063  18.862  0.00  0.00    +0.000 C 
ATOM      8  C   UNL     1       5.566   6.092  18.357  0.00  0.00    +0.000 C 
ATOM      9  C   UNL     1       4.204   6.067  17.547  0.00  0.00    +0.000 C 
ENDROOT
BRANCH   1  10
ATOM     10  C   UNL     1       4.170   3.682  16.690  0.00  0.00    +0.000 C 
BRANCH  10  15
ATOM     11  C   UNL     1       1.285   2.769  21.639  0.00  0.00    +0.000 C 
ATOM     12  C   UNL     1       1.969   2.878  20.307  0.00  0.00    +0.000 A 
ATOM     13  C   UNL     1       3.317   2.555  20.182  0.00  0.00    +0.000 A 
ATOM     14  C   UNL     1       3.964   2.755  18.966  0.00  0.00    +0.000 A 
ATOM     15  C   UNL     1       3.301   3.294  17.847  0.00  0.00    +0.000 A 
ATOM     16  C   UNL     1       1.947   3.590  17.969  0.00  0.00    +0.000 A 
ATOM     17  C   UNL     1       1.278   3.380  19.185  0.00  0.00    +0.000 A 
ENDBRANCH  10  15
ENDBRANCH   1  10
TORSDOF 2
ENDMDL
MODEL 7
REMARK VINA RESULT:      -6.8      0.928      1.455
REMARK  Name = 
REMARK  3 active torsions:
REMARK  status: ('A' for Active; 'I' for Inactive)
REMARK    1  A    between atoms: C_1  and  C_2
REMARK    2  A    between atoms: C_5  and  C_6
REMARK    3  A    between atoms: C_6  and  N_7
REMARK                            x       y       z     vdW  Elec       q    Type
REMARK                         _______ _______ _______ _____ _____    ______ ____
ROOT
ATOM      1  N   UNL     1       4.044   2.660  17.722  0.00  0.00    +0.000 N 
ATOM      2  C   UNL     1       2.797   2.301  17.976  0.00  0.00    +0.000 C 
ATOM      3  N   UNL     1       2.499   2.533  19.256  0.00  0.00    +0.000 N 
ATOM      4  C   UNL     1       1.355   2.162  20.118  0.00  0.00    +0.000 C 
ATOM      5  C   UNL     1       1.163   3.288  21.150  0.00  0.00    +0.000 C 
ATOM      6  C   UNL     1       1.153   4.624  20.430  0.00  0.00    +0.000 C 
ATOM      7  C   UNL     1       2.392   4.758  19.539  0.00  0.00    +0.000 C 
ATOM      8  C   UNL     1       3.460   3.552  19.820  0.00  0.00    +0.000 C 
ATOM      9  C   UNL     1       4.626   2.776  19.078  0.00  0.00    +0.000 C 
ENDROOT
BRANCH   1  10
ATOM     10  C   UNL     1       4.414   3.682  16.720  0.00  0.00    +0.000 C 
BRANCH  10  15
ATOM     11  C   UNL     1       7.955   8.188  17.616  0.00  0.00    +0.000 C 
ATOM     12  C   UNL     1       6.987   7.045  17.523  0.00  0.00    +0.000 A 
ATOM     13  C   UNL     1       7.438   5.732  17.639  0.00  0.00    +0.000 A 
ATOM     14  C   UNL     1       6.548   4.679  17.452  0.00  0.00    +0.000 A 
ATOM     15  C   UNL     1       5.193   4.893  17.131  0.00  0.00    +0.000 A 
ATOM     16  C   UNL     1       4.742   6.206  17.045  0.00  0.00    +0.000 A 
ATOM     17  C   UNL     1       5.625   7.279  17.244  0.00  0.00    +0.000 A 
ENDBRANCH  10  15
ENDBRANCH   1  10
TORSDOF 2
ENDMDL
MODEL 8
REMARK VINA RESULT:      -6.7      2.340      3.118
REMARK  Name = 
REMARK  3 active torsions:
REMARK  status: ('A' for Active; 'I' for Inactive)
REMARK    1  A    between atoms: C_1  and  C_2
REMARK    2  A    between atoms: C_5  and  C_6
REMARK    3  A    between atoms: C_6  and  N_7
REMARK                            x       y       z     vdW  Elec       q    Type
REMARK                         _______ _______ _______ _____ _____    ______ ____
ROOT
ATOM      1  N   UNL     1       4.657   3.676  18.338  0.00  0.00    +0.000 N 
ATOM      2  C   UNL     1       4.189   2.681  19.072  0.00  0.00    +0.000 C 
ATOM      3  N   UNL     1       3.451   3.156  20.078  0.00  0.00    +0.000 N 
ATOM      4  C   UNL     1       2.859   2.538  21.285  0.00  0.00    +0.000 C 
ATOM      5  C   UNL     1       1.555   3.292  21.605  0.00  0.00    +0.000 C 
ATOM      6  C   UNL     1       0.725   3.403  20.339  0.00  0.00    +0.000 C 
ATOM      7  C   UNL     1       1.563   3.998  19.204  0.00  0.00    +0.000 C 
ATOM      8  C   UNL     1       2.998   4.559  19.753  0.00  0.00    +0.000 C 
ATOM      9  C   UNL     1       4.463   4.847  19.223  0.00  0.00    +0.000 C 
ENDROOT
BRANCH   1  10
ATOM     10  C   UNL     1       4.365   3.841  16.898  0.00  0.00    +0.000 C 
BRANCH  10  15
ATOM     11  C   UNL     1       8.071   5.376  12.709  0.00  0.00    +0.000 C 
ATOM     12  C   UNL     1       7.210   4.872  13.830  0.00  0.00    +0.000 A 
ATOM     13  C   UNL     1       6.088   4.094  13.558  0.00  0.00    +0.000 A 
ATOM     14  C   UNL     1       5.243   3.717  14.597  0.00  0.00    +0.000 A 
ATOM     15  C   UNL     1       5.475   4.109  15.930  0.00  0.00    +0.000 A 
ATOM     16  C   UNL     1       6.614   4.862  16.200  0.00  0.00    +0.000 A 
ATOM     17  C   UNL     1       7.482   5.239  15.164  0.00  0.00    +0.000 A 
ENDBRANCH  10  15
ENDBRANCH   1  10
TORSDOF 2
ENDMDL
MODEL 9
REMARK VINA RESULT:      -6.7      1.800      2.902
REMARK  Name = 
REMARK  3 active torsions:
REMARK  status: ('A' for Active; 'I' for Inactive)
REMARK    1  A    between atoms: C_1  and  C_2
REMARK    2  A    between atoms: C_5  and  C_6
REMARK    3  A    between atoms: C_6  and  N_7
REMARK                            x       y       z     vdW  Elec       q    Type
REMARK                         _______ _______ _______ _____ _____    ______ ____
ROOT
ATOM      1  N   UNL     1       3.569   5.914  19.246  0.00  0.00    +0.000 N 
ATOM      2  C   UNL     1       2.981   5.114  20.120  0.00  0.00    +0.000 C 
ATOM      3  N   UNL     1       1.984   4.445  19.536  0.00  0.00    +0.000 N 
ATOM      4  C   UNL     1       0.896   3.586  20.053  0.00  0.00    +0.000 C 
ATOM      5  C   UNL     1       0.591   2.523  18.982  0.00  0.00    +0.000 C 
ATOM      6  C   UNL     1       1.892   1.887  18.530  0.00  0.00    +0.000 C 
ATOM      7  C   UNL     1       2.895   2.966  18.112  0.00  0.00    +0.000 C 
ATOM      8  C   UNL     1       2.188   4.440  18.040  0.00  0.00    +0.000 C 
ATOM      9  C   UNL     1       2.579   5.971  18.147  0.00  0.00    +0.000 C 
ENDROOT
BRANCH   1  10
ATOM     10  C   UNL     1       4.999   5.824  18.885  0.00  0.00    +0.000 C 
BRANCH  10  15
ATOM     11  C   UNL     1       5.958   3.995  13.465  0.00  0.00    +0.000 C 
ATOM     12  C   UNL     1       5.839   4.545  14.857  0.00  0.00    +0.000 A 
ATOM     13  C   UNL     1       6.121   3.738  15.956  0.00  0.00    +0.000 A 
ATOM     14  C   UNL     1       5.911   4.228  17.242  0.00  0.00    +0.000 A 
ATOM     15  C   UNL     1       5.403   5.520  17.476  0.00  0.00    +0.000 A 
ATOM     16  C   UNL     1       5.150   6.332  16.374  0.00  0.00    +0.000 A 
ATOM     17  C   UNL     1       5.370   5.856  15.072  0.00  0.00    +0.000 A 
ENDBRANCH  10  15
ENDBRANCH   1  10
TORSDOF 2
ENDMDL
