MODEL 1
REMARK VINA RESULT:      -8.5      0.000      0.000
REMARK  Name = 
REMARK  3 active torsions:
REMARK  status: ('A' for Active; 'I' for Inactive)
REMARK    1  A    between atoms: C_1  and  C_2
REMARK    2  A    between atoms: C_8  and  C_9
REMARK    3  A    between atoms: C_14  and  C_15
REMARK                            x       y       z     vdW  Elec       q    Type
REMARK                         _______ _______ _______ _____ _____    ______ ____
ROOT
ATOM      1  C   UNL     1       2.546   6.040  20.141  0.00  0.00    +0.000 C 
ATOM      2  O   UNL     1       1.664   5.976  20.997  0.00  0.00    +0.000 OA
ATOM      3  N   UNL     1       2.680   7.040  19.202  0.00  0.00    +0.000 N 
ATOM      4  C   UNL     1       1.950   8.190  19.280  0.00  0.00    +0.000 A 
ATOM      5  N   UNL     1       1.206   8.626  20.264  0.00  0.00    +0.000 NA
ATOM      6  C   UNL     1       0.630   9.838  19.922  0.00  0.00    +0.000 A 
ATOM      7  C   UNL     1       0.931  10.269  18.644  0.00  0.00    +0.000 A 
ATOM      8  S   UNL     1       2.044   9.188  17.903  0.00  0.00    +0.000 S 
ATOM      9  H   UNL     1       3.284   6.907  18.403  0.00  0.00    +0.000 HD
ENDROOT
BRANCH   1  17
ATOM     10  C   UNL     1       1.205   4.070  17.555  0.00  0.00    +0.000 C 
ATOM     11  C   UNL     1       2.609   3.613  17.950  0.00  0.00    +0.000 C 
ATOM     12  C   UNL     1       2.849   2.167  17.521  0.00  0.00    +0.000 C 
ATOM     13  C   UNL     1       3.748   1.589  18.597  0.00  0.00    +0.000 C 
ATOM     14  C   UNL     1       3.438   2.435  19.800  0.00  0.00    +0.000 C 
ATOM     15  O   UNL     1       3.811   2.197  20.939  0.00  0.00    +0.000 OA
ATOM     16  N   UNL     1       2.821   3.627  19.388  0.00  0.00    +0.000 N 
ATOM     17  C   UNL     1       3.480   4.848  19.883  0.00  0.00    +0.000 C 
ATOM     18  C   UNL     1       4.572   5.192  18.870  0.00  0.00    +0.000 C 
ATOM     19  S   UNL     1       3.853   4.760  17.252  0.00  0.00    +0.000 S 
ENDBRANCH   1  17
BRANCH   6  20
ATOM     20  C   UNL     1      -0.239  10.540  20.860  0.00  0.00    +0.000 A 
ATOM     21  C   UNL     1      -1.045  11.593  20.401  0.00  0.00    +0.000 A 
ATOM     22  C   UNL     1      -1.884  12.270  21.281  0.00  0.00    +0.000 A 
ATOM     23  F   UNL     1      -2.641  13.279  20.832  0.00  0.00    +0.000 F 
ATOM     24  C   UNL     1      -1.950  11.921  22.627  0.00  0.00    +0.000 A 
ATOM     25  C   UNL     1      -1.166  10.869  23.096  0.00  0.00    +0.000 A 
ATOM     26  C   UNL     1      -0.325  10.188  22.216  0.00  0.00    +0.000 A 
ATOM     27  F   UNL     1       0.391   9.165  22.709  0.00  0.00    +0.000 F 
ENDBRANCH   6  20
TORSDOF 2
ENDMDL
MODEL 2
REMARK VINA RESULT:      -8.2      1.039      1.042
REMARK  Name = 
REMARK  3 active torsions:
REMARK  status: ('A' for Active; 'I' for Inactive)
REMARK    1  A    between atoms: C_1  and  C_2
REMARK    2  A    between atoms: C_8  and  C_9
REMARK    3  A    between atoms: C_14  and  C_15
REMARK                            x       y       z     vdW  Elec       q    Type
REMARK                         _______ _______ _______ _____ _____    ______ ____
ROOT
ATOM      1  C   UNL     1       2.709   6.047  19.655  0.00  0.00    +0.000 C 
ATOM      2  O   UNL     1       1.953   5.922  20.618  0.00  0.00    +0.000 OA
ATOM      3  N   UNL     1       2.723   7.113  18.781  0.00  0.00    +0.000 N 
ATOM      4  C   UNL     1       2.023   8.256  19.043  0.00  0.00    +0.000 A 
ATOM      5  N   UNL     1       1.428   8.618  20.150  0.00  0.00    +0.000 NA
ATOM      6  C   UNL     1       0.824   9.853  19.981  0.00  0.00    +0.000 A 
ATOM      7  C   UNL     1       0.949  10.376  18.708  0.00  0.00    +0.000 A 
ATOM      8  S   UNL     1       1.937   9.352  17.743  0.00  0.00    +0.000 S 
ATOM      9  H   UNL     1       3.208   7.038  17.898  0.00  0.00    +0.000 HD
ENDROOT
BRANCH   1  17
ATOM     10  C   UNL     1       0.688   3.200  19.232  0.00  0.00    +0.000 C 
ATOM     11  C   UNL     1       2.110   2.972  18.717  0.00  0.00    +0.000 C 
ATOM     12  C   UNL     1       2.428   1.479  18.648  0.00  0.00    +0.000 C 
ATOM     13  C   UNL     1       3.904   1.383  18.977  0.00  0.00    +0.000 C 
ATOM     14  C   UNL     1       4.157   2.614  19.802  0.00  0.00    +0.000 C 
ATOM     15  O   UNL     1       5.182   2.839  20.429  0.00  0.00    +0.000 OA
ATOM     16  N   UNL     1       3.122   3.539  19.592  0.00  0.00    +0.000 N 
ATOM     17  C   UNL     1       3.584   4.876  19.183  0.00  0.00    +0.000 C 
ATOM     18  C   UNL     1       3.714   4.842  17.660  0.00  0.00    +0.000 C 
ATOM     19  S   UNL     1       2.324   3.804  17.102  0.00  0.00    +0.000 S 
ENDBRANCH   1  17
BRANCH   6  20
ATOM     20  C   UNL     1       0.101  10.486  21.079  0.00  0.00    +0.000 A 
ATOM     21  C   UNL     1      -0.097  11.874  21.068  0.00  0.00    +0.000 A 
ATOM     22  C   UNL     1      -0.788  12.493  22.105  0.00  0.00    +0.000 A 
ATOM     23  F   UNL     1      -0.962  13.821  22.088  0.00  0.00    +0.000 F 
ATOM     24  C   UNL     1      -1.303  11.757  23.168  0.00  0.00    +0.000 A 
ATOM     25  C   UNL     1      -1.127  10.375  23.187  0.00  0.00    +0.000 A 
ATOM     26  C   UNL     1      -0.435   9.752  22.149  0.00  0.00    +0.000 A 
ATOM     27  F   UNL     1      -0.314   8.416  22.199  0.00  0.00    +0.000 F 
ENDBRANCH   6  20
TORSDOF 2
ENDMDL
MODEL 3
REMARK VINA RESULT:      -8.1      1.002      1.677
REMARK  Name = 
REMARK  3 active torsions:
REMARK  status: ('A' for Active; 'I' for Inactive)
REMARK    1  A    between atoms: C_1  and  C_2
REMARK    2  A    between atoms: C_8  and  C_9
REMARK    3  A    between atoms: C_14  and  C_15
REMARK                            x       y       z     vdW  Elec       q    Type
REMARK                         _______ _______ _______ _____ _____    ______ ____
ROOT
ATOM      1  C   UNL     1       2.337   6.239  20.168  0.00  0.00    +0.000 C 
ATOM      2  O   UNL     1       1.336   6.239  20.885  0.00  0.00    +0.000 OA
ATOM      3  N   UNL     1       2.634   7.182  19.208  0.00  0.00    +0.000 N 
ATOM      4  C   UNL     1       1.929   8.347  19.114  0.00  0.00    +0.000 A 
ATOM      5  N   UNL     1       1.058   8.850  19.951  0.00  0.00    +0.000 NA
ATOM      6  C   UNL     1       0.569  10.050  19.463  0.00  0.00    +0.000 A 
ATOM      7  C   UNL     1       1.067  10.403  18.223  0.00  0.00    +0.000 A 
ATOM      8  S   UNL     1       2.251   9.264  17.716  0.00  0.00    +0.000 S 
ATOM      9  H   UNL     1       3.346   6.994  18.516  0.00  0.00    +0.000 HD
ENDROOT
BRANCH   1  17
ATOM     10  C   UNL     1       1.335   4.142  17.529  0.00  0.00    +0.000 C 
ATOM     11  C   UNL     1       2.656   3.687  18.150  0.00  0.00    +0.000 C 
ATOM     12  C   UNL     1       2.920   2.213  17.843  0.00  0.00    +0.000 C 
ATOM     13  C   UNL     1       3.640   1.685  19.068  0.00  0.00    +0.000 C 
ATOM     14  C   UNL     1       3.180   2.607  20.164  0.00  0.00    +0.000 C 
ATOM     15  O   UNL     1       3.378   2.430  21.357  0.00  0.00    +0.000 OA
ATOM     16  N   UNL     1       2.659   3.782  19.600  0.00  0.00    +0.000 N 
ATOM     17  C   UNL     1       3.269   5.019  20.116  0.00  0.00    +0.000 C 
ATOM     18  C   UNL     1       4.504   5.285  19.256  0.00  0.00    +0.000 C 
ATOM     19  S   UNL     1       4.016   4.769  17.577  0.00  0.00    +0.000 S 
ENDBRANCH   1  17
BRANCH   6  20
ATOM     20  C   UNL     1      -0.411  10.819  20.221  0.00  0.00    +0.000 A 
ATOM     21  C   UNL     1      -0.394  10.772  21.623  0.00  0.00    +0.000 A 
ATOM     22  C   UNL     1      -1.319  11.503  22.362  0.00  0.00    +0.000 A 
ATOM     23  F   UNL     1      -1.298  11.442  23.700  0.00  0.00    +0.000 F 
ATOM     24  C   UNL     1      -2.274  12.299  21.736  0.00  0.00    +0.000 A 
ATOM     25  C   UNL     1      -2.297  12.367  20.344  0.00  0.00    +0.000 A 
ATOM     26  C   UNL     1      -1.371  11.635  19.602  0.00  0.00    +0.000 A 
ATOM     27  F   UNL     1      -1.415  11.755  18.265  0.00  0.00    +0.000 F 
ENDBRANCH   6  20
TORSDOF 2
ENDMDL
MODEL 4
REMARK VINA RESULT:      -8.0      2.148      2.719
REMARK  Name = 
REMARK  3 active torsions:
REMARK  status: ('A' for Active; 'I' for Inactive)
REMARK    1  A    between atoms: C_1  and  C_2
REMARK    2  A    between atoms: C_8  and  C_9
REMARK    3  A    between atoms: C_14  and  C_15
REMARK                            x       y       z     vdW  Elec       q    Type
REMARK                         _______ _______ _______ _____ _____    ______ ____
ROOT
ATOM      1  C   UNL     1       2.641   6.604  19.807  0.00  0.00    +0.000 C 
ATOM      2  O   UNL     1       2.920   7.301  18.832  0.00  0.00    +0.000 OA
ATOM      3  N   UNL     1       1.988   7.037  20.941  0.00  0.00    +0.000 N 
ATOM      4  C   UNL     1       1.388   8.262  20.991  0.00  0.00    +0.000 A 
ATOM      5  N   UNL     1       1.153   9.102  20.016  0.00  0.00    +0.000 NA
ATOM      6  C   UNL     1       0.531  10.237  20.508  0.00  0.00    +0.000 A 
ATOM      7  C   UNL     1       0.351  10.237  21.878  0.00  0.00    +0.000 A 
ATOM      8  S   UNL     1       0.869   8.738  22.542  0.00  0.00    +0.000 S 
ATOM      9  H   UNL     1       1.997   6.471  21.779  0.00  0.00    +0.000 HD
ENDROOT
BRANCH   1  17
ATOM     10  C   UNL     1       1.230   4.527  17.345  0.00  0.00    +0.000 C 
ATOM     11  C   UNL     1       2.357   3.827  18.105  0.00  0.00    +0.000 C 
ATOM     12  C   UNL     1       2.234   2.309  17.978  0.00  0.00    +0.000 C 
ATOM     13  C   UNL     1       2.738   1.769  19.302  0.00  0.00    +0.000 C 
ATOM     14  C   UNL     1       2.494   2.905  20.256  0.00  0.00    +0.000 C 
ATOM     15  O   UNL     1       2.589   2.831  21.472  0.00  0.00    +0.000 OA
ATOM     16  N   UNL     1       2.325   4.096  19.532  0.00  0.00    +0.000 N 
ATOM     17  C   UNL     1       3.219   5.188  19.954  0.00  0.00    +0.000 C 
ATOM     18  C   UNL     1       4.514   5.018  19.161  0.00  0.00    +0.000 C 
ATOM     19  S   UNL     1       3.976   4.444  17.517  0.00  0.00    +0.000 S 
ENDBRANCH   1  17
BRANCH   6  20
ATOM     20  C   UNL     1       0.151  11.325  19.614  0.00  0.00    +0.000 A 
ATOM     21  C   UNL     1       0.974  12.457  19.512  0.00  0.00    +0.000 A 
ATOM     22  C   UNL     1       0.629  13.502  18.660  0.00  0.00    +0.000 A 
ATOM     23  F   UNL     1       1.418  14.581  18.579  0.00  0.00    +0.000 F 
ATOM     24  C   UNL     1      -0.528  13.450  17.888  0.00  0.00    +0.000 A 
ATOM     25  C   UNL     1      -1.350  12.327  17.967  0.00  0.00    +0.000 A 
ATOM     26  C   UNL     1      -1.006  11.278  18.820  0.00  0.00    +0.000 A 
ATOM     27  F   UNL     1      -1.814  10.207  18.842  0.00  0.00    +0.000 F 
ENDBRANCH   6  20
TORSDOF 2
ENDMDL
MODEL 5
REMARK VINA RESULT:      -7.9      2.074      2.579
REMARK  Name = 
REMARK  3 active torsions:
REMARK  status: ('A' for Active; 'I' for Inactive)
REMARK    1  A    between atoms: C_1  and  C_2
REMARK    2  A    between atoms: C_8  and  C_9
REMARK    3  A    between atoms: C_14  and  C_15
REMARK                            x       y       z     vdW  Elec       q    Type
REMARK                         _______ _______ _______ _____ _____    ______ ____
ROOT
ATOM      1  C   UNL     1       2.758   6.535  19.632  0.00  0.00    +0.000 C 
ATOM      2  O   UNL     1       2.985   7.244  18.651  0.00  0.00    +0.000 OA
ATOM      3  N   UNL     1       2.125   6.944  20.785  0.00  0.00    +0.000 N 
ATOM      4  C   UNL     1       1.486   8.148  20.858  0.00  0.00    +0.000 A 
ATOM      5  N   UNL     1       1.196   8.983  19.893  0.00  0.00    +0.000 NA
ATOM      6  C   UNL     1       0.551  10.096  20.407  0.00  0.00    +0.000 A 
ATOM      7  C   UNL     1       0.411  10.085  21.782  0.00  0.00    +0.000 A 
ATOM      8  S   UNL     1       0.997   8.602  22.424  0.00  0.00    +0.000 S 
ATOM      9  H   UNL     1       2.176   6.376  21.620  0.00  0.00    +0.000 HD
ENDROOT
BRANCH   1  17
ATOM     10  C   UNL     1       1.293   4.401  17.252  0.00  0.00    +0.000 C 
ATOM     11  C   UNL     1       2.477   3.740  17.958  0.00  0.00    +0.000 C 
ATOM     12  C   UNL     1       2.395   2.219  17.845  0.00  0.00    +0.000 C 
ATOM     13  C   UNL     1       2.980   1.702  19.145  0.00  0.00    +0.000 C 
ATOM     14  C   UNL     1       2.748   2.837  20.105  0.00  0.00    +0.000 C 
ATOM     15  O   UNL     1       2.905   2.773  21.314  0.00  0.00    +0.000 OA
ATOM     16  N   UNL     1       2.507   4.017  19.384  0.00  0.00    +0.000 N 
ATOM     17  C   UNL     1       3.386   5.139  19.757  0.00  0.00    +0.000 C 
ATOM     18  C   UNL     1       4.646   5.005  18.901  0.00  0.00    +0.000 C 
ATOM     19  S   UNL     1       4.045   4.403  17.289  0.00  0.00    +0.000 S 
ENDBRANCH   1  17
BRANCH   6  20
ATOM     20  C   UNL     1       0.110  11.173  19.528  0.00  0.00    +0.000 A 
ATOM     21  C   UNL     1      -1.103  11.047  18.834  0.00  0.00    +0.000 A 
ATOM     22  C   UNL     1      -1.541  12.068  17.996  0.00  0.00    +0.000 A 
ATOM     23  F   UNL     1      -2.696  11.931  17.332  0.00  0.00    +0.000 F 
ATOM     24  C   UNL     1      -0.799  13.233  17.829  0.00  0.00    +0.000 A 
ATOM     25  C   UNL     1       0.402  13.380  18.521  0.00  0.00    +0.000 A 
ATOM     26  C   UNL     1       0.843  12.358  19.362  0.00  0.00    +0.000 A 
ATOM     27  F   UNL     1       1.992  12.557  20.028  0.00  0.00    +0.000 F 
ENDBRANCH   6  20
TORSDOF 2
ENDMDL
MODEL 6
REMARK VINA RESULT:      -7.9      3.865      8.576
REMARK  Name = 
REMARK  3 active torsions:
REMARK  status: ('A' for Active; 'I' for Inactive)
REMARK    1  A    between atoms: C_1  and  C_2
REMARK    2  A    between atoms: C_8  and  C_9
REMARK    3  A    between atoms: C_14  and  C_15
REMARK                            x       y       z     vdW  Elec       q    Type
REMARK                         _______ _______ _______ _____ _____    ______ ____
ROOT
ATOM      1  C   UNL     1       1.246   8.894  19.630  0.00  0.00    +0.000 C 
ATOM      2  O   UNL     1       1.722   9.107  18.515  0.00  0.00    +0.000 OA
ATOM      3  N   UNL     1       1.370   7.721  20.343  0.00  0.00    +0.000 N 
ATOM      4  C   UNL     1       2.239   6.741  19.954  0.00  0.00    +0.000 A 
ATOM      5  N   UNL     1       3.178   6.790  19.045  0.00  0.00    +0.000 NA
ATOM      6  C   UNL     1       3.820   5.566  18.961  0.00  0.00    +0.000 A 
ATOM      7  C   UNL     1       3.305   4.596  19.799  0.00  0.00    +0.000 A 
ATOM      8  S   UNL     1       2.067   5.266  20.787  0.00  0.00    +0.000 S 
ATOM      9  H   UNL     1       0.771   7.544  21.137  0.00  0.00    +0.000 HD
ENDROOT
BRANCH   1  17
ATOM     10  C   UNL     1       2.140  12.181  18.760  0.00  0.00    +0.000 C 
ATOM     11  C   UNL     1       0.785  12.126  19.467  0.00  0.00    +0.000 C 
ATOM     12  C   UNL     1       0.431  13.487  20.065  0.00  0.00    +0.000 C 
ATOM     13  C   UNL     1      -0.336  13.164  21.333  0.00  0.00    +0.000 C 
ATOM     14  C   UNL     1       0.170  11.798  21.706  0.00  0.00    +0.000 C 
ATOM     15  O   UNL     1      -0.053  11.234  22.767  0.00  0.00    +0.000 OA
ATOM     16  N   UNL     1       0.773  11.201  20.587  0.00  0.00    +0.000 N 
ATOM     17  C   UNL     1       0.238   9.869  20.255  0.00  0.00    +0.000 C 
ATOM     18  C   UNL     1      -0.968  10.101  19.344  0.00  0.00    +0.000 C 
ATOM     19  S   UNL     1      -0.495  11.523  18.307  0.00  0.00    +0.000 S 
ENDBRANCH   1  17
BRANCH   6  20
ATOM     20  C   UNL     1       4.921   5.365  18.025  0.00  0.00    +0.000 A 
ATOM     21  C   UNL     1       4.648   5.215  16.657  0.00  0.00    +0.000 A 
ATOM     22  C   UNL     1       5.687   5.028  15.750  0.00  0.00    +0.000 A 
ATOM     23  F   UNL     1       5.412   4.876  14.448  0.00  0.00    +0.000 F 
ATOM     24  C   UNL     1       7.013   4.991  16.171  0.00  0.00    +0.000 A 
ATOM     25  C   UNL     1       7.303   5.152  17.524  0.00  0.00    +0.000 A 
ATOM     26  C   UNL     1       6.263   5.340  18.435  0.00  0.00    +0.000 A 
ATOM     27  F   UNL     1       6.594   5.517  19.724  0.00  0.00    +0.000 F 
ENDBRANCH   6  20
TORSDOF 2
ENDMDL
MODEL 7
REMARK VINA RESULT:      -7.9      3.971      8.632
REMARK  Name = 
REMARK  3 active torsions:
REMARK  status: ('A' for Active; 'I' for Inactive)
REMARK    1  A    between atoms: C_1  and  C_2
REMARK    2  A    between atoms: C_8  and  C_9
REMARK    3  A    between atoms: C_14  and  C_15
REMARK                            x       y       z     vdW  Elec       q    Type
REMARK                         _______ _______ _______ _____ _____    ______ ____
ROOT
ATOM      1  C   UNL     1       1.047   9.132  19.562  0.00  0.00    +0.000 C 
ATOM      2  O   UNL     1       1.440   9.338  18.413  0.00  0.00    +0.000 OA
ATOM      3  N   UNL     1       1.248   7.974  20.281  0.00  0.00    +0.000 N 
ATOM      4  C   UNL     1       2.111   7.008  19.847  0.00  0.00    +0.000 A 
ATOM      5  N   UNL     1       2.984   7.064  18.874  0.00  0.00    +0.000 NA
ATOM      6  C   UNL     1       3.648   5.854  18.763  0.00  0.00    +0.000 A 
ATOM      7  C   UNL     1       3.214   4.885  19.649  0.00  0.00    +0.000 A 
ATOM      8  S   UNL     1       2.032   5.542  20.711  0.00  0.00    +0.000 S 
ATOM      9  H   UNL     1       0.710   7.796  21.117  0.00  0.00    +0.000 HD
ENDROOT
BRANCH   1  17
ATOM     10  C   UNL     1       2.096  12.440  18.993  0.00  0.00    +0.000 C 
ATOM     11  C   UNL     1       0.721  12.384  19.659  0.00  0.00    +0.000 C 
ATOM     12  C   UNL     1       0.404  13.704  20.360  0.00  0.00    +0.000 C 
ATOM     13  C   UNL     1      -0.410  13.310  21.577  0.00  0.00    +0.000 C 
ATOM     14  C   UNL     1       0.030  11.897  21.847  0.00  0.00    +0.000 C 
ATOM     15  O   UNL     1      -0.244  11.258  22.851  0.00  0.00    +0.000 OA
ATOM     16  N   UNL     1       0.640  11.370  20.697  0.00  0.00    +0.000 N 
ATOM     17  C   UNL     1       0.062  10.094  20.242  0.00  0.00    +0.000 C 
ATOM     18  C   UNL     1      -1.108  10.451  19.324  0.00  0.00    +0.000 C 
ATOM     19  S   UNL     1      -0.549  11.932  18.422  0.00  0.00    +0.000 S 
ENDBRANCH   1  17
BRANCH   6  20
ATOM     20  C   UNL     1       4.686   5.663  17.756  0.00  0.00    +0.000 A 
ATOM     21  C   UNL     1       5.837   6.465  17.788  0.00  0.00    +0.000 A 
ATOM     22  C   UNL     1       6.839   6.292  16.838  0.00  0.00    +0.000 A 
ATOM     23  F   UNL     1       7.928   7.071  16.873  0.00  0.00    +0.000 F 
ATOM     24  C   UNL     1       6.731   5.325  15.844  0.00  0.00    +0.000 A 
ATOM     25  C   UNL     1       5.600   4.511  15.806  0.00  0.00    +0.000 A 
ATOM     26  C   UNL     1       4.594   4.681  16.757  0.00  0.00    +0.000 A 
ATOM     27  F   UNL     1       3.537   3.856  16.696  0.00  0.00    +0.000 F 
ENDBRANCH   6  20
TORSDOF 2
ENDMDL
MODEL 8
REMARK VINA RESULT:      -7.8      3.956      8.566
REMARK  Name = 
REMARK  3 active torsions:
REMARK  status: ('A' for Active; 'I' for Inactive)
REMARK    1  A    between atoms: C_1  and  C_2
REMARK    2  A    between atoms: C_8  and  C_9
REMARK    3  A    between atoms: C_14  and  C_15
REMARK                            x       y       z     vdW  Elec       q    Type
REMARK                         _______ _______ _______ _____ _____    ______ ____
ROOT
ATOM      1  C   UNL     1       1.558   9.487  18.314  0.00  0.00    +0.000 C 
ATOM      2  O   UNL     1       2.145   9.399  17.236  0.00  0.00    +0.000 OA
ATOM      3  N   UNL     1       1.503   8.503  19.278  0.00  0.00    +0.000 N 
ATOM      4  C   UNL     1       2.296   7.394  19.207  0.00  0.00    +0.000 A 
ATOM      5  N   UNL     1       3.308   7.157  18.413  0.00  0.00    +0.000 NA
ATOM      6  C   UNL     1       3.827   5.899  18.668  0.00  0.00    +0.000 A 
ATOM      7  C   UNL     1       3.147   5.191  19.642  0.00  0.00    +0.000 A 
ATOM      8  S   UNL     1       1.906   6.168  20.323  0.00  0.00    +0.000 S 
ATOM      9  H   UNL     1       0.825   8.562  20.025  0.00  0.00    +0.000 HD
ENDROOT
BRANCH   1  17
ATOM     10  C   UNL     1       1.100   9.770  21.789  0.00  0.00    +0.000 C 
ATOM     11  C   UNL     1       0.468  10.939  21.033  0.00  0.00    +0.000 C 
ATOM     12  C   UNL     1      -0.606  11.617  21.883  0.00  0.00    +0.000 C 
ATOM     13  C   UNL     1      -1.653  12.077  20.888  0.00  0.00    +0.000 C 
ATOM     14  C   UNL     1      -1.473  11.131  19.733  0.00  0.00    +0.000 C 
ATOM     15  O   UNL     1      -2.236  11.031  18.784  0.00  0.00    +0.000 OA
ATOM     16  N   UNL     1      -0.211  10.522  19.819  0.00  0.00    +0.000 N 
ATOM     17  C   UNL     1       0.606  10.658  18.601  0.00  0.00    +0.000 C 
ATOM     18  C   UNL     1       1.359  11.983  18.729  0.00  0.00    +0.000 C 
ATOM     19  S   UNL     1       1.771  12.108  20.500  0.00  0.00    +0.000 S 
ENDBRANCH   1  17
BRANCH   6  20
ATOM     20  C   UNL     1       4.975   5.400  17.920  0.00  0.00    +0.000 A 
ATOM     21  C   UNL     1       4.827   5.066  16.565  0.00  0.00    +0.000 A 
ATOM     22  C   UNL     1       5.913   4.594  15.835  0.00  0.00    +0.000 A 
ATOM     23  F   UNL     1       5.756   4.270  14.545  0.00  0.00    +0.000 F 
ATOM     24  C   UNL     1       7.167   4.448  16.421  0.00  0.00    +0.000 A 
ATOM     25  C   UNL     1       7.335   4.788  17.762  0.00  0.00    +0.000 A 
ATOM     26  C   UNL     1       6.247   5.262  18.496  0.00  0.00    +0.000 A 
ATOM     27  F   UNL     1       6.465   5.602  19.777  0.00  0.00    +0.000 F 
ENDBRANCH   6  20
TORSDOF 2
ENDMDL
MODEL 9
REMARK VINA RESULT:      -7.8      2.072      2.683
REMARK  Name = 
REMARK  3 active torsions:
REMARK  status: ('A' for Active; 'I' for Inactive)
REMARK    1  A    between atoms: C_1  and  C_2
REMARK    2  A    between atoms: C_8  and  C_9
REMARK    3  A    between atoms: C_14  and  C_15
REMARK                            x       y       z     vdW  Elec       q    Type
REMARK                         _______ _______ _______ _____ _____    ______ ____
ROOT
ATOM      1  C   UNL     1       2.488   6.395  19.622  0.00  0.00    +0.000 C 
ATOM      2  O   UNL     1       2.220   6.757  18.477  0.00  0.00    +0.000 OA
ATOM      3  N   UNL     1       2.200   7.097  20.772  0.00  0.00    +0.000 N 
ATOM      4  C   UNL     1       1.377   8.186  20.753  0.00  0.00    +0.000 A 
ATOM      5  N   UNL     1       0.611   8.619  19.785  0.00  0.00    +0.000 NA
ATOM      6  C   UNL     1      -0.051   9.769  20.183  0.00  0.00    +0.000 A 
ATOM      7  C   UNL     1       0.276  10.202  21.454  0.00  0.00    +0.000 A 
ATOM      8  S   UNL     1       1.348   9.083  22.200  0.00  0.00    +0.000 S 
ATOM      9  H   UNL     1       2.646   6.848  21.644  0.00  0.00    +0.000 HD
ENDROOT
BRANCH   1  17
ATOM     10  C   UNL     1       1.823   3.924  17.211  0.00  0.00    +0.000 C 
ATOM     11  C   UNL     1       3.047   3.578  18.059  0.00  0.00    +0.000 C 
ATOM     12  C   UNL     1       3.336   2.078  18.008  0.00  0.00    +0.000 C 
ATOM     13  C   UNL     1       3.883   1.743  19.382  0.00  0.00    +0.000 C 
ATOM     14  C   UNL     1       3.292   2.810  20.261  0.00  0.00    +0.000 C 
ATOM     15  O   UNL     1       3.330   2.812  21.482  0.00  0.00    +0.000 OA
ATOM     16  N   UNL     1       2.860   3.885  19.467  0.00  0.00    +0.000 N 
ATOM     17  C   UNL     1       3.408   5.190  19.872  0.00  0.00    +0.000 C 
ATOM     18  C   UNL     1       4.748   5.340  19.152  0.00  0.00    +0.000 C 
ATOM     19  S   UNL     1       4.479   4.579  17.517  0.00  0.00    +0.000 S 
ENDBRANCH   1  17
BRANCH   6  20
ATOM     20  C   UNL     1      -0.980  10.443  19.282  0.00  0.00    +0.000 A 
ATOM     21  C   UNL     1      -1.151   9.961  17.976  0.00  0.00    +0.000 A 
ATOM     22  C   UNL     1      -2.037  10.589  17.106  0.00  0.00    +0.000 A 
ATOM     23  F   UNL     1      -2.183  10.125  15.858  0.00  0.00    +0.000 F 
ATOM     24  C   UNL     1      -2.776  11.698  17.506  0.00  0.00    +0.000 A 
ATOM     25  C   UNL     1      -2.629  12.181  18.805  0.00  0.00    +0.000 A 
ATOM     26  C   UNL     1      -1.741  11.554  19.679  0.00  0.00    +0.000 A 
ATOM     27  F   UNL     1      -1.654  12.039  20.928  0.00  0.00    +0.000 F 
ENDBRANCH   6  20
TORSDOF 2
ENDMDL
