MODEL 1
REMARK VINA RESULT:      -7.0      0.000      0.000
REMARK  Name = 
REMARK  13 active torsions:
REMARK  status: ('A' for Active; 'I' for Inactive)
REMARK    1  A    between atoms: C_1  and  C_2
REMARK    2  A    between atoms: C_2  and  O_3
REMARK    3  A    between atoms: O_3  and  C_4
REMARK    4  A    between atoms: C_4  and  C_6
REMARK    5  A    between atoms: N_10  and  C_11
REMARK    6  A    between atoms: C_11  and  C_12
REMARK    7  A    between atoms: N_14  and  C_15
REMARK    8  A    between atoms: C_15  and  C_16
REMARK    9  A    between atoms: C_16  and  O_17
REMARK   10  A    between atoms: C_16  and  C_18
REMARK   11  A    between atoms: C_18  and  O_19
REMARK   12  A    between atoms: O_19  and  C_20
REMARK   13  A    between atoms: C_20  and  C_21
REMARK                            x       y       z     vdW  Elec       q    Type
REMARK                         _______ _______ _______ _____ _____    ______ ____
ROOT
ATOM      1  C   UNL     1       2.760   6.916  18.707  0.00  0.00    +0.000 A 
ATOM      2  C   UNL     1       2.123   6.759  19.920  0.00  0.00    +0.000 A 
ATOM      3  N   UNL     1       1.410   7.911  20.061  0.00  0.00    +0.000 N 
ATOM      4  N   UNL     1       1.677   8.779  19.070  0.00  0.00    +0.000 NA
ATOM      5  N   UNL     1       2.517   8.185  18.239  0.00  0.00    +0.000 NA
ENDROOT
BRANCH   1   6
ATOM      6  C   UNL     1       3.542   5.944  17.890  0.00  0.00    +0.000 C 
BRANCH   6  11
ATOM      7  C   UNL     1       2.502   2.265  17.841  0.00  0.00    +0.000 C 
ATOM      8  C   UNL     1       3.783   1.663  18.426  0.00  0.00    +0.000 C 
ATOM      9  C   UNL     1       4.446   2.600  19.433  0.00  0.00    +0.000 C 
ATOM     10  C   UNL     1       4.614   4.017  18.882  0.00  0.00    +0.000 C 
ATOM     11  N   UNL     1       3.344   4.559  18.381  0.00  0.00    +0.000 NA
ATOM     12  C   UNL     1       2.784   3.682  17.329  0.00  0.00    +0.000 C 
BRANCH   7  13
ATOM     13  C   UNL     1       1.296   2.285  18.774  0.00  0.00    +0.000 C 
ATOM     14  O   UNL     1       0.128   2.346  18.401  0.00  0.00    +0.000 OA
BRANCH  13  15
ATOM     15  O   UNL     1       1.669   2.129  20.075  0.00  0.00    +0.000 OA
BRANCH  15  17
ATOM     16  C   UNL     1       2.236   3.534  21.952  0.00  0.00    +0.000 C 
ATOM     17  C   UNL     1       1.145   3.103  20.990  0.00  0.00    +0.000 C 
ENDBRANCH  15  17
ENDBRANCH  13  15
ENDBRANCH   7  13
ENDBRANCH   6  11
ENDBRANCH   1   6
BRANCH   3  18
ATOM     18  C   UNL     1       0.392   8.228  21.035  0.00  0.00    +0.000 C 
BRANCH  18  19
ATOM     19  C   UNL     1       0.839   9.278  22.064  0.00  0.00    +0.000 C 
BRANCH  19  20
ATOM     20  O   UNL     1       2.187   9.093  22.496  0.00  0.00    +0.000 OA
ATOM     21  H   UNL     1       2.588   9.976  22.631  0.00  0.00    +0.000 HD
ENDBRANCH  19  20
BRANCH  19  22
ATOM     22  C   UNL     1       0.606  10.724  21.596  0.00  0.00    +0.000 C 
BRANCH  22  23
ATOM     23  O   UNL     1      -0.652  10.881  20.938  0.00  0.00    +0.000 OA
BRANCH  23  24
ATOM     24  C   UNL     1      -0.583  11.707  19.776  0.00  0.00    +0.000 C 
BRANCH  24  25
ATOM     25  C   UNL     1      -1.627  11.233  18.801  0.00  0.00    +0.000 A 
ATOM     26  C   UNL     1      -1.338  10.217  17.880  0.00  0.00    +0.000 A 
ATOM     27  C   UNL     1      -2.312   9.790  16.977  0.00  0.00    +0.000 A 
ATOM     28  C   UNL     1      -3.576  10.376  16.985  0.00  0.00    +0.000 A 
ATOM     29  C   UNL     1      -3.870  11.392  17.898  0.00  0.00    +0.000 A 
ATOM     30  C   UNL     1      -2.899  11.817  18.799  0.00  0.00    +0.000 A 
ENDBRANCH  24  25
ENDBRANCH  23  24
ENDBRANCH  22  23
ENDBRANCH  19  22
ENDBRANCH  18  19
ENDBRANCH   3  18
TORSDOF 12
ENDMDL
MODEL 2
REMARK VINA RESULT:      -6.9      2.966      4.197
REMARK  Name = 
REMARK  13 active torsions:
REMARK  status: ('A' for Active; 'I' for Inactive)
REMARK    1  A    between atoms: C_1  and  C_2
REMARK    2  A    between atoms: C_2  and  O_3
REMARK    3  A    between atoms: O_3  and  C_4
REMARK    4  A    between atoms: C_4  and  C_6
REMARK    5  A    between atoms: N_10  and  C_11
REMARK    6  A    between atoms: C_11  and  C_12
REMARK    7  A    between atoms: N_14  and  C_15
REMARK    8  A    between atoms: C_15  and  C_16
REMARK    9  A    between atoms: C_16  and  O_17
REMARK   10  A    between atoms: C_16  and  C_18
REMARK   11  A    between atoms: C_18  and  O_19
REMARK   12  A    between atoms: O_19  and  C_20
REMARK   13  A    between atoms: C_20  and  C_21
REMARK                            x       y       z     vdW  Elec       q    Type
REMARK                         _______ _______ _______ _____ _____    ______ ____
ROOT
ATOM      1  C   UNL     1       2.901   5.344  19.255  0.00  0.00    +0.000 A 
ATOM      2  C   UNL     1       2.843   6.694  18.980  0.00  0.00    +0.000 A 
ATOM      3  N   UNL     1       2.053   7.191  19.972  0.00  0.00    +0.000 N 
ATOM      4  N   UNL     1       1.551   6.209  20.740  0.00  0.00    +0.000 NA
ATOM      5  N   UNL     1       2.053   5.067  20.300  0.00  0.00    +0.000 NA
ENDROOT
BRANCH   1   6
ATOM      6  C   UNL     1       3.745   4.269  18.659  0.00  0.00    +0.000 C 
BRANCH   6  11
ATOM      7  C   UNL     1       7.297   4.746  17.324  0.00  0.00    +0.000 C 
ATOM      8  C   UNL     1       6.964   4.825  15.831  0.00  0.00    +0.000 C 
ATOM      9  C   UNL     1       5.605   5.473  15.581  0.00  0.00    +0.000 C 
ATOM     10  C   UNL     1       4.501   4.849  16.436  0.00  0.00    +0.000 C 
ATOM     11  N   UNL     1       4.855   4.847  17.863  0.00  0.00    +0.000 NA
ATOM     12  C   UNL     1       6.122   4.116  18.082  0.00  0.00    +0.000 C 
BRANCH   7  13
ATOM     13  C   UNL     1       7.687   6.065  17.984  0.00  0.00    +0.000 C 
ATOM     14  O   UNL     1       7.939   6.197  19.177  0.00  0.00    +0.000 OA
BRANCH  13  15
ATOM     15  O   UNL     1       7.816   7.063  17.066  0.00  0.00    +0.000 OA
BRANCH  15  17
ATOM     16  C   UNL     1       8.415   9.177  18.061  0.00  0.00    +0.000 C 
ATOM     17  C   UNL     1       7.298   8.340  17.465  0.00  0.00    +0.000 C 
ENDBRANCH  15  17
ENDBRANCH  13  15
ENDBRANCH   7  13
ENDBRANCH   6  11
ENDBRANCH   1   6
BRANCH   3  18
ATOM     18  C   UNL     1       1.806   8.571  20.322  0.00  0.00    +0.000 C 
BRANCH  18  19
ATOM     19  C   UNL     1       1.049   8.736  21.650  0.00  0.00    +0.000 C 
BRANCH  19  20
ATOM     20  O   UNL     1       1.868   9.265  22.693  0.00  0.00    +0.000 OA
ATOM     21  H   UNL     1       2.393  10.004  22.323  0.00  0.00    +0.000 HD
ENDBRANCH  19  20
BRANCH  19  22
ATOM     22  C   UNL     1      -0.252   9.541  21.511  0.00  0.00    +0.000 C 
BRANCH  22  23
ATOM     23  O   UNL     1      -0.703   9.606  20.157  0.00  0.00    +0.000 OA
BRANCH  23  24
ATOM     24  C   UNL     1      -1.008  10.932  19.725  0.00  0.00    +0.000 C 
BRANCH  24  25
ATOM     25  C   UNL     1      -1.928  10.839  18.538  0.00  0.00    +0.000 A 
ATOM     26  C   UNL     1      -1.606  10.025  17.443  0.00  0.00    +0.000 A 
ATOM     27  C   UNL     1      -2.464   9.952  16.346  0.00  0.00    +0.000 A 
ATOM     28  C   UNL     1      -3.645  10.690  16.332  0.00  0.00    +0.000 A 
ATOM     29  C   UNL     1      -3.971  11.506  17.419  0.00  0.00    +0.000 A 
ATOM     30  C   UNL     1      -3.116  11.580  18.514  0.00  0.00    +0.000 A 
ENDBRANCH  24  25
ENDBRANCH  23  24
ENDBRANCH  22  23
ENDBRANCH  19  22
ENDBRANCH  18  19
ENDBRANCH   3  18
TORSDOF 12
ENDMDL
MODEL 3
REMARK VINA RESULT:      -6.8      3.615      9.560
REMARK  Name = 
REMARK  13 active torsions:
REMARK  status: ('A' for Active; 'I' for Inactive)
REMARK    1  A    between atoms: C_1  and  C_2
REMARK    2  A    between atoms: C_2  and  O_3
REMARK    3  A    between atoms: O_3  and  C_4
REMARK    4  A    between atoms: C_4  and  C_6
REMARK    5  A    between atoms: N_10  and  C_11
REMARK    6  A    between atoms: C_11  and  C_12
REMARK    7  A    between atoms: N_14  and  C_15
REMARK    8  A    between atoms: C_15  and  C_16
REMARK    9  A    between atoms: C_16  and  O_17
REMARK   10  A    between atoms: C_16  and  C_18
REMARK   11  A    between atoms: C_18  and  O_19
REMARK   12  A    between atoms: O_19  and  C_20
REMARK   13  A    between atoms: C_20  and  C_21
REMARK                            x       y       z     vdW  Elec       q    Type
REMARK                         _______ _______ _______ _____ _____    ______ ____
ROOT
ATOM      1  C   UNL     1      -2.927  10.875  17.813  0.00  0.00    +0.000 A 
ATOM      2  C   UNL     1      -2.001  10.954  18.833  0.00  0.00    +0.000 A 
ATOM      3  N   UNL     1      -0.960  10.201  18.381  0.00  0.00    +0.000 N 
ATOM      4  N   UNL     1      -1.259   9.593  17.221  0.00  0.00    +0.000 NA
ATOM      5  N   UNL     1      -2.471   9.988  16.868  0.00  0.00    +0.000 NA
ENDROOT
BRANCH   1   6
ATOM      6  C   UNL     1      -4.202  11.620  17.602  0.00  0.00    +0.000 C 
BRANCH   6  11
ATOM      7  C   UNL     1      -6.399  12.838  20.484  0.00  0.00    +0.000 C 
ATOM      8  C   UNL     1      -7.554  11.845  20.318  0.00  0.00    +0.000 C 
ATOM      9  C   UNL     1      -7.075  10.490  19.804  0.00  0.00    +0.000 C 
ATOM     10  C   UNL     1      -6.180  10.623  18.570  0.00  0.00    +0.000 C 
ATOM     11  N   UNL     1      -5.063  11.548  18.806  0.00  0.00    +0.000 NA
ATOM     12  C   UNL     1      -5.568  12.882  19.197  0.00  0.00    +0.000 C 
BRANCH   7  13
ATOM     13  C   UNL     1      -5.484  12.591  21.680  0.00  0.00    +0.000 C 
ATOM     14  O   UNL     1      -4.293  12.883  21.715  0.00  0.00    +0.000 OA
BRANCH  13  15
ATOM     15  O   UNL     1      -6.176  12.094  22.743  0.00  0.00    +0.000 OA
BRANCH  15  17
ATOM     16  C   UNL     1      -7.173  13.976  23.874  0.00  0.00    +0.000 C 
ATOM     17  C   UNL     1      -6.121  12.884  23.940  0.00  0.00    +0.000 C 
ENDBRANCH  15  17
ENDBRANCH  13  15
ENDBRANCH   7  13
ENDBRANCH   6  11
ENDBRANCH   1   6
BRANCH   3  18
ATOM     18  C   UNL     1       0.372  10.085  18.928  0.00  0.00    +0.000 C 
BRANCH  18  19
ATOM     19  C   UNL     1       1.465   9.989  17.852  0.00  0.00    +0.000 C 
BRANCH  19  20
ATOM     20  O   UNL     1       2.342  11.116  17.850  0.00  0.00    +0.000 OA
ATOM     21  H   UNL     1       3.134  10.887  18.378  0.00  0.00    +0.000 HD
ENDBRANCH  19  20
BRANCH  19  22
ATOM     22  C   UNL     1       2.261   8.675  17.910  0.00  0.00    +0.000 C 
BRANCH  22  23
ATOM     23  O   UNL     1       1.883   7.865  19.023  0.00  0.00    +0.000 OA
BRANCH  23  24
ATOM     24  C   UNL     1       2.856   6.877  19.360  0.00  0.00    +0.000 C 
BRANCH  24  25
ATOM     25  C   UNL     1       2.181   5.531  19.353  0.00  0.00    +0.000 A 
ATOM     26  C   UNL     1       1.705   4.961  20.542  0.00  0.00    +0.000 A 
ATOM     27  C   UNL     1       1.087   3.711  20.522  0.00  0.00    +0.000 A 
ATOM     28  C   UNL     1       0.941   3.022  19.321  0.00  0.00    +0.000 A 
ATOM     29  C   UNL     1       1.416   3.583  18.132  0.00  0.00    +0.000 A 
ATOM     30  C   UNL     1       2.033   4.830  18.150  0.00  0.00    +0.000 A 
ENDBRANCH  24  25
ENDBRANCH  23  24
ENDBRANCH  22  23
ENDBRANCH  19  22
ENDBRANCH  18  19
ENDBRANCH   3  18
TORSDOF 12
ENDMDL
MODEL 4
REMARK VINA RESULT:      -6.6      1.860      8.111
REMARK  Name = 
REMARK  13 active torsions:
REMARK  status: ('A' for Active; 'I' for Inactive)
REMARK    1  A    between atoms: C_1  and  C_2
REMARK    2  A    between atoms: C_2  and  O_3
REMARK    3  A    between atoms: O_3  and  C_4
REMARK    4  A    between atoms: C_4  and  C_6
REMARK    5  A    between atoms: N_10  and  C_11
REMARK    6  A    between atoms: C_11  and  C_12
REMARK    7  A    between atoms: N_14  and  C_15
REMARK    8  A    between atoms: C_15  and  C_16
REMARK    9  A    between atoms: C_16  and  O_17
REMARK   10  A    between atoms: C_16  and  C_18
REMARK   11  A    between atoms: C_18  and  O_19
REMARK   12  A    between atoms: O_19  and  C_20
REMARK   13  A    between atoms: C_20  and  C_21
REMARK                            x       y       z     vdW  Elec       q    Type
REMARK                         _______ _______ _______ _____ _____    ______ ____
ROOT
ATOM      1  C   UNL     1       2.362   8.932  18.237  0.00  0.00    +0.000 A 
ATOM      2  C   UNL     1       3.267   8.185  17.512  0.00  0.00    +0.000 A 
ATOM      3  N   UNL     1       3.170   6.941  18.059  0.00  0.00    +0.000 N 
ATOM      4  N   UNL     1       2.357   6.936  19.129  0.00  0.00    +0.000 NA
ATOM      5  N   UNL     1       1.865   8.158  19.258  0.00  0.00    +0.000 NA
ENDROOT
BRANCH   1   6
ATOM      6  C   UNL     1       1.856  10.318  18.021  0.00  0.00    +0.000 C 
BRANCH   6  11
ATOM      7  C   UNL     1      -0.166  12.306  20.587  0.00  0.00    +0.000 C 
ATOM      8  C   UNL     1      -1.552  12.137  19.956  0.00  0.00    +0.000 C 
ATOM      9  C   UNL     1      -1.700  10.791  19.252  0.00  0.00    +0.000 C 
ATOM     10  C   UNL     1      -0.539  10.507  18.297  0.00  0.00    +0.000 C 
ATOM     11  N   UNL     1       0.762  10.636  18.969  0.00  0.00    +0.000 NA
ATOM     12  C   UNL     1       0.916  11.988  19.547  0.00  0.00    +0.000 C 
BRANCH   7  13
ATOM     13  C   UNL     1       0.086  11.496  21.854  0.00  0.00    +0.000 C 
ATOM     14  O   UNL     1      -0.549  11.623  22.897  0.00  0.00    +0.000 OA
BRANCH  13  15
ATOM     15  O   UNL     1       1.040  10.544  21.657  0.00  0.00    +0.000 OA
BRANCH  15  17
ATOM     16  C   UNL     1      -0.293   8.541  21.827  0.00  0.00    +0.000 C 
ATOM     17  C   UNL     1       0.866   9.331  22.405  0.00  0.00    +0.000 C 
ENDBRANCH  15  17
ENDBRANCH  13  15
ENDBRANCH   7  13
ENDBRANCH   6  11
ENDBRANCH   1   6
BRANCH   3  18
ATOM     18  C   UNL     1       3.726   5.698  17.577  0.00  0.00    +0.000 C 
BRANCH  18  19
ATOM     19  C   UNL     1       4.915   5.198  18.413  0.00  0.00    +0.000 C 
BRANCH  19  20
ATOM     20  O   UNL     1       4.775   5.487  19.804  0.00  0.00    +0.000 OA
ATOM     21  H   UNL     1       5.660   5.425  20.218  0.00  0.00    +0.000 HD
ENDBRANCH  19  20
BRANCH  19  22
ATOM     22  C   UNL     1       5.230   3.710  18.191  0.00  0.00    +0.000 C 
BRANCH  22  23
ATOM     23  O   UNL     1       4.249   3.068  17.375  0.00  0.00    +0.000 OA
BRANCH  23  24
ATOM     24  C   UNL     1       3.643   1.938  18.002  0.00  0.00    +0.000 C 
BRANCH  24  25
ATOM     25  C   UNL     1       2.818   2.430  19.161  0.00  0.00    +0.000 A 
ATOM     26  C   UNL     1       3.284   2.304  20.477  0.00  0.00    +0.000 A 
ATOM     27  C   UNL     1       2.508   2.759  21.543  0.00  0.00    +0.000 A 
ATOM     28  C   UNL     1       1.264   3.338  21.304  0.00  0.00    +0.000 A 
ATOM     29  C   UNL     1       0.792   3.464  19.995  0.00  0.00    +0.000 A 
ATOM     30  C   UNL     1       1.565   3.011  18.931  0.00  0.00    +0.000 A 
ENDBRANCH  24  25
ENDBRANCH  23  24
ENDBRANCH  22  23
ENDBRANCH  19  22
ENDBRANCH  18  19
ENDBRANCH   3  18
TORSDOF 12
ENDMDL
MODEL 5
REMARK VINA RESULT:      -6.5      2.942      4.144
REMARK  Name = 
REMARK  13 active torsions:
REMARK  status: ('A' for Active; 'I' for Inactive)
REMARK    1  A    between atoms: C_1  and  C_2
REMARK    2  A    between atoms: C_2  and  O_3
REMARK    3  A    between atoms: O_3  and  C_4
REMARK    4  A    between atoms: C_4  and  C_6
REMARK    5  A    between atoms: N_10  and  C_11
REMARK    6  A    between atoms: C_11  and  C_12
REMARK    7  A    between atoms: N_14  and  C_15
REMARK    8  A    between atoms: C_15  and  C_16
REMARK    9  A    between atoms: C_16  and  O_17
REMARK   10  A    between atoms: C_16  and  C_18
REMARK   11  A    between atoms: C_18  and  O_19
REMARK   12  A    between atoms: O_19  and  C_20
REMARK   13  A    between atoms: C_20  and  C_21
REMARK                            x       y       z     vdW  Elec       q    Type
REMARK                         _______ _______ _______ _____ _____    ______ ____
ROOT
ATOM      1  C   UNL     1       2.535   7.413  18.716  0.00  0.00    +0.000 A 
ATOM      2  C   UNL     1       1.824   8.183  19.613  0.00  0.00    +0.000 A 
ATOM      3  N   UNL     1       1.625   9.353  18.944  0.00  0.00    +0.000 N 
ATOM      4  N   UNL     1       2.269   9.362  17.764  0.00  0.00    +0.000 NA
ATOM      5  N   UNL     1       2.845   8.180  17.619  0.00  0.00    +0.000 NA
ENDROOT
BRANCH   1   6
ATOM      6  C   UNL     1       2.907   5.969  18.761  0.00  0.00    +0.000 C 
BRANCH   6  11
ATOM      7  C   UNL     1       6.651   5.464  18.170  0.00  0.00    +0.000 C 
ATOM      8  C   UNL     1       6.570   4.221  17.278  0.00  0.00    +0.000 C 
ATOM      9  C   UNL     1       5.315   4.222  16.409  0.00  0.00    +0.000 C 
ATOM     10  C   UNL     1       4.048   4.493  17.222  0.00  0.00    +0.000 C 
ATOM     11  N   UNL     1       4.166   5.723  18.018  0.00  0.00    +0.000 NA
ATOM     12  C   UNL     1       5.330   5.644  18.927  0.00  0.00    +0.000 C 
BRANCH   7  13
ATOM     13  C   UNL     1       7.017   6.763  17.459  0.00  0.00    +0.000 C 
ATOM     14  O   UNL     1       6.523   7.139  16.401  0.00  0.00    +0.000 OA
BRANCH  13  15
ATOM     15  O   UNL     1       7.892   7.505  18.194  0.00  0.00    +0.000 OA
BRANCH  15  17
ATOM     16  C   UNL     1       8.957   9.594  18.759  0.00  0.00    +0.000 C 
ATOM     17  C   UNL     1       7.979   8.892  17.836  0.00  0.00    +0.000 C 
ENDBRANCH  15  17
ENDBRANCH  13  15
ENDBRANCH   7  13
ENDBRANCH   6  11
ENDBRANCH   1   6
BRANCH   3  18
ATOM     18  C   UNL     1       0.767  10.460  19.299  0.00  0.00    +0.000 C 
BRANCH  18  19
ATOM     19  C   UNL     1       0.226  10.375  20.735  0.00  0.00    +0.000 C 
BRANCH  19  20
ATOM     20  O   UNL     1       1.239  10.574  21.722  0.00  0.00    +0.000 OA
ATOM     21  H   UNL     1       1.544   9.696  22.026  0.00  0.00    +0.000 HD
ENDBRANCH  19  20
BRANCH  19  22
ATOM     22  C   UNL     1      -0.976  11.299  20.987  0.00  0.00    +0.000 C 
BRANCH  22  23
ATOM     23  O   UNL     1      -1.393  11.975  19.801  0.00  0.00    +0.000 OA
BRANCH  23  24
ATOM     24  C   UNL     1      -2.802  11.914  19.579  0.00  0.00    +0.000 C 
BRANCH  24  25
ATOM     25  C   UNL     1      -3.038  11.333  18.211  0.00  0.00    +0.000 A 
ATOM     26  C   UNL     1      -2.135  10.415  17.657  0.00  0.00    +0.000 A 
ATOM     27  C   UNL     1      -2.361   9.888  16.386  0.00  0.00    +0.000 A 
ATOM     28  C   UNL     1      -3.485  10.274  15.659  0.00  0.00    +0.000 A 
ATOM     29  C   UNL     1      -4.388  11.191  16.204  0.00  0.00    +0.000 A 
ATOM     30  C   UNL     1      -4.163  11.717  17.473  0.00  0.00    +0.000 A 
ENDBRANCH  24  25
ENDBRANCH  23  24
ENDBRANCH  22  23
ENDBRANCH  19  22
ENDBRANCH  18  19
ENDBRANCH   3  18
TORSDOF 12
ENDMDL
MODEL 6
REMARK VINA RESULT:      -6.5      2.538      8.864
REMARK  Name = 
REMARK  13 active torsions:
REMARK  status: ('A' for Active; 'I' for Inactive)
REMARK    1  A    between atoms: C_1  and  C_2
REMARK    2  A    between atoms: C_2  and  O_3
REMARK    3  A    between atoms: O_3  and  C_4
REMARK    4  A    between atoms: C_4  and  C_6
REMARK    5  A    between atoms: N_10  and  C_11
REMARK    6  A    between atoms: C_11  and  C_12
REMARK    7  A    between atoms: N_14  and  C_15
REMARK    8  A    between atoms: C_15  and  C_16
REMARK    9  A    between atoms: C_16  and  O_17
REMARK   10  A    between atoms: C_16  and  C_18
REMARK   11  A    between atoms: C_18  and  O_19
REMARK   12  A    between atoms: O_19  and  C_20
REMARK   13  A    between atoms: C_20  and  C_21
REMARK                            x       y       z     vdW  Elec       q    Type
REMARK                         _______ _______ _______ _____ _____    ______ ____
ROOT
ATOM      1  C   UNL     1       1.480   8.356  20.285  0.00  0.00    +0.000 A 
ATOM      2  C   UNL     1       2.146   8.210  19.085  0.00  0.00    +0.000 A 
ATOM      3  N   UNL     1       2.386   6.871  19.012  0.00  0.00    +0.000 N 
ATOM      4  N   UNL     1       2.010   6.240  20.138  0.00  0.00    +0.000 NA
ATOM      5  N   UNL     1       1.465   7.145  20.934  0.00  0.00    +0.000 NA
ENDROOT
BRANCH   1   6
ATOM      6  C   UNL     1       0.782   9.537  20.868  0.00  0.00    +0.000 C 
BRANCH   6  11
ATOM      7  C   UNL     1      -1.618  11.789  18.920  0.00  0.00    +0.000 C 
ATOM      8  C   UNL     1      -0.682  12.983  18.712  0.00  0.00    +0.000 C 
ATOM      9  C   UNL     1       0.775  12.551  18.565  0.00  0.00    +0.000 C 
ATOM     10  C   UNL     1       1.211  11.601  19.682  0.00  0.00    +0.000 C 
ATOM     11  N   UNL     1       0.305  10.450  19.801  0.00  0.00    +0.000 NA
ATOM     12  C   UNL     1      -1.081  10.904  20.051  0.00  0.00    +0.000 C 
BRANCH   7  13
ATOM     13  C   UNL     1      -1.886  10.937  17.683  0.00  0.00    +0.000 C 
ATOM     14  O   UNL     1      -1.226   9.954  17.360  0.00  0.00    +0.000 OA
BRANCH  13  15
ATOM     15  O   UNL     1      -3.010  11.344  17.031  0.00  0.00    +0.000 OA
BRANCH  15  17
ATOM     16  C   UNL     1      -5.326  12.020  17.031  0.00  0.00    +0.000 C 
ATOM     17  C   UNL     1      -4.209  11.363  17.820  0.00  0.00    +0.000 C 
ENDBRANCH  15  17
ENDBRANCH  13  15
ENDBRANCH   7  13
ENDBRANCH   6  11
ENDBRANCH   1   6
BRANCH   3  18
ATOM     18  C   UNL     1       2.868   6.102  17.888  0.00  0.00    +0.000 C 
BRANCH  18  19
ATOM     19  C   UNL     1       2.627   4.591  18.035  0.00  0.00    +0.000 C 
BRANCH  19  20
ATOM     20  O   UNL     1       1.379   4.173  17.483  0.00  0.00    +0.000 OA
ATOM     21  H   UNL     1       1.555   3.454  16.842  0.00  0.00    +0.000 HD
ENDBRANCH  19  20
BRANCH  19  22
ATOM     22  C   UNL     1       3.782   3.736  17.492  0.00  0.00    +0.000 C 
BRANCH  22  23
ATOM     23  O   UNL     1       4.356   4.294  16.310  0.00  0.00    +0.000 OA
BRANCH  23  24
ATOM     24  C   UNL     1       5.749   4.016  16.171  0.00  0.00    +0.000 C 
BRANCH  24  25
ATOM     25  C   UNL     1       6.514   5.033  16.974  0.00  0.00    +0.000 A 
ATOM     26  C   UNL     1       7.289   4.641  18.075  0.00  0.00    +0.000 A 
ATOM     27  C   UNL     1       7.989   5.594  18.815  0.00  0.00    +0.000 A 
ATOM     28  C   UNL     1       7.918   6.940  18.465  0.00  0.00    +0.000 A 
ATOM     29  C   UNL     1       7.146   7.338  17.371  0.00  0.00    +0.000 A 
ATOM     30  C   UNL     1       6.447   6.389  16.632  0.00  0.00    +0.000 A 
ENDBRANCH  24  25
ENDBRANCH  23  24
ENDBRANCH  22  23
ENDBRANCH  19  22
ENDBRANCH  18  19
ENDBRANCH   3  18
TORSDOF 12
ENDMDL
MODEL 7
REMARK VINA RESULT:      -6.5      2.337      8.581
REMARK  Name = 
REMARK  13 active torsions:
REMARK  status: ('A' for Active; 'I' for Inactive)
REMARK    1  A    between atoms: C_1  and  C_2
REMARK    2  A    between atoms: C_2  and  O_3
REMARK    3  A    between atoms: O_3  and  C_4
REMARK    4  A    between atoms: C_4  and  C_6
REMARK    5  A    between atoms: N_10  and  C_11
REMARK    6  A    between atoms: C_11  and  C_12
REMARK    7  A    between atoms: N_14  and  C_15
REMARK    8  A    between atoms: C_15  and  C_16
REMARK    9  A    between atoms: C_16  and  O_17
REMARK   10  A    between atoms: C_16  and  C_18
REMARK   11  A    between atoms: C_18  and  O_19
REMARK   12  A    between atoms: O_19  and  C_20
REMARK   13  A    between atoms: C_20  and  C_21
REMARK                            x       y       z     vdW  Elec       q    Type
REMARK                         _______ _______ _______ _____ _____    ______ ____
ROOT
ATOM      1  C   UNL     1       2.095   8.136  18.670  0.00  0.00    +0.000 A 
ATOM      2  C   UNL     1       2.418   6.911  18.125  0.00  0.00    +0.000 A 
ATOM      3  N   UNL     1       2.270   6.047  19.167  0.00  0.00    +0.000 N 
ATOM      4  N   UNL     1       1.995   6.696  20.311  0.00  0.00    +0.000 NA
ATOM      5  N   UNL     1       1.900   7.984  20.022  0.00  0.00    +0.000 NA
ENDROOT
BRANCH   1   6
ATOM      6  C   UNL     1       1.883   9.461  18.018  0.00  0.00    +0.000 C 
BRANCH   6  11
ATOM      7  C   UNL     1      -0.027  12.378  19.587  0.00  0.00    +0.000 C 
ATOM      8  C   UNL     1      -1.342  12.222  18.818  0.00  0.00    +0.000 C 
ATOM      9  C   UNL     1      -1.647  10.761  18.496  0.00  0.00    +0.000 C 
ATOM     10  C   UNL     1      -0.456  10.051  17.851  0.00  0.00    +0.000 C 
ATOM     11  N   UNL     1       0.764  10.193  18.658  0.00  0.00    +0.000 NA
ATOM     12  C   UNL     1       1.090  11.622  18.859  0.00  0.00    +0.000 C 
BRANCH   7  13
ATOM     13  C   UNL     1      -0.065  11.954  21.052  0.00  0.00    +0.000 C 
ATOM     14  O   UNL     1       0.928  11.708  21.730  0.00  0.00    +0.000 OA
BRANCH  13  15
ATOM     15  O   UNL     1      -1.335  11.977  21.545  0.00  0.00    +0.000 OA
BRANCH  15  17
ATOM     16  C   UNL     1      -1.383  13.628  23.303  0.00  0.00    +0.000 C 
ATOM     17  C   UNL     1      -1.443  12.150  22.966  0.00  0.00    +0.000 C 
ENDBRANCH  15  17
ENDBRANCH  13  15
ENDBRANCH   7  13
ENDBRANCH   6  11
ENDBRANCH   1   6
BRANCH   3  18
ATOM     18  C   UNL     1       2.270   4.602  19.148  0.00  0.00    +0.000 C 
BRANCH  18  19
ATOM     19  C   UNL     1       3.113   3.978  20.271  0.00  0.00    +0.000 C 
BRANCH  19  20
ATOM     20  O   UNL     1       2.319   3.457  21.337  0.00  0.00    +0.000 OA
ATOM     21  H   UNL     1       2.016   4.208  21.886  0.00  0.00    +0.000 HD
ENDBRANCH  19  20
BRANCH  19  22
ATOM     22  C   UNL     1       4.113   2.925  19.766  0.00  0.00    +0.000 C 
BRANCH  22  23
ATOM     23  O   UNL     1       5.354   3.509  19.367  0.00  0.00    +0.000 OA
BRANCH  23  24
ATOM     24  C   UNL     1       5.334   4.024  18.036  0.00  0.00    +0.000 C 
BRANCH  24  25
ATOM     25  C   UNL     1       6.184   5.265  17.999  0.00  0.00    +0.000 A 
ATOM     26  C   UNL     1       5.893   6.307  17.109  0.00  0.00    +0.000 A 
ATOM     27  C   UNL     1       6.692   7.451  17.081  0.00  0.00    +0.000 A 
ATOM     28  C   UNL     1       7.785   7.560  17.937  0.00  0.00    +0.000 A 
ATOM     29  C   UNL     1       8.083   6.523  18.825  0.00  0.00    +0.000 A 
ATOM     30  C   UNL     1       7.287   5.383  18.854  0.00  0.00    +0.000 A 
ENDBRANCH  24  25
ENDBRANCH  23  24
ENDBRANCH  22  23
ENDBRANCH  19  22
ENDBRANCH  18  19
ENDBRANCH   3  18
TORSDOF 12
ENDMDL
MODEL 8
REMARK VINA RESULT:      -6.5      2.669      8.355
REMARK  Name = 
REMARK  13 active torsions:
REMARK  status: ('A' for Active; 'I' for Inactive)
REMARK    1  A    between atoms: C_1  and  C_2
REMARK    2  A    between atoms: C_2  and  O_3
REMARK    3  A    between atoms: O_3  and  C_4
REMARK    4  A    between atoms: C_4  and  C_6
REMARK    5  A    between atoms: N_10  and  C_11
REMARK    6  A    between atoms: C_11  and  C_12
REMARK    7  A    between atoms: N_14  and  C_15
REMARK    8  A    between atoms: C_15  and  C_16
REMARK    9  A    between atoms: C_16  and  O_17
REMARK   10  A    between atoms: C_16  and  C_18
REMARK   11  A    between atoms: C_18  and  O_19
REMARK   12  A    between atoms: O_19  and  C_20
REMARK   13  A    between atoms: C_20  and  C_21
REMARK                            x       y       z     vdW  Elec       q    Type
REMARK                         _______ _______ _______ _____ _____    ______ ____
ROOT
ATOM      1  C   UNL     1       2.032   5.632  20.562  0.00  0.00    +0.000 A 
ATOM      2  C   UNL     1       3.191   5.002  20.157  0.00  0.00    +0.000 A 
ATOM      3  N   UNL     1       2.746   3.852  19.578  0.00  0.00    +0.000 N 
ATOM      4  N   UNL     1       1.417   3.711  19.719  0.00  0.00    +0.000 NA
ATOM      5  N   UNL     1       0.968   4.792  20.336  0.00  0.00    +0.000 NA
ENDROOT
BRANCH   1   6
ATOM      6  C   UNL     1       1.812   7.007  21.095  0.00  0.00    +0.000 C 
BRANCH   6  11
ATOM      7  C   UNL     1       0.994  10.319  19.368  0.00  0.00    +0.000 C 
ATOM      8  C   UNL     1       1.798  10.104  18.082  0.00  0.00    +0.000 C 
ATOM      9  C   UNL     1       1.835   8.634  17.670  0.00  0.00    +0.000 C 
ATOM     10  C   UNL     1       2.245   7.720  18.825  0.00  0.00    +0.000 C 
ATOM     11  N   UNL     1       1.407   7.936  20.013  0.00  0.00    +0.000 NA
ATOM     12  C   UNL     1       1.480   9.348  20.450  0.00  0.00    +0.000 C 
BRANCH   7  13
ATOM     13  C   UNL     1      -0.521  10.213  19.225  0.00  0.00    +0.000 C 
ATOM     14  O   UNL     1      -1.275   9.800  20.101  0.00  0.00    +0.000 OA
BRANCH  13  15
ATOM     15  O   UNL     1      -0.947  10.724  18.036  0.00  0.00    +0.000 OA
BRANCH  15  17
ATOM     16  C   UNL     1      -2.345   9.921  16.241  0.00  0.00    +0.000 C 
ATOM     17  C   UNL     1      -2.301  10.409  17.677  0.00  0.00    +0.000 C 
ENDBRANCH  15  17
ENDBRANCH  13  15
ENDBRANCH   7  13
ENDBRANCH   6  11
ENDBRANCH   1   6
BRANCH   3  18
ATOM     18  C   UNL     1       3.488   2.894  18.792  0.00  0.00    +0.000 C 
BRANCH  18  19
ATOM     19  C   UNL     1       3.282   3.059  17.278  0.00  0.00    +0.000 C 
BRANCH  19  20
ATOM     20  O   UNL     1       1.932   3.370  16.932  0.00  0.00    +0.000 OA
ATOM     21  H   UNL     1       1.902   4.302  16.634  0.00  0.00    +0.000 HD
ENDBRANCH  19  20
BRANCH  19  22
ATOM     22  C   UNL     1       4.258   4.059  16.638  0.00  0.00    +0.000 C 
BRANCH  22  23
ATOM     23  O   UNL     1       5.491   3.444  16.263  0.00  0.00    +0.000 OA
BRANCH  23  24
ATOM     24  C   UNL     1       6.416   4.351  15.663  0.00  0.00    +0.000 C 
BRANCH  24  25
ATOM     25  C   UNL     1       6.985   5.227  16.746  0.00  0.00    +0.000 A 
ATOM     26  C   UNL     1       7.019   6.621  16.596  0.00  0.00    +0.000 A 
ATOM     27  C   UNL     1       7.554   7.422  17.605  0.00  0.00    +0.000 A 
ATOM     28  C   UNL     1       8.059   6.840  18.765  0.00  0.00    +0.000 A 
ATOM     29  C   UNL     1       8.031   5.452  18.920  0.00  0.00    +0.000 A 
ATOM     30  C   UNL     1       7.497   4.652  17.915  0.00  0.00    +0.000 A 
ENDBRANCH  24  25
ENDBRANCH  23  24
ENDBRANCH  22  23
ENDBRANCH  19  22
ENDBRANCH  18  19
ENDBRANCH   3  18
TORSDOF 12
ENDMDL
MODEL 9
REMARK VINA RESULT:      -6.5      5.877      8.120
REMARK  Name = 
REMARK  13 active torsions:
REMARK  status: ('A' for Active; 'I' for Inactive)
REMARK    1  A    between atoms: C_1  and  C_2
REMARK    2  A    between atoms: C_2  and  O_3
REMARK    3  A    between atoms: O_3  and  C_4
REMARK    4  A    between atoms: C_4  and  C_6
REMARK    5  A    between atoms: N_10  and  C_11
REMARK    6  A    between atoms: C_11  and  C_12
REMARK    7  A    between atoms: N_14  and  C_15
REMARK    8  A    between atoms: C_15  and  C_16
REMARK    9  A    between atoms: C_16  and  O_17
REMARK   10  A    between atoms: C_16  and  C_18
REMARK   11  A    between atoms: C_18  and  O_19
REMARK   12  A    between atoms: O_19  and  C_20
REMARK   13  A    between atoms: C_20  and  C_21
REMARK                            x       y       z     vdW  Elec       q    Type
REMARK                         _______ _______ _______ _____ _____    ______ ____
ROOT
ATOM      1  C   UNL     1       5.785   4.319  17.552  0.00  0.00    +0.000 A 
ATOM      2  C   UNL     1       5.662   5.631  17.960  0.00  0.00    +0.000 A 
ATOM      3  N   UNL     1       6.678   6.266  17.312  0.00  0.00    +0.000 N 
ATOM      4  N   UNL     1       7.456   5.397  16.644  0.00  0.00    +0.000 NA
ATOM      5  N   UNL     1       6.926   4.195  16.796  0.00  0.00    +0.000 NA
ENDROOT
BRANCH   1   6
ATOM      6  C   UNL     1       4.878   3.153  17.753  0.00  0.00    +0.000 C 
BRANCH   6  11
ATOM      7  C   UNL     1       1.469   3.955  19.287  0.00  0.00    +0.000 C 
ATOM      8  C   UNL     1       1.480   2.913  20.410  0.00  0.00    +0.000 C 
ATOM      9  C   UNL     1       2.888   2.662  20.944  0.00  0.00    +0.000 C 
ATOM     10  C   UNL     1       3.890   2.384  19.821  0.00  0.00    +0.000 C 
ATOM     11  N   UNL     1       3.869   3.441  18.801  0.00  0.00    +0.000 NA
ATOM     12  C   UNL     1       2.513   3.583  18.228  0.00  0.00    +0.000 C 
BRANCH   7  13
ATOM     13  C   UNL     1       1.674   5.401  19.727  0.00  0.00    +0.000 C 
ATOM     14  O   UNL     1       1.667   5.780  20.894  0.00  0.00    +0.000 OA
BRANCH  13  15
ATOM     15  O   UNL     1       1.963   6.208  18.668  0.00  0.00    +0.000 OA
BRANCH  15  17
ATOM     16  C   UNL     1       2.946   8.221  17.773  0.00  0.00    +0.000 C 
ATOM     17  C   UNL     1       2.365   7.545  19.001  0.00  0.00    +0.000 C 
ENDBRANCH  15  17
ENDBRANCH  13  15
ENDBRANCH   7  13
ENDBRANCH   6  11
ENDBRANCH   1   6
BRANCH   3  18
ATOM     18  C   UNL     1       6.922   7.685  17.190  0.00  0.00    +0.000 C 
BRANCH  18  19
ATOM     19  C   UNL     1       7.792   8.253  18.322  0.00  0.00    +0.000 C 
BRANCH  19  20
ATOM     20  O   UNL     1       8.572   7.253  18.977  0.00  0.00    +0.000 OA
ATOM     21  H   UNL     1       8.885   6.619  18.300  0.00  0.00    +0.000 HD
ENDBRANCH  19  20
BRANCH  19  22
ATOM     22  C   UNL     1       8.672   9.432  17.878  0.00  0.00    +0.000 C 
BRANCH  22  23
ATOM     23  O   UNL     1       8.614  10.524  18.797  0.00  0.00    +0.000 OA
BRANCH  23  24
ATOM     24  C   UNL     1       9.894  10.909  19.299  0.00  0.00    +0.000 C 
BRANCH  24  25
ATOM     25  C   UNL     1      10.321  12.162  18.582  0.00  0.00    +0.000 A 
ATOM     26  C   UNL     1       9.897  13.422  19.027  0.00  0.00    +0.000 A 
ATOM     27  C   UNL     1      10.296  14.576  18.351  0.00  0.00    +0.000 A 
ATOM     28  C   UNL     1      11.115  14.480  17.228  0.00  0.00    +0.000 A 
ATOM     29  C   UNL     1      11.539  13.227  16.778  0.00  0.00    +0.000 A 
ATOM     30  C   UNL     1      11.142  12.076  17.452  0.00  0.00    +0.000 A 
ENDBRANCH  24  25
ENDBRANCH  23  24
ENDBRANCH  22  23
ENDBRANCH  19  22
ENDBRANCH  18  19
ENDBRANCH   3  18
TORSDOF 12
ENDMDL
