MODEL 1
REMARK VINA RESULT:      -7.0      0.000      0.000
REMARK  Name = 
REMARK  2 active torsions:
REMARK  status: ('A' for Active; 'I' for Inactive)
REMARK    1  A    between atoms: N_1  and  C_2
REMARK    2  A    between atoms: C_6  and  C_7
REMARK                            x       y       z     vdW  Elec       q    Type
REMARK                         _______ _______ _______ _____ _____    ______ ____
ROOT
ATOM      1  C   UNL     1       6.180   4.102  14.626  0.00  0.00    +0.000 A 
ATOM      2  C   UNL     1       7.173   5.028  14.952  0.00  0.00    +0.000 A 
ATOM      3  C   UNL     1       7.199   5.634  16.210  0.00  0.00    +0.000 A 
ATOM      4  C   UNL     1       6.252   5.285  17.169  0.00  0.00    +0.000 A 
ATOM      5  C   UNL     1       5.281   4.313  16.885  0.00  0.00    +0.000 A 
ATOM      6  C   UNL     1       5.274   3.717  15.613  0.00  0.00    +0.000 A 
ENDROOT
BRANCH   5   7
ATOM      7  C   UNL     1       4.282   3.970  17.902  0.00  0.00    +0.000 A 
ATOM      8  N   UNL     1       4.556   3.315  19.011  0.00  0.00    +0.000 NA
ATOM      9  C   UNL     1       3.414   3.184  19.777  0.00  0.00    +0.000 A 
ATOM     10  C   UNL     1       3.344   2.579  21.048  0.00  0.00    +0.000 A 
ATOM     11  C   UNL     1       2.117   2.511  21.717  0.00  0.00    +0.000 A 
ATOM     12  C   UNL     1       0.967   3.032  21.132  0.00  0.00    +0.000 A 
ATOM     13  C   UNL     1       1.012   3.640  19.874  0.00  0.00    +0.000 A 
ATOM     14  C   UNL     1       2.251   3.709  19.219  0.00  0.00    +0.000 A 
ATOM     15  S   UNL     1       2.627   4.399  17.695  0.00  0.00    +0.000 S 
ENDBRANCH   5   7
BRANCH   1  16
ATOM     16  N   UNL     1       6.238   3.405  13.413  0.00  0.00    +0.000 N 
ATOM     17  H   UNL     1       6.593   3.955  12.640  0.00  0.00    +0.000 HD
ATOM     18  H   UNL     1       5.378   2.917  13.176  0.00  0.00    +0.000 HD
ENDBRANCH   1  16
TORSDOF 2
ENDMDL
MODEL 2
REMARK VINA RESULT:      -6.9      1.275      1.531
REMARK  Name = 
REMARK  2 active torsions:
REMARK  status: ('A' for Active; 'I' for Inactive)
REMARK    1  A    between atoms: N_1  and  C_2
REMARK    2  A    between atoms: C_6  and  C_7
REMARK                            x       y       z     vdW  Elec       q    Type
REMARK                         _______ _______ _______ _____ _____    ______ ____
ROOT
ATOM      1  C   UNL     1       6.163   4.009  13.991  0.00  0.00    +0.000 A 
ATOM      2  C   UNL     1       7.280   4.802  14.260  0.00  0.00    +0.000 A 
ATOM      3  C   UNL     1       7.416   5.450  15.490  0.00  0.00    +0.000 A 
ATOM      4  C   UNL     1       6.451   5.273  16.478  0.00  0.00    +0.000 A 
ATOM      5  C   UNL     1       5.351   4.434  16.252  0.00  0.00    +0.000 A 
ATOM      6  C   UNL     1       5.234   3.794  15.007  0.00  0.00    +0.000 A 
ENDROOT
BRANCH   5   7
ATOM      7  C   UNL     1       4.335   4.274  17.298  0.00  0.00    +0.000 A 
ATOM      8  N   UNL     1       3.271   3.507  17.177  0.00  0.00    +0.000 NA
ATOM      9  C   UNL     1       2.533   3.537  18.345  0.00  0.00    +0.000 A 
ATOM     10  C   UNL     1       1.357   2.800  18.591  0.00  0.00    +0.000 A 
ATOM     11  C   UNL     1       0.704   2.927  19.822  0.00  0.00    +0.000 A 
ATOM     12  C   UNL     1       1.207   3.779  20.800  0.00  0.00    +0.000 A 
ATOM     13  C   UNL     1       2.373   4.518  20.580  0.00  0.00    +0.000 A 
ATOM     14  C   UNL     1       3.023   4.374  19.345  0.00  0.00    +0.000 A 
ATOM     15  S   UNL     1       4.462   5.121  18.791  0.00  0.00    +0.000 S 
ENDBRANCH   5   7
BRANCH   1  16
ATOM     16  N   UNL     1       6.099   3.262  12.808  0.00  0.00    +0.000 N 
ATOM     17  H   UNL     1       6.769   2.503  12.764  0.00  0.00    +0.000 HD
ATOM     18  H   UNL     1       6.102   3.827  11.962  0.00  0.00    +0.000 HD
ENDBRANCH   1  16
TORSDOF 2
ENDMDL
MODEL 3
REMARK VINA RESULT:      -6.9      2.557      6.241
REMARK  Name = 
REMARK  2 active torsions:
REMARK  status: ('A' for Active; 'I' for Inactive)
REMARK    1  A    between atoms: N_1  and  C_2
REMARK    2  A    between atoms: C_6  and  C_7
REMARK                            x       y       z     vdW  Elec       q    Type
REMARK                         _______ _______ _______ _____ _____    ______ ____
ROOT
ATOM      1  C   UNL     1       1.523   2.855  20.915  0.00  0.00    +0.000 A 
ATOM      2  C   UNL     1       0.683   2.395  19.899  0.00  0.00    +0.000 A 
ATOM      3  C   UNL     1       0.915   2.746  18.567  0.00  0.00    +0.000 A 
ATOM      4  C   UNL     1       2.017   3.528  18.237  0.00  0.00    +0.000 A 
ATOM      5  C   UNL     1       2.909   3.953  19.233  0.00  0.00    +0.000 A 
ATOM      6  C   UNL     1       2.655   3.589  20.566  0.00  0.00    +0.000 A 
ENDROOT
BRANCH   5   7
ATOM      7  C   UNL     1       4.055   4.791  18.869  0.00  0.00    +0.000 A 
ATOM      8  N   UNL     1       5.213   4.765  19.497  0.00  0.00    +0.000 NA
ATOM      9  C   UNL     1       6.098   5.638  18.892  0.00  0.00    +0.000 A 
ATOM     10  C   UNL     1       7.442   5.835  19.268  0.00  0.00    +0.000 A 
ATOM     11  C   UNL     1       8.230   6.755  18.569  0.00  0.00    +0.000 A 
ATOM     12  C   UNL     1       7.692   7.480  17.510  0.00  0.00    +0.000 A 
ATOM     13  C   UNL     1       6.362   7.300  17.116  0.00  0.00    +0.000 A 
ATOM     14  C   UNL     1       5.587   6.367  17.820  0.00  0.00    +0.000 A 
ATOM     15  S   UNL     1       3.953   5.915  17.569  0.00  0.00    +0.000 S 
ENDBRANCH   5   7
BRANCH   1  16
ATOM     16  N   UNL     1       1.359   2.393  22.227  0.00  0.00    +0.000 N 
ATOM     17  H   UNL     1       1.129   3.121  22.893  0.00  0.00    +0.000 HD
ATOM     18  H   UNL     1       2.117   1.799  22.553  0.00  0.00    +0.000 HD
ENDBRANCH   1  16
TORSDOF 2
ENDMDL
MODEL 4
REMARK VINA RESULT:      -6.6      1.212      1.442
REMARK  Name = 
REMARK  2 active torsions:
REMARK  status: ('A' for Active; 'I' for Inactive)
REMARK    1  A    between atoms: N_1  and  C_2
REMARK    2  A    between atoms: C_6  and  C_7
REMARK                            x       y       z     vdW  Elec       q    Type
REMARK                         _______ _______ _______ _____ _____    ______ ____
ROOT
ATOM      1  C   UNL     1       6.112   3.973  14.020  0.00  0.00    +0.000 A 
ATOM      2  C   UNL     1       7.185   4.811  14.326  0.00  0.00    +0.000 A 
ATOM      3  C   UNL     1       7.285   5.412  15.584  0.00  0.00    +0.000 A 
ATOM      4  C   UNL     1       6.331   5.142  16.560  0.00  0.00    +0.000 A 
ATOM      5  C   UNL     1       5.276   4.257  16.295  0.00  0.00    +0.000 A 
ATOM      6  C   UNL     1       5.194   3.665  15.023  0.00  0.00    +0.000 A 
ENDROOT
BRANCH   5   7
ATOM      7  C   UNL     1       4.270   3.999  17.330  0.00  0.00    +0.000 A 
ATOM      8  N   UNL     1       3.763   4.931  18.111  0.00  0.00    +0.000 NA
ATOM      9  C   UNL     1       2.814   4.379  18.949  0.00  0.00    +0.000 A 
ATOM     10  C   UNL     1       2.035   5.088  19.885  0.00  0.00    +0.000 A 
ATOM     11  C   UNL     1       1.107   4.403  20.677  0.00  0.00    +0.000 A 
ATOM     12  C   UNL     1       0.954   3.026  20.548  0.00  0.00    +0.000 A 
ATOM     13  C   UNL     1       1.713   2.301  19.625  0.00  0.00    +0.000 A 
ATOM     14  C   UNL     1       2.633   3.002  18.831  0.00  0.00    +0.000 A 
ATOM     15  S   UNL     1       3.681   2.406  17.614  0.00  0.00    +0.000 S 
ENDBRANCH   5   7
BRANCH   1  16
ATOM     16  N   UNL     1       6.088   3.275  12.806  0.00  0.00    +0.000 N 
ATOM     17  H   UNL     1       6.752   2.511  12.758  0.00  0.00    +0.000 HD
ATOM     18  H   UNL     1       6.130   3.873  11.985  0.00  0.00    +0.000 HD
ENDBRANCH   1  16
TORSDOF 2
ENDMDL
MODEL 5
REMARK VINA RESULT:      -6.6      1.589      6.506
REMARK  Name = 
REMARK  2 active torsions:
REMARK  status: ('A' for Active; 'I' for Inactive)
REMARK    1  A    between atoms: N_1  and  C_2
REMARK    2  A    between atoms: C_6  and  C_7
REMARK                            x       y       z     vdW  Elec       q    Type
REMARK                         _______ _______ _______ _____ _____    ______ ____
ROOT
ATOM      1  C   UNL     1       1.994   3.307  20.963  0.00  0.00    +0.000 A 
ATOM      2  C   UNL     1       0.765   2.950  20.404  0.00  0.00    +0.000 A 
ATOM      3  C   UNL     1       0.584   2.949  19.019  0.00  0.00    +0.000 A 
ATOM      4  C   UNL     1       1.648   3.266  18.179  0.00  0.00    +0.000 A 
ATOM      5  C   UNL     1       2.907   3.570  18.715  0.00  0.00    +0.000 A 
ATOM      6  C   UNL     1       3.066   3.566  20.111  0.00  0.00    +0.000 A 
ENDROOT
BRANCH   5   7
ATOM      7  C   UNL     1       4.012   3.919  17.816  0.00  0.00    +0.000 A 
ATOM      8  N   UNL     1       3.999   3.700  16.517  0.00  0.00    +0.000 NA
ATOM      9  C   UNL     1       5.165   4.175  15.947  0.00  0.00    +0.000 A 
ATOM     10  C   UNL     1       5.473   4.153  14.572  0.00  0.00    +0.000 A 
ATOM     11  C   UNL     1       6.696   4.667  14.127  0.00  0.00    +0.000 A 
ATOM     12  C   UNL     1       7.608   5.195  15.034  0.00  0.00    +0.000 A 
ATOM     13  C   UNL     1       7.323   5.232  16.403  0.00  0.00    +0.000 A 
ATOM     14  C   UNL     1       6.090   4.721  16.834  0.00  0.00    +0.000 A 
ATOM     15  S   UNL     1       5.452   4.641  18.422  0.00  0.00    +0.000 S 
ENDBRANCH   5   7
BRANCH   1  16
ATOM     16  N   UNL     1       2.204   3.180  22.341  0.00  0.00    +0.000 N 
ATOM     17  H   UNL     1       1.887   2.298  22.726  0.00  0.00    +0.000 HD
ATOM     18  H   UNL     1       1.877   3.976  22.883  0.00  0.00    +0.000 HD
ENDBRANCH   1  16
TORSDOF 2
ENDMDL
MODEL 6
REMARK VINA RESULT:      -6.6      1.491      1.910
REMARK  Name = 
REMARK  2 active torsions:
REMARK  status: ('A' for Active; 'I' for Inactive)
REMARK    1  A    between atoms: N_1  and  C_2
REMARK    2  A    between atoms: C_6  and  C_7
REMARK                            x       y       z     vdW  Elec       q    Type
REMARK                         _______ _______ _______ _____ _____    ______ ____
ROOT
ATOM      1  C   UNL     1       7.084   6.330  16.694  0.00  0.00    +0.000 A 
ATOM      2  C   UNL     1       7.317   5.608  15.522  0.00  0.00    +0.000 A 
ATOM      3  C   UNL     1       6.591   4.448  15.242  0.00  0.00    +0.000 A 
ATOM      4  C   UNL     1       5.595   4.025  16.116  0.00  0.00    +0.000 A 
ATOM      5  C   UNL     1       5.302   4.765  17.270  0.00  0.00    +0.000 A 
ATOM      6  C   UNL     1       6.046   5.929  17.532  0.00  0.00    +0.000 A 
ENDROOT
BRANCH   5   7
ATOM      7  C   UNL     1       4.261   4.294  18.189  0.00  0.00    +0.000 A 
ATOM      8  N   UNL     1       4.500   3.561  19.256  0.00  0.00    +0.000 NA
ATOM      9  C   UNL     1       3.321   3.315  19.935  0.00  0.00    +0.000 A 
ATOM     10  C   UNL     1       3.204   2.604  21.145  0.00  0.00    +0.000 A 
ATOM     11  C   UNL     1       1.944   2.425  21.726  0.00  0.00    +0.000 A 
ATOM     12  C   UNL     1       0.808   2.943  21.113  0.00  0.00    +0.000 A 
ATOM     13  C   UNL     1       0.899   3.655  19.913  0.00  0.00    +0.000 A 
ATOM     14  C   UNL     1       2.170   3.834  19.347  0.00  0.00    +0.000 A 
ATOM     15  S   UNL     1       2.603   4.665  17.912  0.00  0.00    +0.000 S 
ENDBRANCH   5   7
BRANCH   1  16
ATOM     16  N   UNL     1       7.723   7.558  16.903  0.00  0.00    +0.000 N 
ATOM     17  H   UNL     1       7.200   8.200  17.486  0.00  0.00    +0.000 HD
ATOM     18  H   UNL     1       8.059   7.999  16.050  0.00  0.00    +0.000 HD
ENDBRANCH   1  16
TORSDOF 2
ENDMDL
MODEL 7
REMARK VINA RESULT:      -6.5      1.899      2.917
REMARK  Name = 
REMARK  2 active torsions:
REMARK  status: ('A' for Active; 'I' for Inactive)
REMARK    1  A    between atoms: N_1  and  C_2
REMARK    2  A    between atoms: C_6  and  C_7
REMARK                            x       y       z     vdW  Elec       q    Type
REMARK                         _______ _______ _______ _____ _____    ______ ____
ROOT
ATOM      1  C   UNL     1       7.790   5.102  13.277  0.00  0.00    +0.000 A 
ATOM      2  C   UNL     1       7.267   4.305  12.257  0.00  0.00    +0.000 A 
ATOM      3  C   UNL     1       6.099   3.565  12.457  0.00  0.00    +0.000 A 
ATOM      4  C   UNL     1       5.422   3.651  13.670  0.00  0.00    +0.000 A 
ATOM      5  C   UNL     1       5.896   4.490  14.688  0.00  0.00    +0.000 A 
ATOM      6  C   UNL     1       7.073   5.225  14.466  0.00  0.00    +0.000 A 
ENDROOT
BRANCH   5   7
ATOM      7  C   UNL     1       5.179   4.555  15.966  0.00  0.00    +0.000 A 
ATOM      8  N   UNL     1       4.732   3.498  16.612  0.00  0.00    +0.000 NA
ATOM      9  C   UNL     1       4.139   3.885  17.798  0.00  0.00    +0.000 A 
ATOM     10  C   UNL     1       3.593   3.016  18.765  0.00  0.00    +0.000 A 
ATOM     11  C   UNL     1       3.018   3.543  19.926  0.00  0.00    +0.000 A 
ATOM     12  C   UNL     1       2.977   4.919  20.128  0.00  0.00    +0.000 A 
ATOM     13  C   UNL     1       3.515   5.801  19.185  0.00  0.00    +0.000 A 
ATOM     14  C   UNL     1       4.097   5.258  18.030  0.00  0.00    +0.000 A 
ATOM     15  S   UNL     1       4.845   6.067  16.718  0.00  0.00    +0.000 S 
ENDBRANCH   5   7
BRANCH   1  16
ATOM     16  N   UNL     1       8.885   5.938  13.026  0.00  0.00    +0.000 N 
ATOM     17  H   UNL     1       9.717   5.446  12.721  0.00  0.00    +0.000 HD
ATOM     18  H   UNL     1       9.081   6.598  13.774  0.00  0.00    +0.000 HD
ENDBRANCH   1  16
TORSDOF 2
ENDMDL
MODEL 8
REMARK VINA RESULT:      -6.4      4.305      4.904
REMARK  Name = 
REMARK  2 active torsions:
REMARK  status: ('A' for Active; 'I' for Inactive)
REMARK    1  A    between atoms: N_1  and  C_2
REMARK    2  A    between atoms: C_6  and  C_7
REMARK                            x       y       z     vdW  Elec       q    Type
REMARK                         _______ _______ _______ _____ _____    ______ ____
ROOT
ATOM      1  C   UNL     1       5.146   5.640  16.343  0.00  0.00    +0.000 A 
ATOM      2  C   UNL     1       4.748   4.304  16.419  0.00  0.00    +0.000 A 
ATOM      3  C   UNL     1       3.675   3.924  17.229  0.00  0.00    +0.000 A 
ATOM      4  C   UNL     1       2.964   4.888  17.936  0.00  0.00    +0.000 A 
ATOM      5  C   UNL     1       3.307   6.244  17.829  0.00  0.00    +0.000 A 
ATOM      6  C   UNL     1       4.391   6.603  17.010  0.00  0.00    +0.000 A 
ENDROOT
BRANCH   5   7
ATOM      7  C   UNL     1       2.558   7.244  18.596  0.00  0.00    +0.000 A 
ATOM      8  N   UNL     1       2.229   7.103  19.863  0.00  0.00    +0.000 NA
ATOM      9  C   UNL     1       1.565   8.231  20.307  0.00  0.00    +0.000 A 
ATOM     10  C   UNL     1       1.107   8.449  21.622  0.00  0.00    +0.000 A 
ATOM     11  C   UNL     1       0.444   9.640  21.937  0.00  0.00    +0.000 A 
ATOM     12  C   UNL     1       0.231  10.606  20.959  0.00  0.00    +0.000 A 
ATOM     13  C   UNL     1       0.679  10.414  19.648  0.00  0.00    +0.000 A 
ATOM     14  C   UNL     1       1.350   9.219  19.349  0.00  0.00    +0.000 A 
ATOM     15  S   UNL     1       2.024   8.706  17.859  0.00  0.00    +0.000 S 
ENDBRANCH   5   7
BRANCH   1  16
ATOM     16  N   UNL     1       6.136   6.028  15.432  0.00  0.00    +0.000 N 
ATOM     17  H   UNL     1       6.984   5.475  15.486  0.00  0.00    +0.000 HD
ATOM     18  H   UNL     1       6.328   7.027  15.431  0.00  0.00    +0.000 HD
ENDBRANCH   1  16
TORSDOF 2
ENDMDL
MODEL 9
REMARK VINA RESULT:      -6.4      4.271      5.214
REMARK  Name = 
REMARK  2 active torsions:
REMARK  status: ('A' for Active; 'I' for Inactive)
REMARK    1  A    between atoms: N_1  and  C_2
REMARK    2  A    between atoms: C_6  and  C_7
REMARK                            x       y       z     vdW  Elec       q    Type
REMARK                         _______ _______ _______ _____ _____    ______ ____
ROOT
ATOM      1  C   UNL     1       5.166   4.387  18.192  0.00  0.00    +0.000 A 
ATOM      2  C   UNL     1       4.422   3.462  17.457  0.00  0.00    +0.000 A 
ATOM      3  C   UNL     1       3.051   3.642  17.262  0.00  0.00    +0.000 A 
ATOM      4  C   UNL     1       2.421   4.775  17.768  0.00  0.00    +0.000 A 
ATOM      5  C   UNL     1       3.158   5.748  18.459  0.00  0.00    +0.000 A 
ATOM      6  C   UNL     1       4.536   5.545  18.643  0.00  0.00    +0.000 A 
ENDROOT
BRANCH   5   7
ATOM      7  C   UNL     1       2.474   6.927  18.999  0.00  0.00    +0.000 A 
ATOM      8  N   UNL     1       2.049   7.023  20.242  0.00  0.00    +0.000 NA
ATOM      9  C   UNL     1       1.485   8.267  20.453  0.00  0.00    +0.000 A 
ATOM     10  C   UNL     1       0.968   8.737  21.677  0.00  0.00    +0.000 A 
ATOM     11  C   UNL     1       0.421  10.022  21.752  0.00  0.00    +0.000 A 
ATOM     12  C   UNL     1       0.381  10.836  20.623  0.00  0.00    +0.000 A 
ATOM     13  C   UNL     1       0.891  10.393  19.399  0.00  0.00    +0.000 A 
ATOM     14  C   UNL     1       1.444   9.106  19.341  0.00  0.00    +0.000 A 
ATOM     15  S   UNL     1       2.155   8.297  18.008  0.00  0.00    +0.000 S 
ENDBRANCH   5   7
BRANCH   1  16
ATOM     16  N   UNL     1       6.559   4.266  18.271  0.00  0.00    +0.000 N 
ATOM     17  H   UNL     1       7.053   5.149  18.208  0.00  0.00    +0.000 HD
ATOM     18  H   UNL     1       6.948   3.562  17.649  0.00  0.00    +0.000 HD
ENDBRANCH   1  16
TORSDOF 2
ENDMDL
