MODEL 1
REMARK VINA RESULT:      -9.4      0.000      0.000
REMARK  Name = 
REMARK  12 active torsions:
REMARK  status: ('A' for Active; 'I' for Inactive)
REMARK    1  A    between atoms: C_1  and  C_2
REMARK    2  A    between atoms: C_2  and  C_3
REMARK    3  A    between atoms: C_2  and  C_4
REMARK    4  A    between atoms: C_4  and  N_5
REMARK    5  A    between atoms: N_5  and  C_6
REMARK    6  A    between atoms: C_6  and  C_7
REMARK    7  A    between atoms: C_19  and  C_21
REMARK    8  A    between atoms: C_21  and  C_22
REMARK    9  A    between atoms: C_21  and  C_23
REMARK   10  A    between atoms: C_23  and  N_24
REMARK   11  A    between atoms: N_24  and  C_25
REMARK   12  A    between atoms: C_25  and  C_26
REMARK                            x       y       z     vdW  Elec       q    Type
REMARK                         _______ _______ _______ _____ _____    ______ ____
ROOT
ATOM      1  N   UNL     1       6.264   5.339  15.915  0.00  0.00    +0.000 N 
ATOM      2  C   UNL     1       7.265   5.369  16.898  0.00  0.00    +0.000 C 
ATOM      3  O   UNL     1       8.153   4.511  16.939  0.00  0.00    +0.000 OA
ENDROOT
BRANCH   2   4
ATOM      4  C   UNL     1       7.247   6.466  17.956  0.00  0.00    +0.000 C 
ATOM      5  C   UNL     1       8.118   6.030  19.138  0.00  0.00    +0.000 C 
BRANCH   4   6
ATOM      6  C   UNL     1       7.797   7.785  17.364  0.00  0.00    +0.000 C 
BRANCH   6   7
ATOM      7  N   UNL     1       8.231   8.803  18.331  0.00  0.00    +0.000 NA
ATOM      8  H   UNL     1       8.924   8.395  18.962  0.00  0.00    +0.000 HD
BRANCH   7   9
ATOM      9  C   UNL     1       8.789   9.997  17.708  0.00  0.00    +0.000 C 
BRANCH   9  10
ATOM     10  C   UNL     1       9.162  11.052  18.728  0.00  0.00    +0.000 A 
ATOM     11  C   UNL     1       9.889  10.701  19.879  0.00  0.00    +0.000 A 
ATOM     12  C   UNL     1      10.194  11.640  20.865  0.00  0.00    +0.000 A 
ATOM     13  C   UNL     1       9.770  12.969  20.765  0.00  0.00    +0.000 A 
ATOM     14  C   UNL     1       9.062  13.329  19.617  0.00  0.00    +0.000 A 
ATOM     15  N   UNL     1       8.523  14.536  19.250  0.00  0.00    +0.000 N 
ATOM     16  C   UNL     1       7.956  14.439  18.007  0.00  0.00    +0.000 A 
ATOM     17  C   UNL     1       8.144  13.146  17.583  0.00  0.00    +0.000 A 
ATOM     18  C   UNL     1       8.785  12.411  18.603  0.00  0.00    +0.000 A 
ATOM     19  H   UNL     1       8.554  15.375  19.806  0.00  0.00    +0.000 HD
ENDBRANCH   9  10
ENDBRANCH   7   9
ENDBRANCH   6   7
ENDBRANCH   4   6
ENDBRANCH   2   4
BRANCH   1  20
ATOM     20  C   UNL     1       6.331   4.193  14.983  0.00  0.00    +0.000 C 
BRANCH  20  22
ATOM     21  C   UNL     1       7.759   5.079  13.016  0.00  0.00    +0.000 C 
ATOM     22  C   UNL     1       6.402   4.549  13.483  0.00  0.00    +0.000 C 
ATOM     23  C   UNL     1       6.045   3.314  12.644  0.00  0.00    +0.000 C 
ENDBRANCH  20  22
ENDBRANCH   1  20
BRANCH   1  24
ATOM     24  C   UNL     1       4.978   6.068  16.021  0.00  0.00    +0.000 C 
BRANCH  24  25
ATOM     25  C   UNL     1       4.068   5.756  17.198  0.00  0.00    +0.000 A 
ATOM     26  C   UNL     1       3.612   6.770  18.050  0.00  0.00    +0.000 A 
ATOM     27  C   UNL     1       2.696   6.486  19.074  0.00  0.00    +0.000 A 
ATOM     28  F   UNL     1       2.318   7.484  19.887  0.00  0.00    +0.000 F 
ATOM     29  C   UNL     1       2.218   5.192  19.294  0.00  0.00    +0.000 A 
ATOM     30  C   UNL     1       2.628   4.177  18.433  0.00  0.00    +0.000 A 
ATOM     31  C   UNL     1       3.535   4.462  17.392  0.00  0.00    +0.000 A 
ATOM     32  O   UNL     1       2.055   2.932  18.420  0.00  0.00    +0.000 OA
ATOM     33  C   UNL     1       2.219   2.188  19.629  0.00  0.00    +0.000 C 
ATOM     34  C   UNL     1       1.307   2.637  20.762  0.00  0.00    +0.000 C 
ATOM     35  C   UNL     1       1.673   4.031  21.238  0.00  0.00    +0.000 C 
ATOM     36  O   UNL     1       1.290   5.021  20.285  0.00  0.00    +0.000 OA
ENDBRANCH  24  25
ENDBRANCH   1  24
TORSDOF 9
ENDMDL
MODEL 2
REMARK VINA RESULT:      -9.0      1.031      1.648
REMARK  Name = 
REMARK  12 active torsions:
REMARK  status: ('A' for Active; 'I' for Inactive)
REMARK    1  A    between atoms: C_1  and  C_2
REMARK    2  A    between atoms: C_2  and  C_3
REMARK    3  A    between atoms: C_2  and  C_4
REMARK    4  A    between atoms: C_4  and  N_5
REMARK    5  A    between atoms: N_5  and  C_6
REMARK    6  A    between atoms: C_6  and  C_7
REMARK    7  A    between atoms: C_19  and  C_21
REMARK    8  A    between atoms: C_21  and  C_22
REMARK    9  A    between atoms: C_21  and  C_23
REMARK   10  A    between atoms: C_23  and  N_24
REMARK   11  A    between atoms: N_24  and  C_25
REMARK   12  A    between atoms: C_25  and  C_26
REMARK                            x       y       z     vdW  Elec       q    Type
REMARK                         _______ _______ _______ _____ _____    ______ ____
ROOT
ATOM      1  N   UNL     1       6.279   5.025  16.065  0.00  0.00    +0.000 N 
ATOM      2  C   UNL     1       7.302   5.184  17.012  0.00  0.00    +0.000 C 
ATOM      3  O   UNL     1       8.197   4.342  17.141  0.00  0.00    +0.000 OA
ENDROOT
BRANCH   2   4
ATOM      4  C   UNL     1       7.301   6.406  17.923  0.00  0.00    +0.000 C 
ATOM      5  C   UNL     1       7.901   6.017  19.277  0.00  0.00    +0.000 C 
BRANCH   4   6
ATOM      6  C   UNL     1       8.141   7.541  17.291  0.00  0.00    +0.000 C 
BRANCH   6   7
ATOM      7  N   UNL     1       7.944   8.886  17.848  0.00  0.00    +0.000 NA
ATOM      8  H   UNL     1       6.971   8.990  18.145  0.00  0.00    +0.000 HD
BRANCH   7   9
ATOM      9  C   UNL     1       8.825   9.186  18.971  0.00  0.00    +0.000 C 
BRANCH   9  10
ATOM     10  C   UNL     1       9.371  10.597  18.907  0.00  0.00    +0.000 A 
ATOM     11  C   UNL     1       9.872  11.110  17.697  0.00  0.00    +0.000 A 
ATOM     12  C   UNL     1      10.437  12.385  17.622  0.00  0.00    +0.000 A 
ATOM     13  C   UNL     1      10.553  13.200  18.752  0.00  0.00    +0.000 A 
ATOM     14  C   UNL     1      10.043  12.703  19.954  0.00  0.00    +0.000 A 
ATOM     15  N   UNL     1      10.019  13.264  21.206  0.00  0.00    +0.000 N 
ATOM     16  C   UNL     1       9.370  12.434  22.080  0.00  0.00    +0.000 A 
ATOM     17  C   UNL     1       8.975  11.331  21.364  0.00  0.00    +0.000 A 
ATOM     18  C   UNL     1       9.438  11.448  20.035  0.00  0.00    +0.000 A 
ATOM     19  H   UNL     1      10.410  14.162  21.444  0.00  0.00    +0.000 HD
ENDBRANCH   9  10
ENDBRANCH   7   9
ENDBRANCH   6   7
ENDBRANCH   4   6
ENDBRANCH   2   4
BRANCH   1  20
ATOM     20  C   UNL     1       6.333   3.771  15.285  0.00  0.00    +0.000 C 
BRANCH  20  22
ATOM     21  C   UNL     1       5.356   3.947  12.897  0.00  0.00    +0.000 C 
ATOM     22  C   UNL     1       6.608   3.929  13.775  0.00  0.00    +0.000 C 
ATOM     23  C   UNL     1       7.395   5.224  13.529  0.00  0.00    +0.000 C 
ENDBRANCH  20  22
ENDBRANCH   1  20
BRANCH   1  24
ATOM     24  C   UNL     1       4.991   5.756  16.109  0.00  0.00    +0.000 C 
BRANCH  24  25
ATOM     25  C   UNL     1       4.064   5.513  17.290  0.00  0.00    +0.000 A 
ATOM     26  C   UNL     1       3.683   6.560  18.139  0.00  0.00    +0.000 A 
ATOM     27  C   UNL     1       2.752   6.345  19.167  0.00  0.00    +0.000 A 
ATOM     28  F   UNL     1       2.447   7.370  19.976  0.00  0.00    +0.000 F 
ATOM     29  C   UNL     1       2.185   5.088  19.393  0.00  0.00    +0.000 A 
ATOM     30  C   UNL     1       2.520   4.044  18.534  0.00  0.00    +0.000 A 
ATOM     31  C   UNL     1       3.442   4.260  17.490  0.00  0.00    +0.000 A 
ATOM     32  O   UNL     1       1.861   2.842  18.528  0.00  0.00    +0.000 OA
ATOM     33  C   UNL     1       1.975   2.093  19.739  0.00  0.00    +0.000 C 
ATOM     34  C   UNL     1       1.100   2.609  20.872  0.00  0.00    +0.000 C 
ATOM     35  C   UNL     1       1.564   3.976  21.342  0.00  0.00    +0.000 C 
ATOM     36  O   UNL     1       1.250   4.987  20.386  0.00  0.00    +0.000 OA
ENDBRANCH  24  25
ENDBRANCH   1  24
TORSDOF 9
ENDMDL
MODEL 3
REMARK VINA RESULT:      -8.8      0.996      1.072
REMARK  Name = 
REMARK  12 active torsions:
REMARK  status: ('A' for Active; 'I' for Inactive)
REMARK    1  A    between atoms: C_1  and  C_2
REMARK    2  A    between atoms: C_2  and  C_3
REMARK    3  A    between atoms: C_2  and  C_4
REMARK    4  A    between atoms: C_4  and  N_5
REMARK    5  A    between atoms: N_5  and  C_6
REMARK    6  A    between atoms: C_6  and  C_7
REMARK    7  A    between atoms: C_19  and  C_21
REMARK    8  A    between atoms: C_21  and  C_22
REMARK    9  A    between atoms: C_21  and  C_23
REMARK   10  A    between atoms: C_23  and  N_24
REMARK   11  A    between atoms: N_24  and  C_25
REMARK   12  A    between atoms: C_25  and  C_26
REMARK                            x       y       z     vdW  Elec       q    Type
REMARK                         _______ _______ _______ _____ _____    ______ ____
ROOT
ATOM      1  N   UNL     1       6.092   5.435  15.895  0.00  0.00    +0.000 N 
ATOM      2  C   UNL     1       7.129   5.450  16.840  0.00  0.00    +0.000 C 
ATOM      3  O   UNL     1       8.025   4.599  16.826  0.00  0.00    +0.000 OA
ENDROOT
BRANCH   2   4
ATOM      4  C   UNL     1       7.142   6.520  17.926  0.00  0.00    +0.000 C 
ATOM      5  C   UNL     1       7.330   5.843  19.287  0.00  0.00    +0.000 C 
BRANCH   4   6
ATOM      6  C   UNL     1       8.300   7.515  17.677  0.00  0.00    +0.000 C 
BRANCH   6   7
ATOM      7  N   UNL     1       7.967   8.942  17.786  0.00  0.00    +0.000 NA
ATOM      8  H   UNL     1       6.958   9.045  17.911  0.00  0.00    +0.000 HD
BRANCH   7   9
ATOM      9  C   UNL     1       8.659   9.619  18.876  0.00  0.00    +0.000 C 
BRANCH   9  10
ATOM     10  C   UNL     1       9.428  10.833  18.397  0.00  0.00    +0.000 A 
ATOM     11  C   UNL     1      10.834  10.822  18.383  0.00  0.00    +0.000 A 
ATOM     12  C   UNL     1      11.570  11.947  18.004  0.00  0.00    +0.000 A 
ATOM     13  C   UNL     1      10.942  13.144  17.646  0.00  0.00    +0.000 A 
ATOM     14  C   UNL     1       9.545  13.157  17.642  0.00  0.00    +0.000 A 
ATOM     15  N   UNL     1       8.669  14.170  17.346  0.00  0.00    +0.000 N 
ATOM     16  C   UNL     1       7.380  13.715  17.427  0.00  0.00    +0.000 A 
ATOM     17  C   UNL     1       7.446  12.389  17.778  0.00  0.00    +0.000 A 
ATOM     18  C   UNL     1       8.797  12.028  17.978  0.00  0.00    +0.000 A 
ATOM     19  H   UNL     1       8.935  15.108  17.092  0.00  0.00    +0.000 HD
ENDBRANCH   9  10
ENDBRANCH   7   9
ENDBRANCH   6   7
ENDBRANCH   4   6
ENDBRANCH   2   4
BRANCH   1  20
ATOM     20  C   UNL     1       6.134   4.314  14.933  0.00  0.00    +0.000 C 
BRANCH  20  22
ATOM     21  C   UNL     1       7.697   5.165  13.057  0.00  0.00    +0.000 C 
ATOM     22  C   UNL     1       6.292   4.706  13.449  0.00  0.00    +0.000 C 
ATOM     23  C   UNL     1       5.901   3.519  12.558  0.00  0.00    +0.000 C 
ENDBRANCH  20  22
ENDBRANCH   1  20
BRANCH   1  24
ATOM     24  C   UNL     1       4.805   6.150  16.067  0.00  0.00    +0.000 C 
BRANCH  24  25
ATOM     25  C   UNL     1       3.949   5.809  17.277  0.00  0.00    +0.000 A 
ATOM     26  C   UNL     1       3.548   6.799  18.183  0.00  0.00    +0.000 A 
ATOM     27  C   UNL     1       2.679   6.491  19.240  0.00  0.00    +0.000 A 
ATOM     28  F   UNL     1       2.354   7.467  20.103  0.00  0.00    +0.000 F 
ATOM     29  C   UNL     1       2.195   5.197  19.440  0.00  0.00    +0.000 A 
ATOM     30  C   UNL     1       2.549   4.206  18.527  0.00  0.00    +0.000 A 
ATOM     31  C   UNL     1       3.408   4.515  17.453  0.00  0.00    +0.000 A 
ATOM     32  O   UNL     1       1.959   2.969  18.501  0.00  0.00    +0.000 OA
ATOM     33  C   UNL     1       2.171   2.183  19.676  0.00  0.00    +0.000 C 
ATOM     34  C   UNL     1       1.321   2.605  20.865  0.00  0.00    +0.000 C 
ATOM     35  C   UNL     1       1.728   3.978  21.369  0.00  0.00    +0.000 C 
ATOM     36  O   UNL     1       1.314   5.004  20.469  0.00  0.00    +0.000 OA
ENDBRANCH  24  25
ENDBRANCH   1  24
TORSDOF 9
ENDMDL
MODEL 4
REMARK VINA RESULT:      -8.4      2.554      4.005
REMARK  Name = 
REMARK  12 active torsions:
REMARK  status: ('A' for Active; 'I' for Inactive)
REMARK    1  A    between atoms: C_1  and  C_2
REMARK    2  A    between atoms: C_2  and  C_3
REMARK    3  A    between atoms: C_2  and  C_4
REMARK    4  A    between atoms: C_4  and  N_5
REMARK    5  A    between atoms: N_5  and  C_6
REMARK    6  A    between atoms: C_6  and  C_7
REMARK    7  A    between atoms: C_19  and  C_21
REMARK    8  A    between atoms: C_21  and  C_22
REMARK    9  A    between atoms: C_21  and  C_23
REMARK   10  A    between atoms: C_23  and  N_24
REMARK   11  A    between atoms: N_24  and  C_25
REMARK   12  A    between atoms: C_25  and  C_26
REMARK                            x       y       z     vdW  Elec       q    Type
REMARK                         _______ _______ _______ _____ _____    ______ ____
ROOT
ATOM      1  N   UNL     1       4.522   5.370  17.987  0.00  0.00    +0.000 N 
ATOM      2  C   UNL     1       5.879   5.536  17.670  0.00  0.00    +0.000 C 
ATOM      3  O   UNL     1       6.399   4.930  16.727  0.00  0.00    +0.000 OA
ENDROOT
BRANCH   2   4
ATOM      4  C   UNL     1       6.742   6.461  18.520  0.00  0.00    +0.000 C 
ATOM      5  C   UNL     1       7.851   5.637  19.180  0.00  0.00    +0.000 C 
BRANCH   4   6
ATOM      6  C   UNL     1       7.371   7.563  17.634  0.00  0.00    +0.000 C 
BRANCH   6   7
ATOM      7  N   UNL     1       8.447   8.355  18.245  0.00  0.00    +0.000 NA
ATOM      8  H   UNL     1       9.349   7.933  18.017  0.00  0.00    +0.000 HD
BRANCH   7   9
ATOM      9  C   UNL     1       8.449   9.753  17.827  0.00  0.00    +0.000 C 
BRANCH   9  10
ATOM     10  C   UNL     1       9.202  10.638  18.799  0.00  0.00    +0.000 A 
ATOM     11  C   UNL     1       9.071  10.442  20.185  0.00  0.00    +0.000 A 
ATOM     12  C   UNL     1       9.704  11.280  21.105  0.00  0.00    +0.000 A 
ATOM     13  C   UNL     1      10.479  12.367  20.689  0.00  0.00    +0.000 A 
ATOM     14  C   UNL     1      10.627  12.558  19.313  0.00  0.00    +0.000 A 
ATOM     15  N   UNL     1      11.311  13.525  18.622  0.00  0.00    +0.000 N 
ATOM     16  C   UNL     1      11.223  13.290  17.275  0.00  0.00    +0.000 A 
ATOM     17  C   UNL     1      10.472  12.152  17.117  0.00  0.00    +0.000 A 
ATOM     18  C   UNL     1      10.034  11.704  18.383  0.00  0.00    +0.000 A 
ATOM     19  H   UNL     1      11.816  14.288  19.043  0.00  0.00    +0.000 HD
ENDBRANCH   9  10
ENDBRANCH   7   9
ENDBRANCH   6   7
ENDBRANCH   4   6
ENDBRANCH   2   4
BRANCH   1  20
ATOM     20  C   UNL     1       3.795   4.395  17.147  0.00  0.00    +0.000 C 
BRANCH  20  22
ATOM     21  C   UNL     1       1.243   4.121  17.468  0.00  0.00    +0.000 C 
ATOM     22  C   UNL     1       2.644   3.636  17.841  0.00  0.00    +0.000 C 
ATOM     23  C   UNL     1       2.744   2.139  17.514  0.00  0.00    +0.000 C 
ENDBRANCH  20  22
ENDBRANCH   1  20
BRANCH   1  24
ATOM     24  C   UNL     1       3.928   5.734  19.295  0.00  0.00    +0.000 C 
BRANCH  24  25
ATOM     25  C   UNL     1       3.013   6.946  19.358  0.00  0.00    +0.000 A 
ATOM     26  C   UNL     1       2.867   7.801  18.257  0.00  0.00    +0.000 A 
ATOM     27  C   UNL     1       1.948   8.861  18.292  0.00  0.00    +0.000 A 
ATOM     28  F   UNL     1       1.871   9.673  17.227  0.00  0.00    +0.000 F 
ATOM     29  C   UNL     1       1.161   9.114  19.418  0.00  0.00    +0.000 A 
ATOM     30  C   UNL     1       1.261   8.251  20.507  0.00  0.00    +0.000 A 
ATOM     31  C   UNL     1       2.172   7.175  20.470  0.00  0.00    +0.000 A 
ATOM     32  O   UNL     1       0.387   8.275  21.562  0.00  0.00    +0.000 OA
ATOM     33  C   UNL     1       0.399   9.487  22.319  0.00  0.00    +0.000 C 
ATOM     34  C   UNL     1      -0.323  10.645  21.646  0.00  0.00    +0.000 C 
ATOM     35  C   UNL     1       0.407  11.091  20.392  0.00  0.00    +0.000 C 
ATOM     36  O   UNL     1       0.258  10.139  19.340  0.00  0.00    +0.000 OA
ENDBRANCH  24  25
ENDBRANCH   1  24
TORSDOF 9
ENDMDL
MODEL 5
REMARK VINA RESULT:      -8.1      2.589      4.407
REMARK  Name = 
REMARK  12 active torsions:
REMARK  status: ('A' for Active; 'I' for Inactive)
REMARK    1  A    between atoms: C_1  and  C_2
REMARK    2  A    between atoms: C_2  and  C_3
REMARK    3  A    between atoms: C_2  and  C_4
REMARK    4  A    between atoms: C_4  and  N_5
REMARK    5  A    between atoms: N_5  and  C_6
REMARK    6  A    between atoms: C_6  and  C_7
REMARK    7  A    between atoms: C_19  and  C_21
REMARK    8  A    between atoms: C_21  and  C_22
REMARK    9  A    between atoms: C_21  and  C_23
REMARK   10  A    between atoms: C_23  and  N_24
REMARK   11  A    between atoms: N_24  and  C_25
REMARK   12  A    between atoms: C_25  and  C_26
REMARK                            x       y       z     vdW  Elec       q    Type
REMARK                         _______ _______ _______ _____ _____    ______ ____
ROOT
ATOM      1  N   UNL     1       4.124   5.216  18.165  0.00  0.00    +0.000 N 
ATOM      2  C   UNL     1       5.441   5.320  17.692  0.00  0.00    +0.000 C 
ATOM      3  O   UNL     1       5.853   4.608  16.770  0.00  0.00    +0.000 OA
ENDROOT
BRANCH   2   4
ATOM      4  C   UNL     1       6.397   6.313  18.343  0.00  0.00    +0.000 C 
ATOM      5  C   UNL     1       7.164   5.602  19.462  0.00  0.00    +0.000 C 
BRANCH   4   6
ATOM      6  C   UNL     1       7.395   6.856  17.293  0.00  0.00    +0.000 C 
BRANCH   6   7
ATOM      7  N   UNL     1       7.545   8.316  17.230  0.00  0.00    +0.000 NA
ATOM      8  H   UNL     1       6.623   8.752  17.280  0.00  0.00    +0.000 HD
BRANCH   7   9
ATOM      9  C   UNL     1       8.394   8.860  18.285  0.00  0.00    +0.000 C 
BRANCH   9  10
ATOM     10  C   UNL     1       8.499  10.369  18.211  0.00  0.00    +0.000 A 
ATOM     11  C   UNL     1       7.685  11.094  17.323  0.00  0.00    +0.000 A 
ATOM     12  C   UNL     1       7.802  12.479  17.191  0.00  0.00    +0.000 A 
ATOM     13  C   UNL     1       8.751  13.205  17.917  0.00  0.00    +0.000 A 
ATOM     14  C   UNL     1       9.552  12.493  18.814  0.00  0.00    +0.000 A 
ATOM     15  N   UNL     1      10.554  12.926  19.643  0.00  0.00    +0.000 N 
ATOM     16  C   UNL     1      11.033  11.881  20.387  0.00  0.00    +0.000 A 
ATOM     17  C   UNL     1      10.317  10.769  20.019  0.00  0.00    +0.000 A 
ATOM     18  C   UNL     1       9.417  11.115  18.987  0.00  0.00    +0.000 A 
ATOM     19  H   UNL     1      10.880  13.878  19.708  0.00  0.00    +0.000 HD
ENDBRANCH   9  10
ENDBRANCH   7   9
ENDBRANCH   6   7
ENDBRANCH   4   6
ENDBRANCH   2   4
BRANCH   1  20
ATOM     20  C   UNL     1       3.303   4.173  17.514  0.00  0.00    +0.000 C 
BRANCH  20  22
ATOM     21  C   UNL     1       1.287   2.825  18.413  0.00  0.00    +0.000 C 
ATOM     22  C   UNL     1       2.801   3.041  18.435  0.00  0.00    +0.000 C 
ATOM     23  C   UNL     1       3.487   1.723  18.051  0.00  0.00    +0.000 C 
ENDBRANCH  20  22
ENDBRANCH   1  20
BRANCH   1  24
ATOM     24  C   UNL     1       3.674   5.729  19.480  0.00  0.00    +0.000 C 
BRANCH  24  25
ATOM     25  C   UNL     1       2.806   6.977  19.508  0.00  0.00    +0.000 A 
ATOM     26  C   UNL     1       2.688   7.803  18.383  0.00  0.00    +0.000 A 
ATOM     27  C   UNL     1       1.810   8.898  18.388  0.00  0.00    +0.000 A 
ATOM     28  F   UNL     1       1.760   9.680  17.299  0.00  0.00    +0.000 F 
ATOM     29  C   UNL     1       1.038   9.215  19.507  0.00  0.00    +0.000 A 
ATOM     30  C   UNL     1       1.110   8.382  20.622  0.00  0.00    +0.000 A 
ATOM     31  C   UNL     1       1.978   7.272  20.615  0.00  0.00    +0.000 A 
ATOM     32  O   UNL     1       0.240   8.471  21.678  0.00  0.00    +0.000 OA
ATOM     33  C   UNL     1       0.301   9.704  22.397  0.00  0.00    +0.000 C 
ATOM     34  C   UNL     1      -0.379  10.868  21.691  0.00  0.00    +0.000 C 
ATOM     35  C   UNL     1       0.364  11.247  20.423  0.00  0.00    +0.000 C 
ATOM     36  O   UNL     1       0.174  10.270  19.400  0.00  0.00    +0.000 OA
ENDBRANCH  24  25
ENDBRANCH   1  24
TORSDOF 9
ENDMDL
MODEL 6
REMARK VINA RESULT:      -8.1      3.809      4.929
REMARK  Name = 
REMARK  12 active torsions:
REMARK  status: ('A' for Active; 'I' for Inactive)
REMARK    1  A    between atoms: C_1  and  C_2
REMARK    2  A    between atoms: C_2  and  C_3
REMARK    3  A    between atoms: C_2  and  C_4
REMARK    4  A    between atoms: C_4  and  N_5
REMARK    5  A    between atoms: N_5  and  C_6
REMARK    6  A    between atoms: C_6  and  C_7
REMARK    7  A    between atoms: C_19  and  C_21
REMARK    8  A    between atoms: C_21  and  C_22
REMARK    9  A    between atoms: C_21  and  C_23
REMARK   10  A    between atoms: C_23  and  N_24
REMARK   11  A    between atoms: N_24  and  C_25
REMARK   12  A    between atoms: C_25  and  C_26
REMARK                            x       y       z     vdW  Elec       q    Type
REMARK                         _______ _______ _______ _____ _____    ______ ____
ROOT
ATOM      1  N   UNL     1       5.867   4.875  15.717  0.00  0.00    +0.000 N 
ATOM      2  C   UNL     1       6.610   5.760  16.514  0.00  0.00    +0.000 C 
ATOM      3  O   UNL     1       7.258   6.686  16.016  0.00  0.00    +0.000 OA
ENDROOT
BRANCH   2   4
ATOM      4  C   UNL     1       6.642   5.564  18.026  0.00  0.00    +0.000 C 
ATOM      5  C   UNL     1       7.854   6.306  18.596  0.00  0.00    +0.000 C 
BRANCH   4   6
ATOM      6  C   UNL     1       5.347   6.121  18.661  0.00  0.00    +0.000 C 
BRANCH   6   7
ATOM      7  N   UNL     1       4.732   7.272  17.986  0.00  0.00    +0.000 NA
ATOM      8  H   UNL     1       5.217   7.444  17.104  0.00  0.00    +0.000 HD
BRANCH   7   9
ATOM      9  C   UNL     1       3.306   7.101  17.728  0.00  0.00    +0.000 C 
BRANCH   9  10
ATOM     10  C   UNL     1       2.454   7.625  18.865  0.00  0.00    +0.000 A 
ATOM     11  C   UNL     1       2.187   6.815  19.983  0.00  0.00    +0.000 A 
ATOM     12  C   UNL     1       1.356   7.249  21.017  0.00  0.00    +0.000 A 
ATOM     13  C   UNL     1       0.730   8.498  20.977  0.00  0.00    +0.000 A 
ATOM     14  C   UNL     1       1.003   9.315  19.877  0.00  0.00    +0.000 A 
ATOM     15  N   UNL     1       0.539  10.568  19.566  0.00  0.00    +0.000 N 
ATOM     16  C   UNL     1       1.117  11.008  18.405  0.00  0.00    +0.000 A 
ATOM     17  C   UNL     1       1.963  10.014  17.978  0.00  0.00    +0.000 A 
ATOM     18  C   UNL     1       1.865   8.912  18.856  0.00  0.00    +0.000 A 
ATOM     19  H   UNL     1      -0.119  11.093  20.119  0.00  0.00    +0.000 HD
ENDBRANCH   9  10
ENDBRANCH   7   9
ENDBRANCH   6   7
ENDBRANCH   4   6
ENDBRANCH   2   4
BRANCH   1  20
ATOM     20  C   UNL     1       5.963   5.109  14.261  0.00  0.00    +0.000 C 
BRANCH  20  22
ATOM     21  C   UNL     1       5.351   3.304  12.512  0.00  0.00    +0.000 C 
ATOM     22  C   UNL     1       6.429   3.905  13.416  0.00  0.00    +0.000 C 
ATOM     23  C   UNL     1       7.621   4.320  12.542  0.00  0.00    +0.000 C 
ENDBRANCH  20  22
ENDBRANCH   1  20
BRANCH   1  24
ATOM     24  C   UNL     1       5.398   3.545  16.174  0.00  0.00    +0.000 C 
BRANCH  24  25
ATOM     25  C   UNL     1       4.191   3.486  17.097  0.00  0.00    +0.000 A 
ATOM     26  C   UNL     1       2.946   3.986  16.694  0.00  0.00    +0.000 A 
ATOM     27  C   UNL     1       1.817   3.839  17.514  0.00  0.00    +0.000 A 
ATOM     28  F   UNL     1       0.655   4.367  17.100  0.00  0.00    +0.000 F 
ATOM     29  C   UNL     1       1.890   3.209  18.758  0.00  0.00    +0.000 A 
ATOM     30  C   UNL     1       3.110   2.669  19.160  0.00  0.00    +0.000 A 
ATOM     31  C   UNL     1       4.243   2.799  18.331  0.00  0.00    +0.000 A 
ATOM     32  O   UNL     1       3.240   1.845  20.247  0.00  0.00    +0.000 OA
ATOM     33  C   UNL     1       2.919   2.455  21.499  0.00  0.00    +0.000 C 
ATOM     34  C   UNL     1       1.425   2.609  21.748  0.00  0.00    +0.000 C 
ATOM     35  C   UNL     1       0.810   3.607  20.784  0.00  0.00    +0.000 C 
ATOM     36  O   UNL     1       0.727   3.069  19.464  0.00  0.00    +0.000 OA
ENDBRANCH  24  25
ENDBRANCH   1  24
TORSDOF 9
ENDMDL
MODEL 7
REMARK VINA RESULT:      -7.8      2.526      4.141
REMARK  Name = 
REMARK  12 active torsions:
REMARK  status: ('A' for Active; 'I' for Inactive)
REMARK    1  A    between atoms: C_1  and  C_2
REMARK    2  A    between atoms: C_2  and  C_3
REMARK    3  A    between atoms: C_2  and  C_4
REMARK    4  A    between atoms: C_4  and  N_5
REMARK    5  A    between atoms: N_5  and  C_6
REMARK    6  A    between atoms: C_6  and  C_7
REMARK    7  A    between atoms: C_19  and  C_21
REMARK    8  A    between atoms: C_21  and  C_22
REMARK    9  A    between atoms: C_21  and  C_23
REMARK   10  A    between atoms: C_23  and  N_24
REMARK   11  A    between atoms: N_24  and  C_25
REMARK   12  A    between atoms: C_25  and  C_26
REMARK                            x       y       z     vdW  Elec       q    Type
REMARK                         _______ _______ _______ _____ _____    ______ ____
ROOT
ATOM      1  N   UNL     1       4.204   5.174  18.324  0.00  0.00    +0.000 N 
ATOM      2  C   UNL     1       5.532   5.248  17.875  0.00  0.00    +0.000 C 
ATOM      3  O   UNL     1       5.957   4.491  16.995  0.00  0.00    +0.000 OA
ENDROOT
BRANCH   2   4
ATOM      4  C   UNL     1       6.482   6.262  18.500  0.00  0.00    +0.000 C 
ATOM      5  C   UNL     1       7.563   5.512  19.285  0.00  0.00    +0.000 C 
BRANCH   4   6
ATOM      6  C   UNL     1       7.145   7.120  17.397  0.00  0.00    +0.000 C 
BRANCH   6   7
ATOM      7  N   UNL     1       8.152   8.093  17.843  0.00  0.00    +0.000 NA
ATOM      8  H   UNL     1       9.055   7.858  17.427  0.00  0.00    +0.000 HD
BRANCH   7   9
ATOM      9  C   UNL     1       7.813   9.473  17.515  0.00  0.00    +0.000 C 
BRANCH   9  10
ATOM     10  C   UNL     1       8.586  10.466  18.358  0.00  0.00    +0.000 A 
ATOM     11  C   UNL     1       9.428  10.017  19.389  0.00  0.00    +0.000 A 
ATOM     12  C   UNL     1      10.106  10.910  20.221  0.00  0.00    +0.000 A 
ATOM     13  C   UNL     1       9.957  12.294  20.082  0.00  0.00    +0.000 A 
ATOM     14  C   UNL     1       9.134  12.748  19.048  0.00  0.00    +0.000 A 
ATOM     15  N   UNL     1       8.799  14.025  18.678  0.00  0.00    +0.000 N 
ATOM     16  C   UNL     1       7.998  13.998  17.568  0.00  0.00    +0.000 A 
ATOM     17  C   UNL     1       7.828  12.677  17.232  0.00  0.00    +0.000 A 
ATOM     18  C   UNL     1       8.484  11.867  18.183  0.00  0.00    +0.000 A 
ATOM     19  H   UNL     1       9.110  14.862  19.146  0.00  0.00    +0.000 HD
ENDBRANCH   9  10
ENDBRANCH   7   9
ENDBRANCH   6   7
ENDBRANCH   4   6
ENDBRANCH   2   4
BRANCH   1  20
ATOM     20  C   UNL     1       3.389   4.108  17.705  0.00  0.00    +0.000 C 
BRANCH  20  22
ATOM     21  C   UNL     1       1.825   2.076  18.043  0.00  0.00    +0.000 C 
ATOM     22  C   UNL     1       2.834   3.039  18.669  0.00  0.00    +0.000 C 
ATOM     23  C   UNL     1       3.995   2.219  19.251  0.00  0.00    +0.000 C 
ENDBRANCH  20  22
ENDBRANCH   1  20
BRANCH   1  24
ATOM     24  C   UNL     1       3.732   5.749  19.605  0.00  0.00    +0.000 C 
BRANCH  24  25
ATOM     25  C   UNL     1       2.848   6.985  19.558  0.00  0.00    +0.000 A 
ATOM     26  C   UNL     1       2.756   7.766  18.398  0.00  0.00    +0.000 A 
ATOM     27  C   UNL     1       1.865   8.847  18.333  0.00  0.00    +0.000 A 
ATOM     28  F   UNL     1       1.840   9.587  17.214  0.00  0.00    +0.000 F 
ATOM     29  C   UNL     1       1.053   9.196  19.414  0.00  0.00    +0.000 A 
ATOM     30  C   UNL     1       1.099   8.408  20.562  0.00  0.00    +0.000 A 
ATOM     31  C   UNL     1       1.981   7.310  20.626  0.00  0.00    +0.000 A 
ATOM     32  O   UNL     1       0.195   8.526  21.586  0.00  0.00    +0.000 OA
ATOM     33  C   UNL     1       0.218   9.786  22.259  0.00  0.00    +0.000 C 
ATOM     34  C   UNL     1      -0.454  10.913  21.487  0.00  0.00    +0.000 C 
ATOM     35  C   UNL     1       0.324  11.253  20.229  0.00  0.00    +0.000 C 
ATOM     36  O   UNL     1       0.180  10.235  19.239  0.00  0.00    +0.000 OA
ENDBRANCH  24  25
ENDBRANCH   1  24
TORSDOF 9
ENDMDL
MODEL 8
REMARK VINA RESULT:      -7.7      6.597     10.210
REMARK  Name = 
REMARK  12 active torsions:
REMARK  status: ('A' for Active; 'I' for Inactive)
REMARK    1  A    between atoms: C_1  and  C_2
REMARK    2  A    between atoms: C_2  and  C_3
REMARK    3  A    between atoms: C_2  and  C_4
REMARK    4  A    between atoms: C_4  and  N_5
REMARK    5  A    between atoms: N_5  and  C_6
REMARK    6  A    between atoms: C_6  and  C_7
REMARK    7  A    between atoms: C_19  and  C_21
REMARK    8  A    between atoms: C_21  and  C_22
REMARK    9  A    between atoms: C_21  and  C_23
REMARK   10  A    between atoms: C_23  and  N_24
REMARK   11  A    between atoms: N_24  and  C_25
REMARK   12  A    between atoms: C_25  and  C_26
REMARK                            x       y       z     vdW  Elec       q    Type
REMARK                         _______ _______ _______ _____ _____    ______ ____
ROOT
ATOM      1  N   UNL     1       0.005  11.144  20.146  0.00  0.00    +0.000 N 
ATOM      2  C   UNL     1       0.923  10.126  19.845  0.00  0.00    +0.000 C 
ATOM      3  O   UNL     1       1.576   9.565  20.731  0.00  0.00    +0.000 OA
ENDROOT
BRANCH   2   4
ATOM      4  C   UNL     1       1.143   9.718  18.393  0.00  0.00    +0.000 C 
ATOM      5  C   UNL     1       2.143  10.684  17.752  0.00  0.00    +0.000 C 
BRANCH   4   6
ATOM      6  C   UNL     1       1.699   8.276  18.325  0.00  0.00    +0.000 C 
BRANCH   6   7
ATOM      7  N   UNL     1       2.722   8.018  17.302  0.00  0.00    +0.000 NA
ATOM      8  H   UNL     1       2.885   8.873  16.766  0.00  0.00    +0.000 HD
BRANCH   7   9
ATOM      9  C   UNL     1       3.987   7.544  17.850  0.00  0.00    +0.000 C 
BRANCH   9  10
ATOM     10  C   UNL     1       4.512   6.332  17.107  0.00  0.00    +0.000 A 
ATOM     11  C   UNL     1       5.151   6.484  15.864  0.00  0.00    +0.000 A 
ATOM     12  C   UNL     1       5.591   5.382  15.129  0.00  0.00    +0.000 A 
ATOM     13  C   UNL     1       5.394   4.075  15.585  0.00  0.00    +0.000 A 
ATOM     14  C   UNL     1       4.775   3.916  16.827  0.00  0.00    +0.000 A 
ATOM     15  N   UNL     1       4.449   2.776  17.516  0.00  0.00    +0.000 N 
ATOM     16  C   UNL     1       3.895   3.101  18.726  0.00  0.00    +0.000 A 
ATOM     17  C   UNL     1       3.874   4.472  18.800  0.00  0.00    +0.000 A 
ATOM     18  C   UNL     1       4.367   5.011  17.591  0.00  0.00    +0.000 A 
ATOM     19  H   UNL     1       4.609   1.837  17.188  0.00  0.00    +0.000 HD
ENDBRANCH   9  10
ENDBRANCH   7   9
ENDBRANCH   6   7
ENDBRANCH   4   6
ENDBRANCH   2   4
BRANCH   1  20
ATOM     20  C   UNL     1      -0.078  11.513  21.575  0.00  0.00    +0.000 C 
BRANCH  20  22
ATOM     21  C   UNL     1      -0.531   9.709  23.372  0.00  0.00    +0.000 C 
ATOM     22  C   UNL     1      -1.121  10.741  22.409  0.00  0.00    +0.000 C 
ATOM     23  C   UNL     1      -1.970  11.732  23.219  0.00  0.00    +0.000 C 
ENDBRANCH  20  22
ENDBRANCH   1  20
BRANCH   1  24
ATOM     24  C   UNL     1      -0.512  12.112  19.151  0.00  0.00    +0.000 C 
BRANCH  24  25
ATOM     25  C   UNL     1      -1.955  11.973  18.693  0.00  0.00    +0.000 A 
ATOM     26  C   UNL     1      -2.271  11.394  17.456  0.00  0.00    +0.000 A 
ATOM     27  C   UNL     1      -3.607  11.183  17.085  0.00  0.00    +0.000 A 
ATOM     28  F   UNL     1      -3.857  10.659  15.875  0.00  0.00    +0.000 F 
ATOM     29  C   UNL     1      -4.667  11.551  17.917  0.00  0.00    +0.000 A 
ATOM     30  C   UNL     1      -4.375  12.090  19.167  0.00  0.00    +0.000 A 
ATOM     31  C   UNL     1      -3.033  12.289  19.551  0.00  0.00    +0.000 A 
ATOM     32  O   UNL     1      -5.322  12.277  20.140  0.00  0.00    +0.000 OA
ATOM     33  C   UNL     1      -6.348  13.212  19.801  0.00  0.00    +0.000 C 
ATOM     34  C   UNL     1      -7.391  12.665  18.838  0.00  0.00    +0.000 C 
ATOM     35  C   UNL     1      -6.788  12.403  17.470  0.00  0.00    +0.000 C 
ATOM     36  O   UNL     1      -5.934  11.260  17.491  0.00  0.00    +0.000 OA
ENDBRANCH  24  25
ENDBRANCH   1  24
TORSDOF 9
ENDMDL
MODEL 9
REMARK VINA RESULT:      -7.5      7.899     11.368
REMARK  Name = 
REMARK  12 active torsions:
REMARK  status: ('A' for Active; 'I' for Inactive)
REMARK    1  A    between atoms: C_1  and  C_2
REMARK    2  A    between atoms: C_2  and  C_3
REMARK    3  A    between atoms: C_2  and  C_4
REMARK    4  A    between atoms: C_4  and  N_5
REMARK    5  A    between atoms: N_5  and  C_6
REMARK    6  A    between atoms: C_6  and  C_7
REMARK    7  A    between atoms: C_19  and  C_21
REMARK    8  A    between atoms: C_21  and  C_22
REMARK    9  A    between atoms: C_21  and  C_23
REMARK   10  A    between atoms: C_23  and  N_24
REMARK   11  A    between atoms: N_24  and  C_25
REMARK   12  A    between atoms: C_25  and  C_26
REMARK                            x       y       z     vdW  Elec       q    Type
REMARK                         _______ _______ _______ _____ _____    ______ ____
ROOT
ATOM      1  N   UNL     1      -0.362  11.946  20.600  0.00  0.00    +0.000 N 
ATOM      2  C   UNL     1      -0.197  10.561  20.445  0.00  0.00    +0.000 C 
ATOM      3  O   UNL     1      -0.497   9.990  19.392  0.00  0.00    +0.000 OA
ENDROOT
BRANCH   2   4
ATOM      4  C   UNL     1       0.340   9.734  21.608  0.00  0.00    +0.000 C 
ATOM      5  C   UNL     1      -0.702   8.677  21.987  0.00  0.00    +0.000 C 
BRANCH   4   6
ATOM      6  C   UNL     1       1.660   9.038  21.200  0.00  0.00    +0.000 C 
BRANCH   6   7
ATOM      7  N   UNL     1       1.631   7.570  21.138  0.00  0.00    +0.000 NA
ATOM      8  H   UNL     1       0.666   7.247  21.232  0.00  0.00    +0.000 HD
BRANCH   7   9
ATOM      9  C   UNL     1       2.202   7.029  19.910  0.00  0.00    +0.000 C 
BRANCH   9  10
ATOM     10  C   UNL     1       2.436   5.535  19.999  0.00  0.00    +0.000 A 
ATOM     11  C   UNL     1       1.483   4.704  20.612  0.00  0.00    +0.000 A 
ATOM     12  C   UNL     1       1.698   3.332  20.763  0.00  0.00    +0.000 A 
ATOM     13  C   UNL     1       2.883   2.727  20.333  0.00  0.00    +0.000 A 
ATOM     14  C   UNL     1       3.828   3.545  19.708  0.00  0.00    +0.000 A 
ATOM     15  N   UNL     1       5.063   3.240  19.196  0.00  0.00    +0.000 N 
ATOM     16  C   UNL     1       5.625   4.353  18.628  0.00  0.00    +0.000 A 
ATOM     17  C   UNL     1       4.723   5.377  18.784  0.00  0.00    +0.000 A 
ATOM     18  C   UNL     1       3.608   4.909  19.513  0.00  0.00    +0.000 A 
ATOM     19  H   UNL     1       5.490   2.327  19.221  0.00  0.00    +0.000 HD
ENDBRANCH   9  10
ENDBRANCH   7   9
ENDBRANCH   6   7
ENDBRANCH   4   6
ENDBRANCH   2   4
BRANCH   1  20
ATOM     20  C   UNL     1      -0.958  12.641  19.439  0.00  0.00    +0.000 C 
BRANCH  20  22
ATOM     21  C   UNL     1      -0.120  15.080  19.236  0.00  0.00    +0.000 C 
ATOM     22  C   UNL     1      -0.039  13.645  18.713  0.00  0.00    +0.000 C 
ATOM     23  C   UNL     1       1.419  13.173  18.810  0.00  0.00    +0.000 C 
ENDBRANCH  20  22
ENDBRANCH   1  20
BRANCH   1  24
ATOM     24  C   UNL     1      -0.403  12.633  21.912  0.00  0.00    +0.000 C 
BRANCH  24  25
ATOM     25  C   UNL     1      -1.731  13.201  22.387  0.00  0.00    +0.000 A 
ATOM     26  C   UNL     1      -2.943  12.576  22.066  0.00  0.00    +0.000 A 
ATOM     27  C   UNL     1      -4.154  13.053  22.589  0.00  0.00    +0.000 A 
ATOM     28  F   UNL     1      -5.291  12.442  22.223  0.00  0.00    +0.000 F 
ATOM     29  C   UNL     1      -4.203  14.167  23.429  0.00  0.00    +0.000 A 
ATOM     30  C   UNL     1      -3.006  14.779  23.793  0.00  0.00    +0.000 A 
ATOM     31  C   UNL     1      -1.784  14.293  23.283  0.00  0.00    +0.000 A 
ATOM     32  O   UNL     1      -2.922  15.730  24.777  0.00  0.00    +0.000 OA
ATOM     33  C   UNL     1      -3.638  16.936  24.503  0.00  0.00    +0.000 C 
ATOM     34  C   UNL     1      -5.143  16.819  24.693  0.00  0.00    +0.000 C 
ATOM     35  C   UNL     1      -5.754  15.890  23.660  0.00  0.00    +0.000 C 
ATOM     36  O   UNL     1      -5.424  14.528  23.929  0.00  0.00    +0.000 OA
ENDBRANCH  24  25
ENDBRANCH   1  24
TORSDOF 9
ENDMDL
