MODEL 1
REMARK VINA RESULT:      -7.8      0.000      0.000
REMARK  Name = 
REMARK  11 active torsions:
REMARK  status: ('A' for Active; 'I' for Inactive)
REMARK    1  A    between atoms: C_1  and  O_2
REMARK    2  A    between atoms: O_2  and  C_3
REMARK    3  A    between atoms: C_5  and  N_6
REMARK    4  A    between atoms: C_7  and  C_9
REMARK    5  A    between atoms: C_9  and  C_10
REMARK    6  A    between atoms: C_9  and  N_17
REMARK    7  A    between atoms: C_10  and  C_11
REMARK    8  A    between atoms: N_17  and  S_18
REMARK    9  A    between atoms: S_18  and  C_21
REMARK   10  A    between atoms: C_31  and  O_32
REMARK   11  A    between atoms: O_32  and  C_33
REMARK                            x       y       z     vdW  Elec       q    Type
REMARK                         _______ _______ _______ _____ _____    ______ ____
ROOT
ATOM      1  C   UNL     1       1.269   9.546  19.846  0.00  0.00    +0.000 C 
ENDROOT
BRANCH   1   3
ATOM      2  N   UNL     1       2.311   7.916  18.326  0.00  0.00    +0.000 N 
ATOM      3  C   UNL     1       1.803   8.126  19.601  0.00  0.00    +0.000 C 
ATOM      4  O   UNL     1       1.734   7.298  20.507  0.00  0.00    +0.000 OA
ATOM      5  H   UNL     1       2.333   8.709  17.697  0.00  0.00    +0.000 HD
BRANCH   2   8
ATOM      6  C   UNL     1       3.144   4.340  17.548  0.00  0.00    +0.000 A 
ATOM      7  C   UNL     1       2.444   5.462  18.006  0.00  0.00    +0.000 A 
ATOM      8  C   UNL     1       2.963   6.749  17.860  0.00  0.00    +0.000 A 
ATOM      9  C   UNL     1       4.206   6.897  17.231  0.00  0.00    +0.000 A 
ATOM     10  C   UNL     1       4.920   5.782  16.771  0.00  0.00    +0.000 A 
ATOM     11  C   UNL     1       4.390   4.501  16.943  0.00  0.00    +0.000 A 
BRANCH   6  13
ATOM     12  C   UNL     1       2.448   2.642  19.070  0.00  0.00    +0.000 C 
ATOM     13  O   UNL     1       2.493   3.153  17.745  0.00  0.00    +0.000 OA
ENDBRANCH   6  13
BRANCH  10  14
ATOM     14  O   UNL     1       6.119   6.069  16.172  0.00  0.00    +0.000 OA
ATOM     15  C   UNL     1       7.064   5.007  16.081  0.00  0.00    +0.000 C 
ENDBRANCH  10  14
ENDBRANCH   2   8
ENDBRANCH   1   3
BRANCH   1  16
ATOM     16  N   UNL     1       0.017   9.438  20.644  0.00  0.00    +0.000 NA
ATOM     17  H   UNL     1      -0.499   8.569  20.490  0.00  0.00    +0.000 HD
BRANCH  16  18
ATOM     18  S   UNL     1       0.087   9.744  22.296  0.00  0.00    +0.000 S 
ATOM     19  O   UNL     1      -0.847   8.810  22.893  0.00  0.00    +0.000 OA
ATOM     20  O   UNL     1       1.463   9.800  22.723  0.00  0.00    +0.000 OA
BRANCH  18  21
ATOM     21  C   UNL     1      -0.631  11.338  22.429  0.00  0.00    +0.000 A 
ATOM     22  C   UNL     1      -1.863  11.505  23.104  0.00  0.00    +0.000 A 
ATOM     23  C   UNL     1      -2.460  12.769  23.316  0.00  0.00    +0.000 A 
ATOM     24  C   UNL     1      -1.871  13.969  22.889  0.00  0.00    +0.000 A 
ATOM     25  C   UNL     1      -0.630  13.859  22.218  0.00  0.00    +0.000 A 
ATOM     26  N   UNL     1       0.094  14.887  21.749  0.00  0.00    +0.000 NA
ATOM     27  S   UNL     1       1.459  14.235  21.074  0.00  0.00    +0.000 S 
ATOM     28  N   UNL     1       1.163  12.618  21.284  0.00  0.00    +0.000 NA
ATOM     29  C   UNL     1       0.009  12.511  21.967  0.00  0.00    +0.000 A 
ENDBRANCH  18  21
ENDBRANCH  16  18
ENDBRANCH   1  16
BRANCH   1  30
ATOM     30  C   UNL     1       0.954  10.166  18.467  0.00  0.00    +0.000 C 
BRANCH  30  31
ATOM     31  C   UNL     1      -0.517  10.453  18.262  0.00  0.00    +0.000 A 
ATOM     32  C   UNL     1      -1.327   9.566  17.543  0.00  0.00    +0.000 A 
ATOM     33  C   UNL     1      -2.667   9.873  17.297  0.00  0.00    +0.000 A 
ATOM     34  C   UNL     1      -3.210  11.066  17.769  0.00  0.00    +0.000 A 
ATOM     35  C   UNL     1      -2.421  11.945  18.506  0.00  0.00    +0.000 A 
ATOM     36  C   UNL     1      -1.084  11.638  18.758  0.00  0.00    +0.000 A 
ENDBRANCH  30  31
ENDBRANCH   1  30
TORSDOF 9
ENDMDL
MODEL 2
REMARK VINA RESULT:      -7.8      0.359      2.187
REMARK  Name = 
REMARK  11 active torsions:
REMARK  status: ('A' for Active; 'I' for Inactive)
REMARK    1  A    between atoms: C_1  and  O_2
REMARK    2  A    between atoms: O_2  and  C_3
REMARK    3  A    between atoms: C_5  and  N_6
REMARK    4  A    between atoms: C_7  and  C_9
REMARK    5  A    between atoms: C_9  and  C_10
REMARK    6  A    between atoms: C_9  and  N_17
REMARK    7  A    between atoms: C_10  and  C_11
REMARK    8  A    between atoms: N_17  and  S_18
REMARK    9  A    between atoms: S_18  and  C_21
REMARK   10  A    between atoms: C_31  and  O_32
REMARK   11  A    between atoms: O_32  and  C_33
REMARK                            x       y       z     vdW  Elec       q    Type
REMARK                         _______ _______ _______ _____ _____    ______ ____
ROOT
ATOM      1  C   UNL     1       1.230   9.525  19.699  0.00  0.00    +0.000 C 
ENDROOT
BRANCH   1   3
ATOM      2  N   UNL     1       2.369   7.856  18.297  0.00  0.00    +0.000 N 
ATOM      3  C   UNL     1       1.809   8.110  19.541  0.00  0.00    +0.000 C 
ATOM      4  O   UNL     1       1.727   7.323  20.481  0.00  0.00    +0.000 OA
ATOM      5  H   UNL     1       2.395   8.619  17.632  0.00  0.00    +0.000 HD
BRANCH   2   8
ATOM      6  C   UNL     1       4.996   5.512  16.995  0.00  0.00    +0.000 A 
ATOM      7  C   UNL     1       4.361   6.696  17.384  0.00  0.00    +0.000 A 
ATOM      8  C   UNL     1       3.068   6.687  17.910  0.00  0.00    +0.000 A 
ATOM      9  C   UNL     1       2.417   5.454  18.049  0.00  0.00    +0.000 A 
ATOM     10  C   UNL     1       3.039   4.260  17.659  0.00  0.00    +0.000 A 
ATOM     11  C   UNL     1       4.327   4.295  17.119  0.00  0.00    +0.000 A 
BRANCH   6  13
ATOM     12  C   UNL     1       6.594   5.073  15.281  0.00  0.00    +0.000 C 
ATOM     13  O   UNL     1       6.267   5.686  16.520  0.00  0.00    +0.000 OA
ENDBRANCH   6  13
BRANCH  10  14
ATOM     14  O   UNL     1       2.291   3.128  17.853  0.00  0.00    +0.000 OA
ATOM     15  C   UNL     1       2.999   1.894  17.924  0.00  0.00    +0.000 C 
ENDBRANCH  10  14
ENDBRANCH   2   8
ENDBRANCH   1   3
BRANCH   1  16
ATOM     16  N   UNL     1       0.010   9.433  20.548  0.00  0.00    +0.000 NA
ATOM     17  H   UNL     1      -0.513   8.564  20.429  0.00  0.00    +0.000 HD
BRANCH  16  18
ATOM     18  S   UNL     1       0.147   9.766  22.191  0.00  0.00    +0.000 S 
ATOM     19  O   UNL     1      -0.766   8.847  22.840  0.00  0.00    +0.000 OA
ATOM     20  O   UNL     1       1.539   9.823  22.562  0.00  0.00    +0.000 OA
BRANCH  18  21
ATOM     21  C   UNL     1      -0.559  11.366  22.326  0.00  0.00    +0.000 A 
ATOM     22  C   UNL     1      -1.799  11.538  22.983  0.00  0.00    +0.000 A 
ATOM     23  C   UNL     1      -2.388  12.805  23.196  0.00  0.00    +0.000 A 
ATOM     24  C   UNL     1      -1.783  14.004  22.788  0.00  0.00    +0.000 A 
ATOM     25  C   UNL     1      -0.532  13.888  22.135  0.00  0.00    +0.000 A 
ATOM     26  N   UNL     1       0.208  14.913  21.687  0.00  0.00    +0.000 NA
ATOM     27  S   UNL     1       1.578  14.255  21.027  0.00  0.00    +0.000 S 
ATOM     28  N   UNL     1       1.264  12.639  21.220  0.00  0.00    +0.000 NA
ATOM     29  C   UNL     1       0.098  12.537  21.883  0.00  0.00    +0.000 A 
ENDBRANCH  18  21
ENDBRANCH  16  18
ENDBRANCH   1  16
BRANCH   1  30
ATOM     30  C   UNL     1       0.846  10.028  18.291  0.00  0.00    +0.000 C 
BRANCH  30  31
ATOM     31  C   UNL     1      -0.602  10.453  18.181  0.00  0.00    +0.000 A 
ATOM     32  C   UNL     1      -1.043  11.651  18.756  0.00  0.00    +0.000 A 
ATOM     33  C   UNL     1      -2.394  12.001  18.711  0.00  0.00    +0.000 A 
ATOM     34  C   UNL     1      -3.316  11.159  18.092  0.00  0.00    +0.000 A 
ATOM     35  C   UNL     1      -2.886   9.977  17.496  0.00  0.00    +0.000 A 
ATOM     36  C   UNL     1      -1.535   9.628  17.533  0.00  0.00    +0.000 A 
ENDBRANCH  30  31
ENDBRANCH   1  30
TORSDOF 9
ENDMDL
MODEL 3
REMARK VINA RESULT:      -7.8      2.146      3.316
REMARK  Name = 
REMARK  11 active torsions:
REMARK  status: ('A' for Active; 'I' for Inactive)
REMARK    1  A    between atoms: C_1  and  O_2
REMARK    2  A    between atoms: O_2  and  C_3
REMARK    3  A    between atoms: C_5  and  N_6
REMARK    4  A    between atoms: C_7  and  C_9
REMARK    5  A    between atoms: C_9  and  C_10
REMARK    6  A    between atoms: C_9  and  N_17
REMARK    7  A    between atoms: C_10  and  C_11
REMARK    8  A    between atoms: N_17  and  S_18
REMARK    9  A    between atoms: S_18  and  C_21
REMARK   10  A    between atoms: C_31  and  O_32
REMARK   11  A    between atoms: O_32  and  C_33
REMARK                            x       y       z     vdW  Elec       q    Type
REMARK                         _______ _______ _______ _____ _____    ______ ____
ROOT
ATOM      1  C   UNL     1       0.553  10.597  18.874  0.00  0.00    +0.000 C 
ENDROOT
BRANCH   1   3
ATOM      2  N   UNL     1       1.570   8.450  19.513  0.00  0.00    +0.000 N 
ATOM      3  C   UNL     1       1.440   9.397  18.506  0.00  0.00    +0.000 C 
ATOM      4  O   UNL     1       1.968   9.362  17.396  0.00  0.00    +0.000 OA
ATOM      5  H   UNL     1       1.043   8.599  20.364  0.00  0.00    +0.000 HD
BRANCH   2   8
ATOM      6  C   UNL     1       3.681   5.593  18.300  0.00  0.00    +0.000 A 
ATOM      7  C   UNL     1       3.073   6.851  18.359  0.00  0.00    +0.000 A 
ATOM      8  C   UNL     1       2.231   7.201  19.416  0.00  0.00    +0.000 A 
ATOM      9  C   UNL     1       2.014   6.261  20.431  0.00  0.00    +0.000 A 
ATOM     10  C   UNL     1       2.613   4.995  20.383  0.00  0.00    +0.000 A 
ATOM     11  C   UNL     1       3.438   4.659  19.307  0.00  0.00    +0.000 A 
BRANCH   6  13
ATOM     12  C   UNL     1       4.713   4.078  16.776  0.00  0.00    +0.000 C 
ATOM     13  O   UNL     1       4.493   5.411  17.214  0.00  0.00    +0.000 OA
ENDBRANCH   6  13
BRANCH  10  14
ATOM     14  O   UNL     1       2.319   4.175  21.442  0.00  0.00    +0.000 OA
ATOM     15  C   UNL     1       2.439   2.773  21.224  0.00  0.00    +0.000 C 
ENDBRANCH  10  14
ENDBRANCH   2   8
ENDBRANCH   1   3
BRANCH   1  16
ATOM     16  N   UNL     1       1.115  11.227  20.100  0.00  0.00    +0.000 NA
ATOM     17  H   UNL     1       2.120  11.087  20.215  0.00  0.00    +0.000 HD
BRANCH  16  18
ATOM     18  S   UNL     1       0.750  12.838  20.417  0.00  0.00    +0.000 S 
ATOM     19  O   UNL     1       1.838  13.317  21.245  0.00  0.00    +0.000 OA
ATOM     20  O   UNL     1       0.396  13.507  19.189  0.00  0.00    +0.000 OA
BRANCH  18  21
ATOM     21  C   UNL     1      -0.663  12.725  21.448  0.00  0.00    +0.000 A 
ATOM     22  C   UNL     1      -0.823  11.614  22.309  0.00  0.00    +0.000 A 
ATOM     23  C   UNL     1      -1.896  11.495  23.222  0.00  0.00    +0.000 A 
ATOM     24  C   UNL     1      -2.887  12.479  23.363  0.00  0.00    +0.000 A 
ATOM     25  C   UNL     1      -2.768  13.618  22.531  0.00  0.00    +0.000 A 
ATOM     26  N   UNL     1      -3.603  14.668  22.527  0.00  0.00    +0.000 NA
ATOM     27  S   UNL     1      -3.019  15.733  21.400  0.00  0.00    +0.000 S 
ATOM     28  N   UNL     1      -1.722  14.881  20.818  0.00  0.00    +0.000 NA
ATOM     29  C   UNL     1      -1.636  13.747  21.536  0.00  0.00    +0.000 A 
ENDBRANCH  18  21
ENDBRANCH  16  18
ENDBRANCH   1  16
BRANCH   1  30
ATOM     30  C   UNL     1      -0.861  10.053  19.171  0.00  0.00    +0.000 C 
BRANCH  30  31
ATOM     31  C   UNL     1      -1.881  10.435  18.120  0.00  0.00    +0.000 A 
ATOM     32  C   UNL     1      -2.898  11.353  18.408  0.00  0.00    +0.000 A 
ATOM     33  C   UNL     1      -3.876  11.646  17.456  0.00  0.00    +0.000 A 
ATOM     34  C   UNL     1      -3.847  11.026  16.208  0.00  0.00    +0.000 A 
ATOM     35  C   UNL     1      -2.827  10.130  15.901  0.00  0.00    +0.000 A 
ATOM     36  C   UNL     1      -1.845   9.841  16.849  0.00  0.00    +0.000 A 
ENDBRANCH  30  31
ENDBRANCH   1  30
TORSDOF 9
ENDMDL
MODEL 4
REMARK VINA RESULT:      -7.8      2.017      4.692
REMARK  Name = 
REMARK  11 active torsions:
REMARK  status: ('A' for Active; 'I' for Inactive)
REMARK    1  A    between atoms: C_1  and  O_2
REMARK    2  A    between atoms: O_2  and  C_3
REMARK    3  A    between atoms: C_5  and  N_6
REMARK    4  A    between atoms: C_7  and  C_9
REMARK    5  A    between atoms: C_9  and  C_10
REMARK    6  A    between atoms: C_9  and  N_17
REMARK    7  A    between atoms: C_10  and  C_11
REMARK    8  A    between atoms: N_17  and  S_18
REMARK    9  A    between atoms: S_18  and  C_21
REMARK   10  A    between atoms: C_31  and  O_32
REMARK   11  A    between atoms: O_32  and  C_33
REMARK                            x       y       z     vdW  Elec       q    Type
REMARK                         _______ _______ _______ _____ _____    ______ ____
ROOT
ATOM      1  C   UNL     1       1.742   6.887  20.119  0.00  0.00    +0.000 C 
ENDROOT
BRANCH   1   3
ATOM      2  N   UNL     1       3.802   6.283  18.917  0.00  0.00    +0.000 N 
ATOM      3  C   UNL     1       2.574   6.925  18.827  0.00  0.00    +0.000 C 
ATOM      4  O   UNL     1       2.126   7.511  17.844  0.00  0.00    +0.000 OA
ATOM      5  H   UNL     1       4.019   5.811  19.786  0.00  0.00    +0.000 HD
BRANCH   2   8
ATOM      6  C   UNL     1       5.458   4.969  15.815  0.00  0.00    +0.000 A 
ATOM      7  C   UNL     1       4.504   5.161  16.821  0.00  0.00    +0.000 A 
ATOM      8  C   UNL     1       4.720   6.067  17.860  0.00  0.00    +0.000 A 
ATOM      9  C   UNL     1       5.917   6.795  17.870  0.00  0.00    +0.000 A 
ATOM     10  C   UNL     1       6.882   6.610  16.871  0.00  0.00    +0.000 A 
ATOM     11  C   UNL     1       6.654   5.685  15.849  0.00  0.00    +0.000 A 
BRANCH   6  13
ATOM     12  C   UNL     1       5.994   3.838  13.786  0.00  0.00    +0.000 C 
ATOM     13  O   UNL     1       5.089   4.064  14.857  0.00  0.00    +0.000 OA
ENDBRANCH   6  13
BRANCH  10  14
ATOM     14  O   UNL     1       8.004   7.388  16.999  0.00  0.00    +0.000 OA
ATOM     15  C   UNL     1       7.860   8.612  17.713  0.00  0.00    +0.000 C 
ENDBRANCH  10  14
ENDBRANCH   2   8
ENDBRANCH   1   3
BRANCH   1  16
ATOM     16  N   UNL     1       1.941   8.177  20.834  0.00  0.00    +0.000 NA
ATOM     17  H   UNL     1       2.329   8.920  20.250  0.00  0.00    +0.000 HD
BRANCH  16  18
ATOM     18  S   UNL     1       0.665   8.804  21.733  0.00  0.00    +0.000 S 
ATOM     19  O   UNL     1      -0.388   7.813  21.637  0.00  0.00    +0.000 OA
ATOM     20  O   UNL     1       1.148   9.258  23.013  0.00  0.00    +0.000 OA
BRANCH  18  21
ATOM     21  C   UNL     1       0.154  10.183  20.779  0.00  0.00    +0.000 A 
ATOM     22  C   UNL     1       0.145  10.102  19.367  0.00  0.00    +0.000 A 
ATOM     23  C   UNL     1      -0.326  11.147  18.539  0.00  0.00    +0.000 A 
ATOM     24  C   UNL     1      -0.842  12.348  19.049  0.00  0.00    +0.000 A 
ATOM     25  C   UNL     1      -0.866  12.476  20.458  0.00  0.00    +0.000 A 
ATOM     26  N   UNL     1      -1.332  13.537  21.134  0.00  0.00    +0.000 NA
ATOM     27  S   UNL     1      -1.158  13.186  22.744  0.00  0.00    +0.000 S 
ATOM     28  N   UNL     1      -0.422  11.704  22.656  0.00  0.00    +0.000 NA
ATOM     29  C   UNL     1      -0.345  11.374  21.354  0.00  0.00    +0.000 A 
ENDBRANCH  18  21
ENDBRANCH  16  18
ENDBRANCH   1  16
BRANCH   1  30
ATOM     30  C   UNL     1       2.281   5.726  20.982  0.00  0.00    +0.000 C 
BRANCH  30  31
ATOM     31  C   UNL     1       2.081   4.367  20.348  0.00  0.00    +0.000 A 
ATOM     32  C   UNL     1       3.167   3.510  20.131  0.00  0.00    +0.000 A 
ATOM     33  C   UNL     1       2.984   2.288  19.482  0.00  0.00    +0.000 A 
ATOM     34  C   UNL     1       1.716   1.909  19.045  0.00  0.00    +0.000 A 
ATOM     35  C   UNL     1       0.624   2.741  19.277  0.00  0.00    +0.000 A 
ATOM     36  C   UNL     1       0.803   3.961  19.931  0.00  0.00    +0.000 A 
ENDBRANCH  30  31
ENDBRANCH   1  30
TORSDOF 9
ENDMDL
MODEL 5
REMARK VINA RESULT:      -7.8      2.514      6.541
REMARK  Name = 
REMARK  11 active torsions:
REMARK  status: ('A' for Active; 'I' for Inactive)
REMARK    1  A    between atoms: C_1  and  O_2
REMARK    2  A    between atoms: O_2  and  C_3
REMARK    3  A    between atoms: C_5  and  N_6
REMARK    4  A    between atoms: C_7  and  C_9
REMARK    5  A    between atoms: C_9  and  C_10
REMARK    6  A    between atoms: C_9  and  N_17
REMARK    7  A    between atoms: C_10  and  C_11
REMARK    8  A    between atoms: N_17  and  S_18
REMARK    9  A    between atoms: S_18  and  C_21
REMARK   10  A    between atoms: C_31  and  O_32
REMARK   11  A    between atoms: O_32  and  C_33
REMARK                            x       y       z     vdW  Elec       q    Type
REMARK                         _______ _______ _______ _____ _____    ______ ____
ROOT
ATOM      1  C   UNL     1       0.592   9.518  19.719  0.00  0.00    +0.000 C 
ENDROOT
BRANCH   1   3
ATOM      2  N   UNL     1      -1.584   9.908  18.638  0.00  0.00    +0.000 N 
ATOM      3  C   UNL     1      -0.336  10.447  18.919  0.00  0.00    +0.000 C 
ATOM      4  O   UNL     1       0.075  11.555  18.579  0.00  0.00    +0.000 OA
ATOM      5  H   UNL     1      -1.792   8.992  19.018  0.00  0.00    +0.000 HD
BRANCH   2   8
ATOM      6  C   UNL     1      -4.683  11.944  18.056  0.00  0.00    +0.000 A 
ATOM      7  C   UNL     1      -3.614  11.328  18.716  0.00  0.00    +0.000 A 
ATOM      8  C   UNL     1      -2.670  10.572  18.019  0.00  0.00    +0.000 A 
ATOM      9  C   UNL     1      -2.811  10.450  16.631  0.00  0.00    +0.000 A 
ATOM     10  C   UNL     1      -3.879  11.058  15.957  0.00  0.00    +0.000 A 
ATOM     11  C   UNL     1      -4.822  11.795  16.676  0.00  0.00    +0.000 A 
BRANCH   6  13
ATOM     12  C   UNL     1      -5.171  12.730  20.253  0.00  0.00    +0.000 C 
ATOM     13  O   UNL     1      -5.508  12.665  18.874  0.00  0.00    +0.000 OA
ENDBRANCH   6  13
BRANCH  10  14
ATOM     14  O   UNL     1      -3.895  10.861  14.600  0.00  0.00    +0.000 OA
ATOM     15  C   UNL     1      -2.937   9.949  14.071  0.00  0.00    +0.000 C 
ENDBRANCH  10  14
ENDBRANCH   2   8
ENDBRANCH   1   3
BRANCH   1  16
ATOM     16  N   UNL     1       0.976  10.219  20.974  0.00  0.00    +0.000 NA
ATOM     17  H   UNL     1       1.072  11.231  20.872  0.00  0.00    +0.000 HD
BRANCH  16  18
ATOM     18  S   UNL     1       0.106   9.894  22.376  0.00  0.00    +0.000 S 
ATOM     19  O   UNL     1      -0.807   8.829  22.016  0.00  0.00    +0.000 OA
ATOM     20  O   UNL     1       1.011   9.757  23.490  0.00  0.00    +0.000 OA
BRANCH  18  21
ATOM     21  C   UNL     1      -0.858  11.344  22.583  0.00  0.00    +0.000 A 
ATOM     22  C   UNL     1      -2.126  11.267  23.206  0.00  0.00    +0.000 A 
ATOM     23  C   UNL     1      -2.922  12.404  23.474  0.00  0.00    +0.000 A 
ATOM     24  C   UNL     1      -2.514  13.710  23.162  0.00  0.00    +0.000 A 
ATOM     25  C   UNL     1      -1.246  13.844  22.547  0.00  0.00    +0.000 A 
ATOM     26  N   UNL     1      -0.676  15.003  22.187  0.00  0.00    +0.000 NA
ATOM     27  S   UNL     1       0.800  14.623  21.537  0.00  0.00    +0.000 S 
ATOM     28  N   UNL     1       0.754  12.969  21.620  0.00  0.00    +0.000 NA
ATOM     29  C   UNL     1      -0.394  12.634  22.235  0.00  0.00    +0.000 A 
ENDBRANCH  18  21
ENDBRANCH  16  18
ENDBRANCH   1  16
BRANCH   1  30
ATOM     30  C   UNL     1       1.849   9.267  18.858  0.00  0.00    +0.000 C 
BRANCH  30  31
ATOM     31  C   UNL     1       2.301   7.823  18.868  0.00  0.00    +0.000 A 
ATOM     32  C   UNL     1       2.006   6.987  19.952  0.00  0.00    +0.000 A 
ATOM     33  C   UNL     1       2.489   5.677  19.985  0.00  0.00    +0.000 A 
ATOM     34  C   UNL     1       3.267   5.189  18.937  0.00  0.00    +0.000 A 
ATOM     35  C   UNL     1       3.545   6.004  17.842  0.00  0.00    +0.000 A 
ATOM     36  C   UNL     1       3.060   7.311  17.804  0.00  0.00    +0.000 A 
ENDBRANCH  30  31
ENDBRANCH   1  30
TORSDOF 9
ENDMDL
MODEL 6
REMARK VINA RESULT:      -7.7      2.359      3.635
REMARK  Name = 
REMARK  11 active torsions:
REMARK  status: ('A' for Active; 'I' for Inactive)
REMARK    1  A    between atoms: C_1  and  O_2
REMARK    2  A    between atoms: O_2  and  C_3
REMARK    3  A    between atoms: C_5  and  N_6
REMARK    4  A    between atoms: C_7  and  C_9
REMARK    5  A    between atoms: C_9  and  C_10
REMARK    6  A    between atoms: C_9  and  N_17
REMARK    7  A    between atoms: C_10  and  C_11
REMARK    8  A    between atoms: N_17  and  S_18
REMARK    9  A    between atoms: S_18  and  C_21
REMARK   10  A    between atoms: C_31  and  O_32
REMARK   11  A    between atoms: O_32  and  C_33
REMARK                            x       y       z     vdW  Elec       q    Type
REMARK                         _______ _______ _______ _____ _____    ______ ____
ROOT
ATOM      1  C   UNL     1       0.642  10.850  18.730  0.00  0.00    +0.000 C 
ENDROOT
BRANCH   1   3
ATOM      2  N   UNL     1       1.545   8.663  19.402  0.00  0.00    +0.000 N 
ATOM      3  C   UNL     1       1.514   9.627  18.404  0.00  0.00    +0.000 C 
ATOM      4  O   UNL     1       2.116   9.590  17.333  0.00  0.00    +0.000 OA
ATOM      5  H   UNL     1       0.965   8.818  20.218  0.00  0.00    +0.000 HD
BRANCH   2   8
ATOM      6  C   UNL     1       3.566   5.720  18.244  0.00  0.00    +0.000 A 
ATOM      7  C   UNL     1       2.992   6.995  18.276  0.00  0.00    +0.000 A 
ATOM      8  C   UNL     1       2.171   7.395  19.331  0.00  0.00    +0.000 A 
ATOM      9  C   UNL     1       1.939   6.487  20.373  0.00  0.00    +0.000 A 
ATOM     10  C   UNL     1       2.505   5.204  20.352  0.00  0.00    +0.000 A 
ATOM     11  C   UNL     1       3.309   4.819  19.277  0.00  0.00    +0.000 A 
BRANCH   6  13
ATOM     12  C   UNL     1       4.900   6.620  16.485  0.00  0.00    +0.000 C 
ATOM     13  O   UNL     1       4.362   5.489  17.155  0.00  0.00    +0.000 OA
ENDBRANCH   6  13
BRANCH  10  14
ATOM     14  O   UNL     1       2.200   4.420  21.434  0.00  0.00    +0.000 OA
ATOM     15  C   UNL     1       2.382   3.016  21.284  0.00  0.00    +0.000 C 
ENDBRANCH  10  14
ENDBRANCH   2   8
ENDBRANCH   1   3
BRANCH   1  16
ATOM     16  N   UNL     1       1.312  11.619  19.813  0.00  0.00    +0.000 NA
ATOM     17  H   UNL     1       2.033  11.094  20.311  0.00  0.00    +0.000 HD
BRANCH  16  18
ATOM     18  S   UNL     1       1.903  13.155  19.463  0.00  0.00    +0.000 S 
ATOM     19  O   UNL     1       2.966  13.378  20.422  0.00  0.00    +0.000 OA
ATOM     20  O   UNL     1       2.139  13.274  18.046  0.00  0.00    +0.000 OA
BRANCH  18  21
ATOM     21  C   UNL     1       0.573  14.201  19.923  0.00  0.00    +0.000 A 
ATOM     22  C   UNL     1       0.208  15.286  19.093  0.00  0.00    +0.000 A 
ATOM     23  C   UNL     1      -0.900  16.123  19.362  0.00  0.00    +0.000 A 
ATOM     24  C   UNL     1      -1.744  15.935  20.468  0.00  0.00    +0.000 A 
ATOM     25  C   UNL     1      -1.429  14.854  21.325  0.00  0.00    +0.000 A 
ATOM     26  N   UNL     1      -2.121  14.504  22.420  0.00  0.00    +0.000 NA
ATOM     27  S   UNL     1      -1.363  13.173  23.052  0.00  0.00    +0.000 S 
ATOM     28  N   UNL     1      -0.087  13.021  22.007  0.00  0.00    +0.000 NA
ATOM     29  C   UNL     1      -0.235  13.965  21.059  0.00  0.00    +0.000 A 
ENDBRANCH  18  21
ENDBRANCH  16  18
ENDBRANCH   1  16
BRANCH   1  30
ATOM     30  C   UNL     1      -0.721  10.326  19.230  0.00  0.00    +0.000 C 
BRANCH  30  31
ATOM     31  C   UNL     1      -1.832  10.485  18.216  0.00  0.00    +0.000 A 
ATOM     32  C   UNL     1      -1.805   9.780  17.006  0.00  0.00    +0.000 A 
ATOM     33  C   UNL     1      -2.798   9.986  16.046  0.00  0.00    +0.000 A 
ATOM     34  C   UNL     1      -3.826  10.897  16.284  0.00  0.00    +0.000 A 
ATOM     35  C   UNL     1      -3.876  11.586  17.493  0.00  0.00    +0.000 A 
ATOM     36  C   UNL     1      -2.890  11.377  18.457  0.00  0.00    +0.000 A 
ENDBRANCH  30  31
ENDBRANCH   1  30
TORSDOF 9
ENDMDL
MODEL 7
REMARK VINA RESULT:      -7.7      2.528      6.488
REMARK  Name = 
REMARK  11 active torsions:
REMARK  status: ('A' for Active; 'I' for Inactive)
REMARK    1  A    between atoms: C_1  and  O_2
REMARK    2  A    between atoms: O_2  and  C_3
REMARK    3  A    between atoms: C_5  and  N_6
REMARK    4  A    between atoms: C_7  and  C_9
REMARK    5  A    between atoms: C_9  and  C_10
REMARK    6  A    between atoms: C_9  and  N_17
REMARK    7  A    between atoms: C_10  and  C_11
REMARK    8  A    between atoms: N_17  and  S_18
REMARK    9  A    between atoms: S_18  and  C_21
REMARK   10  A    between atoms: C_31  and  O_32
REMARK   11  A    between atoms: O_32  and  C_33
REMARK                            x       y       z     vdW  Elec       q    Type
REMARK                         _______ _______ _______ _____ _____    ______ ____
ROOT
ATOM      1  C   UNL     1       0.659   9.133  20.058  0.00  0.00    +0.000 C 
ENDROOT
BRANCH   1   3
ATOM      2  N   UNL     1      -1.333   9.531  18.671  0.00  0.00    +0.000 N 
ATOM      3  C   UNL     1      -0.076  10.001  19.025  0.00  0.00    +0.000 C 
ATOM      4  O   UNL     1       0.480  11.005  18.584  0.00  0.00    +0.000 OA
ATOM      5  H   UNL     1      -1.673   8.705  19.148  0.00  0.00    +0.000 HD
BRANCH   2   8
ATOM      6  C   UNL     1      -3.155  10.831  15.658  0.00  0.00    +0.000 A 
ATOM      7  C   UNL     1      -2.215  10.150  16.438  0.00  0.00    +0.000 A 
ATOM      8  C   UNL     1      -2.272  10.180  17.833  0.00  0.00    +0.000 A 
ATOM      9  C   UNL     1      -3.305  10.905  18.440  0.00  0.00    +0.000 A 
ATOM     10  C   UNL     1      -4.252  11.595  17.670  0.00  0.00    +0.000 A 
ATOM     11  C   UNL     1      -4.166  11.566  16.276  0.00  0.00    +0.000 A 
BRANCH   6  13
ATOM     12  C   UNL     1      -3.953   9.942  13.594  0.00  0.00    +0.000 C 
ATOM     13  O   UNL     1      -2.976  10.686  14.309  0.00  0.00    +0.000 OA
ENDBRANCH   6  13
BRANCH  10  14
ATOM     14  O   UNL     1      -5.210  12.260  18.391  0.00  0.00    +0.000 OA
ATOM     15  C   UNL     1      -4.854  12.675  19.706  0.00  0.00    +0.000 C 
ENDBRANCH  10  14
ENDBRANCH   2   8
ENDBRANCH   1   3
BRANCH   1  16
ATOM     16  N   UNL     1       0.980   9.986  21.234  0.00  0.00    +0.000 NA
ATOM     17  H   UNL     1       1.094  10.976  21.009  0.00  0.00    +0.000 HD
BRANCH  16  18
ATOM     18  S   UNL     1       0.027   9.848  22.613  0.00  0.00    +0.000 S 
ATOM     19  O   UNL     1      -0.908   8.780  22.321  0.00  0.00    +0.000 OA
ATOM     20  O   UNL     1       0.867   9.806  23.784  0.00  0.00    +0.000 OA
BRANCH  18  21
ATOM     21  C   UNL     1      -0.890  11.343  22.606  0.00  0.00    +0.000 A 
ATOM     22  C   UNL     1      -2.189  11.378  23.164  0.00  0.00    +0.000 A 
ATOM     23  C   UNL     1      -2.953  12.564  23.261  0.00  0.00    +0.000 A 
ATOM     24  C   UNL     1      -2.480  13.812  22.829  0.00  0.00    +0.000 A 
ATOM     25  C   UNL     1      -1.178  13.834  22.272  0.00  0.00    +0.000 A 
ATOM     26  N   UNL     1      -0.546  14.927  21.818  0.00  0.00    +0.000 NA
ATOM     27  S   UNL     1       0.944  14.427  21.295  0.00  0.00    +0.000 S 
ATOM     28  N   UNL     1       0.830  12.796  21.558  0.00  0.00    +0.000 NA
ATOM     29  C   UNL     1      -0.359  12.569  22.143  0.00  0.00    +0.000 A 
ENDBRANCH  18  21
ENDBRANCH  16  18
ENDBRANCH   1  16
BRANCH   1  30
ATOM     30  C   UNL     1       1.966   8.639  19.402  0.00  0.00    +0.000 C 
BRANCH  30  31
ATOM     31  C   UNL     1       2.105   7.133  19.404  0.00  0.00    +0.000 A 
ATOM     32  C   UNL     1       2.540   6.451  18.261  0.00  0.00    +0.000 A 
ATOM     33  C   UNL     1       2.598   5.056  18.249  0.00  0.00    +0.000 A 
ATOM     34  C   UNL     1       2.224   4.329  19.378  0.00  0.00    +0.000 A 
ATOM     35  C   UNL     1       1.814   4.997  20.529  0.00  0.00    +0.000 A 
ATOM     36  C   UNL     1       1.761   6.391  20.545  0.00  0.00    +0.000 A 
ENDBRANCH  30  31
ENDBRANCH   1  30
TORSDOF 9
ENDMDL
MODEL 8
REMARK VINA RESULT:      -7.7      2.134      4.900
REMARK  Name = 
REMARK  11 active torsions:
REMARK  status: ('A' for Active; 'I' for Inactive)
REMARK    1  A    between atoms: C_1  and  O_2
REMARK    2  A    between atoms: O_2  and  C_3
REMARK    3  A    between atoms: C_5  and  N_6
REMARK    4  A    between atoms: C_7  and  C_9
REMARK    5  A    between atoms: C_9  and  C_10
REMARK    6  A    between atoms: C_9  and  N_17
REMARK    7  A    between atoms: C_10  and  C_11
REMARK    8  A    between atoms: N_17  and  S_18
REMARK    9  A    between atoms: S_18  and  C_21
REMARK   10  A    between atoms: C_31  and  O_32
REMARK   11  A    between atoms: O_32  and  C_33
REMARK                            x       y       z     vdW  Elec       q    Type
REMARK                         _______ _______ _______ _____ _____    ______ ____
ROOT
ATOM      1  C   UNL     1       1.707   6.905  20.189  0.00  0.00    +0.000 C 
ENDROOT
BRANCH   1   3
ATOM      2  N   UNL     1       3.792   6.299  19.034  0.00  0.00    +0.000 N 
ATOM      3  C   UNL     1       2.588   6.983  18.932  0.00  0.00    +0.000 C 
ATOM      4  O   UNL     1       2.195   7.631  17.964  0.00  0.00    +0.000 OA
ATOM      5  H   UNL     1       3.962   5.778  19.885  0.00  0.00    +0.000 HD
BRANCH   2   8
ATOM      6  C   UNL     1       6.802   6.653  16.818  0.00  0.00    +0.000 A 
ATOM      7  C   UNL     1       5.907   6.868  17.873  0.00  0.00    +0.000 A 
ATOM      8  C   UNL     1       4.744   6.109  18.002  0.00  0.00    +0.000 A 
ATOM      9  C   UNL     1       4.492   5.111  17.051  0.00  0.00    +0.000 A 
ATOM     10  C   UNL     1       5.377   4.888  15.987  0.00  0.00    +0.000 A 
ATOM     11  C   UNL     1       6.528   5.671  15.867  0.00  0.00    +0.000 A 
BRANCH   6  13
ATOM     12  C   UNL     1       7.982   8.433  17.878  0.00  0.00    +0.000 C 
ATOM     13  O   UNL     1       7.904   7.463  16.843  0.00  0.00    +0.000 OA
ENDBRANCH   6  13
BRANCH  10  14
ATOM     14  O   UNL     1       5.012   3.880  15.133  0.00  0.00    +0.000 OA
ATOM     15  C   UNL     1       5.611   3.883  13.841  0.00  0.00    +0.000 C 
ENDBRANCH  10  14
ENDBRANCH   2   8
ENDBRANCH   1   3
BRANCH   1  16
ATOM     16  N   UNL     1       1.895   8.163  20.963  0.00  0.00    +0.000 NA
ATOM     17  H   UNL     1       2.471   8.860  20.487  0.00  0.00    +0.000 HD
BRANCH  16  18
ATOM     18  S   UNL     1       0.540   8.923  21.605  0.00  0.00    +0.000 S 
ATOM     19  O   UNL     1      -0.504   7.918  21.582  0.00  0.00    +0.000 OA
ATOM     20  O   UNL     1       0.895   9.602  22.827  0.00  0.00    +0.000 OA
BRANCH  18  21
ATOM     21  C   UNL     1       0.135  10.107  20.376  0.00  0.00    +0.000 A 
ATOM     22  C   UNL     1      -0.795   9.783  19.362  0.00  0.00    +0.000 A 
ATOM     23  C   UNL     1      -1.225  10.712  18.386  0.00  0.00    +0.000 A 
ATOM     24  C   UNL     1      -0.777  12.042  18.352  0.00  0.00    +0.000 A 
ATOM     25  C   UNL     1       0.149  12.421  19.354  0.00  0.00    +0.000 A 
ATOM     26  N   UNL     1       0.680  13.645  19.498  0.00  0.00    +0.000 NA
ATOM     27  S   UNL     1       1.677  13.575  20.820  0.00  0.00    +0.000 S 
ATOM     28  N   UNL     1       1.533  11.975  21.227  0.00  0.00    +0.000 NA
ATOM     29  C   UNL     1       0.632  11.431  20.390  0.00  0.00    +0.000 A 
ENDBRANCH  18  21
ENDBRANCH  16  18
ENDBRANCH   1  16
BRANCH   1  30
ATOM     30  C   UNL     1       2.196   5.703  21.024  0.00  0.00    +0.000 C 
BRANCH  30  31
ATOM     31  C   UNL     1       2.033   4.376  20.314  0.00  0.00    +0.000 A 
ATOM     32  C   UNL     1       0.780   3.963  19.846  0.00  0.00    +0.000 A 
ATOM     33  C   UNL     1       0.626   2.707  19.256  0.00  0.00    +0.000 A 
ATOM     34  C   UNL     1       1.721   1.853  19.126  0.00  0.00    +0.000 A 
ATOM     35  C   UNL     1       2.977   2.264  19.566  0.00  0.00    +0.000 A 
ATOM     36  C   UNL     1       3.134   3.521  20.150  0.00  0.00    +0.000 A 
ENDBRANCH  30  31
ENDBRANCH   1  30
TORSDOF 9
ENDMDL
MODEL 9
REMARK VINA RESULT:      -7.7      2.607      3.767
REMARK  Name = 
REMARK  11 active torsions:
REMARK  status: ('A' for Active; 'I' for Inactive)
REMARK    1  A    between atoms: C_1  and  O_2
REMARK    2  A    between atoms: O_2  and  C_3
REMARK    3  A    between atoms: C_5  and  N_6
REMARK    4  A    between atoms: C_7  and  C_9
REMARK    5  A    between atoms: C_9  and  C_10
REMARK    6  A    between atoms: C_9  and  N_17
REMARK    7  A    between atoms: C_10  and  C_11
REMARK    8  A    between atoms: N_17  and  S_18
REMARK    9  A    between atoms: S_18  and  C_21
REMARK   10  A    between atoms: C_31  and  O_32
REMARK   11  A    between atoms: O_32  and  C_33
REMARK                            x       y       z     vdW  Elec       q    Type
REMARK                         _______ _______ _______ _____ _____    ______ ____
ROOT
ATOM      1  C   UNL     1       1.083  10.843  18.712  0.00  0.00    +0.000 C 
ENDROOT
BRANCH   1   3
ATOM      2  N   UNL     1       1.811   8.609  19.441  0.00  0.00    +0.000 N 
ATOM      3  C   UNL     1       1.728   9.490  18.371  0.00  0.00    +0.000 C 
ATOM      4  O   UNL     1       2.126   9.289  17.225  0.00  0.00    +0.000 OA
ATOM      5  H   UNL     1       1.404   8.904  20.320  0.00  0.00    +0.000 HD
BRANCH   2   8
ATOM      6  C   UNL     1       2.449   5.010  20.296  0.00  0.00    +0.000 A 
ATOM      7  C   UNL     1       1.965   6.321  20.381  0.00  0.00    +0.000 A 
ATOM      8  C   UNL     1       2.253   7.264  19.394  0.00  0.00    +0.000 A 
ATOM      9  C   UNL     1       3.035   6.866  18.302  0.00  0.00    +0.000 A 
ATOM     10  C   UNL     1       3.529   5.558  18.206  0.00  0.00    +0.000 A 
ATOM     11  C   UNL     1       3.244   4.635  19.214  0.00  0.00    +0.000 A 
BRANCH   6  13
ATOM     12  C   UNL     1       1.306   3.043  21.008  0.00  0.00    +0.000 C 
ATOM     13  O   UNL     1       2.062   4.201  21.330  0.00  0.00    +0.000 OA
ENDBRANCH   6  13
BRANCH  10  14
ATOM     14  O   UNL     1       4.276   5.303  17.085  0.00  0.00    +0.000 OA
ATOM     15  C   UNL     1       4.940   6.412  16.487  0.00  0.00    +0.000 C 
ENDBRANCH  10  14
ENDBRANCH   2   8
ENDBRANCH   1   3
BRANCH   1  16
ATOM     16  N   UNL     1      -0.091  11.033  17.818  0.00  0.00    +0.000 NA
ATOM     17  H   UNL     1      -0.080  10.440  16.986  0.00  0.00    +0.000 HD
BRANCH  16  18
ATOM     18  S   UNL     1      -1.631  10.994  18.493  0.00  0.00    +0.000 S 
ATOM     19  O   UNL     1      -2.386  12.000  17.773  0.00  0.00    +0.000 OA
ATOM     20  O   UNL     1      -2.093   9.630  18.573  0.00  0.00    +0.000 OA
BRANCH  18  21
ATOM     21  C   UNL     1      -1.366  11.616  20.110  0.00  0.00    +0.000 A 
ATOM     22  C   UNL     1      -1.711  12.952  20.419  0.00  0.00    +0.000 A 
ATOM     23  C   UNL     1      -1.596  13.496  21.719  0.00  0.00    +0.000 A 
ATOM     24  C   UNL     1      -1.145  12.750  22.819  0.00  0.00    +0.000 A 
ATOM     25  C   UNL     1      -0.797  11.401  22.566  0.00  0.00    +0.000 A 
ATOM     26  N   UNL     1      -0.362  10.526  23.485  0.00  0.00    +0.000 NA
ATOM     27  S   UNL     1      -0.116   9.092  22.692  0.00  0.00    +0.000 S 
ATOM     28  N   UNL     1      -0.486   9.534  21.139  0.00  0.00    +0.000 NA
ATOM     29  C   UNL     1      -0.896  10.814  21.176  0.00  0.00    +0.000 A 
ENDBRANCH  18  21
ENDBRANCH  16  18
ENDBRANCH   1  16
BRANCH   1  30
ATOM     30  C   UNL     1       2.133  11.939  18.431  0.00  0.00    +0.000 C 
BRANCH  30  31
ATOM     31  C   UNL     1       1.915  13.198  19.242  0.00  0.00    +0.000 A 
ATOM     32  C   UNL     1       2.271  13.249  20.595  0.00  0.00    +0.000 A 
ATOM     33  C   UNL     1       2.002  14.390  21.354  0.00  0.00    +0.000 A 
ATOM     34  C   UNL     1       1.376  15.490  20.768  0.00  0.00    +0.000 A 
ATOM     35  C   UNL     1       1.040  15.459  19.418  0.00  0.00    +0.000 A 
ATOM     36  C   UNL     1       1.314  14.323  18.656  0.00  0.00    +0.000 A 
ENDBRANCH  30  31
ENDBRANCH   1  30
TORSDOF 9
ENDMDL
