MODEL 1
REMARK VINA RESULT:      -8.4      0.000      0.000
REMARK  Name = 
REMARK  5 active torsions:
REMARK  status: ('A' for Active; 'I' for Inactive)
REMARK    1  A    between atoms: C_1  and  C_2
REMARK    2  A    between atoms: C_5  and  C_6
REMARK    3  A    between atoms: C_12  and  C_13
REMARK    4  A    between atoms: C_16  and  N_17
REMARK    5  A    between atoms: C_18  and  C_20
REMARK                            x       y       z     vdW  Elec       q    Type
REMARK                         _______ _______ _______ _____ _____    ______ ____
ROOT
ATOM      1  C   UNL     1       6.724   6.225  18.033  0.00  0.00    +0.000 A 
ATOM      2  C   UNL     1       7.777   6.119  18.933  0.00  0.00    +0.000 A 
ATOM      3  C   UNL     1       8.564   7.317  19.021  0.00  0.00    +0.000 A 
ATOM      4  C   UNL     1       8.132   8.267  18.125  0.00  0.00    +0.000 A 
ATOM      5  S   UNL     1       6.632   7.842  17.474  0.00  0.00    +0.000 S 
ENDROOT
BRANCH   1  12
ATOM      6  C   UNL     1       6.468   4.985  15.185  0.00  0.00    +0.000 C 
ATOM      7  C   UNL     1       5.549   4.684  16.344  0.00  0.00    +0.000 A 
ATOM      8  C   UNL     1       4.478   3.812  16.072  0.00  0.00    +0.000 A 
ATOM      9  C   UNL     1       3.570   3.454  17.061  0.00  0.00    +0.000 A 
ATOM     10  C   UNL     1       3.703   3.952  18.361  0.00  0.00    +0.000 A 
ATOM     11  C   UNL     1       4.771   4.825  18.638  0.00  0.00    +0.000 A 
ATOM     12  C   UNL     1       5.690   5.232  17.646  0.00  0.00    +0.000 A 
BRANCH  10  13
ATOM     13  C   UNL     1       2.744   3.612  19.409  0.00  0.00    +0.000 A 
ATOM     14  N   UNL     1       2.935   2.974  20.551  0.00  0.00    +0.000 NA
ATOM     15  C   UNL     1       1.700   2.985  21.148  0.00  0.00    +0.000 A 
ATOM     16  C   UNL     1       0.796   3.623  20.341  0.00  0.00    +0.000 A 
ATOM     17  O   UNL     1       1.451   4.031  19.219  0.00  0.00    +0.000 OA
ENDBRANCH  10  13
ENDBRANCH   1  12
BRANCH   4  18
ATOM     18  N   UNL     1       8.719   9.485  17.817  0.00  0.00    +0.000 N 
ATOM     19  C   UNL     1       9.216  10.370  18.772  0.00  0.00    +0.000 C 
ATOM     20  O   UNL     1       9.169  10.200  19.985  0.00  0.00    +0.000 OA
ATOM     21  H   UNL     1       8.603   9.812  16.865  0.00  0.00    +0.000 HD
BRANCH  19  22
ATOM     22  C   UNL     1       9.789  11.655  18.278  0.00  0.00    +0.000 A 
ATOM     23  C   UNL     1       9.018  12.632  17.647  0.00  0.00    +0.000 A 
ATOM     24  F   UNL     1       7.702  12.456  17.449  0.00  0.00    +0.000 F 
ATOM     25  C   UNL     1       9.582  13.836  17.216  0.00  0.00    +0.000 A 
ATOM     26  C   UNL     1      10.937  14.084  17.414  0.00  0.00    +0.000 A 
ATOM     27  C   UNL     1      11.725  13.121  18.034  0.00  0.00    +0.000 A 
ATOM     28  C   UNL     1      11.155  11.920  18.457  0.00  0.00    +0.000 A 
ATOM     29  F   UNL     1      11.978  11.035  19.037  0.00  0.00    +0.000 F 
ENDBRANCH  19  22
ENDBRANCH   4  18
TORSDOF 4
ENDMDL
MODEL 2
REMARK VINA RESULT:      -8.3      0.351      1.604
REMARK  Name = 
REMARK  5 active torsions:
REMARK  status: ('A' for Active; 'I' for Inactive)
REMARK    1  A    between atoms: C_1  and  C_2
REMARK    2  A    between atoms: C_5  and  C_6
REMARK    3  A    between atoms: C_12  and  C_13
REMARK    4  A    between atoms: C_16  and  N_17
REMARK    5  A    between atoms: C_18  and  C_20
REMARK                            x       y       z     vdW  Elec       q    Type
REMARK                         _______ _______ _______ _____ _____    ______ ____
ROOT
ATOM      1  C   UNL     1       6.742   6.179  18.015  0.00  0.00    +0.000 A 
ATOM      2  C   UNL     1       7.755   6.076  18.961  0.00  0.00    +0.000 A 
ATOM      3  C   UNL     1       8.544   7.271  19.073  0.00  0.00    +0.000 A 
ATOM      4  C   UNL     1       8.156   8.215  18.150  0.00  0.00    +0.000 A 
ATOM      5  S   UNL     1       6.684   7.791  17.437  0.00  0.00    +0.000 S 
ENDROOT
BRANCH   1  12
ATOM      6  C   UNL     1       6.687   4.810  15.216  0.00  0.00    +0.000 C 
ATOM      7  C   UNL     1       5.673   4.581  16.309  0.00  0.00    +0.000 A 
ATOM      8  C   UNL     1       4.608   3.716  15.993  0.00  0.00    +0.000 A 
ATOM      9  C   UNL     1       3.616   3.423  16.921  0.00  0.00    +0.000 A 
ATOM     10  C   UNL     1       3.656   3.979  18.203  0.00  0.00    +0.000 A 
ATOM     11  C   UNL     1       4.717   4.845  18.524  0.00  0.00    +0.000 A 
ATOM     12  C   UNL     1       5.722   5.187  17.592  0.00  0.00    +0.000 A 
BRANCH  10  13
ATOM     13  C   UNL     1       2.610   3.707  19.184  0.00  0.00    +0.000 A 
ATOM     14  N   UNL     1       2.278   2.568  19.768  0.00  0.00    +0.000 NA
ATOM     15  C   UNL     1       1.265   2.915  20.625  0.00  0.00    +0.000 A 
ATOM     16  C   UNL     1       1.010   4.258  20.525  0.00  0.00    +0.000 A 
ATOM     17  O   UNL     1       1.865   4.780  19.603  0.00  0.00    +0.000 OA
ENDBRANCH  10  13
ENDBRANCH   1  12
BRANCH   4  18
ATOM     18  N   UNL     1       8.763   9.427  17.857  0.00  0.00    +0.000 N 
ATOM     19  C   UNL     1       9.220  10.319  18.825  0.00  0.00    +0.000 C 
ATOM     20  O   UNL     1       9.117  10.162  20.036  0.00  0.00    +0.000 OA
ATOM     21  H   UNL     1       8.692   9.744  16.897  0.00  0.00    +0.000 HD
BRANCH  19  22
ATOM     22  C   UNL     1       9.821  11.597  18.345  0.00  0.00    +0.000 A 
ATOM     23  C   UNL     1      11.170  11.908  18.515  0.00  0.00    +0.000 A 
ATOM     24  F   UNL     1      12.005  11.058  19.133  0.00  0.00    +0.000 F 
ATOM     25  C   UNL     1      11.707  13.104  18.033  0.00  0.00    +0.000 A 
ATOM     26  C   UNL     1      10.894  14.016  17.364  0.00  0.00    +0.000 A 
ATOM     27  C   UNL     1       9.545  13.730  17.189  0.00  0.00    +0.000 A 
ATOM     28  C   UNL     1       9.017  12.534  17.679  0.00  0.00    +0.000 A 
ATOM     29  F   UNL     1       7.706  12.332  17.483  0.00  0.00    +0.000 F 
ENDBRANCH  19  22
ENDBRANCH   4  18
TORSDOF 4
ENDMDL
MODEL 3
REMARK VINA RESULT:      -8.2      6.467      8.707
REMARK  Name = 
REMARK  5 active torsions:
REMARK  status: ('A' for Active; 'I' for Inactive)
REMARK    1  A    between atoms: C_1  and  C_2
REMARK    2  A    between atoms: C_5  and  C_6
REMARK    3  A    between atoms: C_12  and  C_13
REMARK    4  A    between atoms: C_16  and  N_17
REMARK    5  A    between atoms: C_18  and  C_20
REMARK                            x       y       z     vdW  Elec       q    Type
REMARK                         _______ _______ _______ _____ _____    ______ ____
ROOT
ATOM      1  C   UNL     1       2.288   7.632  18.730  0.00  0.00    +0.000 A 
ATOM      2  C   UNL     1       2.221   8.687  17.828  0.00  0.00    +0.000 A 
ATOM      3  C   UNL     1       1.430   9.786  18.307  0.00  0.00    +0.000 A 
ATOM      4  C   UNL     1       0.856   9.497  19.523  0.00  0.00    +0.000 A 
ATOM      5  S   UNL     1       1.538   8.105  20.196  0.00  0.00    +0.000 S 
ENDROOT
BRANCH   1  12
ATOM      6  C   UNL     1       1.913   5.281  20.742  0.00  0.00    +0.000 C 
ATOM      7  C   UNL     1       2.843   5.261  19.554  0.00  0.00    +0.000 A 
ATOM      8  C   UNL     1       3.620   4.098  19.397  0.00  0.00    +0.000 A 
ATOM      9  C   UNL     1       4.507   3.959  18.337  0.00  0.00    +0.000 A 
ATOM     10  C   UNL     1       4.645   4.977  17.388  0.00  0.00    +0.000 A 
ATOM     11  C   UNL     1       3.871   6.142  17.540  0.00  0.00    +0.000 A 
ATOM     12  C   UNL     1       2.986   6.325  18.625  0.00  0.00    +0.000 A 
BRANCH  10  13
ATOM     13  C   UNL     1       5.591   4.864  16.282  0.00  0.00    +0.000 A 
ATOM     14  N   UNL     1       6.820   5.339  16.172  0.00  0.00    +0.000 NA
ATOM     15  C   UNL     1       7.243   4.889  14.948  0.00  0.00    +0.000 A 
ATOM     16  C   UNL     1       6.249   4.161  14.349  0.00  0.00    +0.000 A 
ATOM     17  O   UNL     1       5.180   4.137  15.193  0.00  0.00    +0.000 OA
ENDBRANCH  10  13
ENDBRANCH   1  12
BRANCH   4  18
ATOM     18  N   UNL     1      -0.076  10.243  20.229  0.00  0.00    +0.000 N 
ATOM     19  C   UNL     1       0.258  11.273  21.106  0.00  0.00    +0.000 C 
ATOM     20  O   UNL     1       1.399  11.624  21.382  0.00  0.00    +0.000 OA
ATOM     21  H   UNL     1      -1.024   9.883  20.239  0.00  0.00    +0.000 HD
BRANCH  19  22
ATOM     22  C   UNL     1      -0.863  11.956  21.814  0.00  0.00    +0.000 A 
ATOM     23  C   UNL     1      -1.516  11.395  22.912  0.00  0.00    +0.000 A 
ATOM     24  F   UNL     1      -1.162  10.191  23.389  0.00  0.00    +0.000 F 
ATOM     25  C   UNL     1      -2.548  12.072  23.568  0.00  0.00    +0.000 A 
ATOM     26  C   UNL     1      -2.945  13.333  23.132  0.00  0.00    +0.000 A 
ATOM     27  C   UNL     1      -2.313  13.908  22.035  0.00  0.00    +0.000 A 
ATOM     28  C   UNL     1      -1.286  13.222  21.384  0.00  0.00    +0.000 A 
ATOM     29  F   UNL     1      -0.731  13.834  20.328  0.00  0.00    +0.000 F 
ENDBRANCH  19  22
ENDBRANCH   4  18
TORSDOF 4
ENDMDL
MODEL 4
REMARK VINA RESULT:      -8.2      6.476      8.645
REMARK  Name = 
REMARK  5 active torsions:
REMARK  status: ('A' for Active; 'I' for Inactive)
REMARK    1  A    between atoms: C_1  and  C_2
REMARK    2  A    between atoms: C_5  and  C_6
REMARK    3  A    between atoms: C_12  and  C_13
REMARK    4  A    between atoms: C_16  and  N_17
REMARK    5  A    between atoms: C_18  and  C_20
REMARK                            x       y       z     vdW  Elec       q    Type
REMARK                         _______ _______ _______ _____ _____    ______ ____
ROOT
ATOM      1  C   UNL     1       2.278   7.666  18.721  0.00  0.00    +0.000 A 
ATOM      2  C   UNL     1       2.228   8.718  17.814  0.00  0.00    +0.000 A 
ATOM      3  C   UNL     1       1.449   9.830  18.286  0.00  0.00    +0.000 A 
ATOM      4  C   UNL     1       0.868   9.553  19.502  0.00  0.00    +0.000 A 
ATOM      5  S   UNL     1       1.530   8.155  20.182  0.00  0.00    +0.000 S 
ENDROOT
BRANCH   1  12
ATOM      6  C   UNL     1       1.846   5.320  20.727  0.00  0.00    +0.000 C 
ATOM      7  C   UNL     1       2.790   5.287  19.550  0.00  0.00    +0.000 A 
ATOM      8  C   UNL     1       3.553   4.113  19.403  0.00  0.00    +0.000 A 
ATOM      9  C   UNL     1       4.451   3.963  18.353  0.00  0.00    +0.000 A 
ATOM     10  C   UNL     1       4.614   4.980  17.407  0.00  0.00    +0.000 A 
ATOM     11  C   UNL     1       3.855   6.155  17.550  0.00  0.00    +0.000 A 
ATOM     12  C   UNL     1       2.959   6.350  18.625  0.00  0.00    +0.000 A 
BRANCH  10  13
ATOM     13  C   UNL     1       5.573   4.854  16.312  0.00  0.00    +0.000 A 
ATOM     14  N   UNL     1       6.795   5.346  16.202  0.00  0.00    +0.000 NA
ATOM     15  C   UNL     1       7.236   4.872  14.993  0.00  0.00    +0.000 A 
ATOM     16  C   UNL     1       6.260   4.113  14.404  0.00  0.00    +0.000 A 
ATOM     17  O   UNL     1       5.184   4.092  15.239  0.00  0.00    +0.000 OA
ENDBRANCH  10  13
ENDBRANCH   1  12
BRANCH   4  18
ATOM     18  N   UNL     1      -0.056  10.314  20.201  0.00  0.00    +0.000 N 
ATOM     19  C   UNL     1       0.288  11.338  21.082  0.00  0.00    +0.000 C 
ATOM     20  O   UNL     1       1.433  11.669  21.367  0.00  0.00    +0.000 OA
ATOM     21  H   UNL     1      -1.011   9.971  20.204  0.00  0.00    +0.000 HD
BRANCH  19  22
ATOM     22  C   UNL     1      -0.826  12.039  21.782  0.00  0.00    +0.000 A 
ATOM     23  C   UNL     1      -1.272  13.307  21.410  0.00  0.00    +0.000 A 
ATOM     24  F   UNL     1      -0.706  13.970  20.389  0.00  0.00    +0.000 F 
ATOM     25  C   UNL     1      -2.335  13.927  22.073  0.00  0.00    +0.000 A 
ATOM     26  C   UNL     1      -2.975  13.280  23.127  0.00  0.00    +0.000 A 
ATOM     27  C   UNL     1      -2.543  12.018  23.518  0.00  0.00    +0.000 A 
ATOM     28  C   UNL     1      -1.477  11.409  22.854  0.00  0.00    +0.000 A 
ATOM     29  F   UNL     1      -1.109  10.197  23.293  0.00  0.00    +0.000 F 
ENDBRANCH  19  22
ENDBRANCH   4  18
TORSDOF 4
ENDMDL
MODEL 5
REMARK VINA RESULT:      -7.8      5.628      7.438
REMARK  Name = 
REMARK  5 active torsions:
REMARK  status: ('A' for Active; 'I' for Inactive)
REMARK    1  A    between atoms: C_1  and  C_2
REMARK    2  A    between atoms: C_5  and  C_6
REMARK    3  A    between atoms: C_12  and  C_13
REMARK    4  A    between atoms: C_16  and  N_17
REMARK    5  A    between atoms: C_18  and  C_20
REMARK                            x       y       z     vdW  Elec       q    Type
REMARK                         _______ _______ _______ _____ _____    ______ ____
ROOT
ATOM      1  C   UNL     1       2.103   6.487  19.382  0.00  0.00    +0.000 A 
ATOM      2  C   UNL     1       1.596   6.688  20.659  0.00  0.00    +0.000 A 
ATOM      3  C   UNL     1       1.224   8.055  20.907  0.00  0.00    +0.000 A 
ATOM      4  C   UNL     1       1.537   8.860  19.837  0.00  0.00    +0.000 A 
ATOM      5  S   UNL     1       1.932   7.933  18.480  0.00  0.00    +0.000 S 
ENDROOT
BRANCH   1  12
ATOM      6  C   UNL     1       0.970   3.639  19.950  0.00  0.00    +0.000 C 
ATOM      7  C   UNL     1       2.110   3.943  19.008  0.00  0.00    +0.000 A 
ATOM      8  C   UNL     1       2.716   2.832  18.393  0.00  0.00    +0.000 A 
ATOM      9  C   UNL     1       3.770   2.986  17.501  0.00  0.00    +0.000 A 
ATOM     10  C   UNL     1       4.253   4.260  17.185  0.00  0.00    +0.000 A 
ATOM     11  C   UNL     1       3.651   5.374  17.798  0.00  0.00    +0.000 A 
ATOM     12  C   UNL     1       2.600   5.247  18.733  0.00  0.00    +0.000 A 
BRANCH  10  13
ATOM     13  C   UNL     1       5.377   4.444  16.272  0.00  0.00    +0.000 A 
ATOM     14  N   UNL     1       6.642   4.721  16.538  0.00  0.00    +0.000 NA
ATOM     15  C   UNL     1       7.247   4.730  15.307  0.00  0.00    +0.000 A 
ATOM     16  C   UNL     1       6.323   4.466  14.331  0.00  0.00    +0.000 A 
ATOM     17  O   UNL     1       5.116   4.280  14.935  0.00  0.00    +0.000 OA
ENDBRANCH  10  13
ENDBRANCH   1  12
BRANCH   4  18
ATOM     18  N   UNL     1       1.462  10.242  19.754  0.00  0.00    +0.000 N 
ATOM     19  C   UNL     1       0.534  10.923  18.969  0.00  0.00    +0.000 C 
ATOM     20  O   UNL     1      -0.299  10.395  18.241  0.00  0.00    +0.000 OA
ATOM     21  H   UNL     1       2.244  10.758  20.141  0.00  0.00    +0.000 HD
BRANCH  19  22
ATOM     22  C   UNL     1       0.606  12.412  18.965  0.00  0.00    +0.000 A 
ATOM     23  C   UNL     1       1.714  13.113  18.487  0.00  0.00    +0.000 A 
ATOM     24  F   UNL     1       2.787  12.468  18.003  0.00  0.00    +0.000 F 
ATOM     25  C   UNL     1       1.741  14.510  18.476  0.00  0.00    +0.000 A 
ATOM     26  C   UNL     1       0.648  15.235  18.945  0.00  0.00    +0.000 A 
ATOM     27  C   UNL     1      -0.464  14.556  19.432  0.00  0.00    +0.000 A 
ATOM     28  C   UNL     1      -0.479  13.161  19.444  0.00  0.00    +0.000 A 
ATOM     29  F   UNL     1      -1.580  12.577  19.938  0.00  0.00    +0.000 F 
ENDBRANCH  19  22
ENDBRANCH   4  18
TORSDOF 4
ENDMDL
MODEL 6
REMARK VINA RESULT:      -7.7      5.597      7.285
REMARK  Name = 
REMARK  5 active torsions:
REMARK  status: ('A' for Active; 'I' for Inactive)
REMARK    1  A    between atoms: C_1  and  C_2
REMARK    2  A    between atoms: C_5  and  C_6
REMARK    3  A    between atoms: C_12  and  C_13
REMARK    4  A    between atoms: C_16  and  N_17
REMARK    5  A    between atoms: C_18  and  C_20
REMARK                            x       y       z     vdW  Elec       q    Type
REMARK                         _______ _______ _______ _____ _____    ______ ____
ROOT
ATOM      1  C   UNL     1       2.104   6.530  19.386  0.00  0.00    +0.000 A 
ATOM      2  C   UNL     1       1.581   6.744  20.655  0.00  0.00    +0.000 A 
ATOM      3  C   UNL     1       1.210   8.113  20.886  0.00  0.00    +0.000 A 
ATOM      4  C   UNL     1       1.540   8.908  19.813  0.00  0.00    +0.000 A 
ATOM      5  S   UNL     1       1.950   7.969  18.470  0.00  0.00    +0.000 S 
ENDROOT
BRANCH   1  12
ATOM      6  C   UNL     1       0.987   3.685  19.998  0.00  0.00    +0.000 C 
ATOM      7  C   UNL     1       2.123   3.981  19.050  0.00  0.00    +0.000 A 
ATOM      8  C   UNL     1       2.733   2.863  18.450  0.00  0.00    +0.000 A 
ATOM      9  C   UNL     1       3.784   3.010  17.552  0.00  0.00    +0.000 A 
ATOM     10  C   UNL     1       4.260   4.282  17.217  0.00  0.00    +0.000 A 
ATOM     11  C   UNL     1       3.654   5.402  17.814  0.00  0.00    +0.000 A 
ATOM     12  C   UNL     1       2.606   5.283  18.755  0.00  0.00    +0.000 A 
BRANCH  10  13
ATOM     13  C   UNL     1       5.381   4.458  16.298  0.00  0.00    +0.000 A 
ATOM     14  N   UNL     1       6.653   4.703  16.559  0.00  0.00    +0.000 NA
ATOM     15  C   UNL     1       7.250   4.720  15.324  0.00  0.00    +0.000 A 
ATOM     16  C   UNL     1       6.313   4.493  14.351  0.00  0.00    +0.000 A 
ATOM     17  O   UNL     1       5.107   4.323  14.961  0.00  0.00    +0.000 OA
ENDBRANCH  10  13
ENDBRANCH   1  12
BRANCH   4  18
ATOM     18  N   UNL     1       1.470  10.290  19.718  0.00  0.00    +0.000 N 
ATOM     19  C   UNL     1       0.537  10.968  18.936  0.00  0.00    +0.000 C 
ATOM     20  O   UNL     1      -0.305  10.437  18.222  0.00  0.00    +0.000 OA
ATOM     21  H   UNL     1       2.259  10.806  20.092  0.00  0.00    +0.000 HD
BRANCH  19  22
ATOM     22  C   UNL     1       0.617  12.457  18.917  0.00  0.00    +0.000 A 
ATOM     23  C   UNL     1      -0.415  13.274  19.379  0.00  0.00    +0.000 A 
ATOM     24  F   UNL     1      -1.549  12.750  19.869  0.00  0.00    +0.000 F 
ATOM     25  C   UNL     1      -0.299  14.667  19.368  0.00  0.00    +0.000 A 
ATOM     26  C   UNL     1       0.863  15.269  18.891  0.00  0.00    +0.000 A 
ATOM     27  C   UNL     1       1.901  14.473  18.420  0.00  0.00    +0.000 A 
ATOM     28  C   UNL     1       1.774  13.083  18.430  0.00  0.00    +0.000 A 
ATOM     29  F   UNL     1       2.811  12.382  17.949  0.00  0.00    +0.000 F 
ENDBRANCH  19  22
ENDBRANCH   4  18
TORSDOF 4
ENDMDL
MODEL 7
REMARK VINA RESULT:      -7.7      6.984      9.163
REMARK  Name = 
REMARK  5 active torsions:
REMARK  status: ('A' for Active; 'I' for Inactive)
REMARK    1  A    between atoms: C_1  and  C_2
REMARK    2  A    between atoms: C_5  and  C_6
REMARK    3  A    between atoms: C_12  and  C_13
REMARK    4  A    between atoms: C_16  and  N_17
REMARK    5  A    between atoms: C_18  and  C_20
REMARK                            x       y       z     vdW  Elec       q    Type
REMARK                         _______ _______ _______ _____ _____    ______ ____
ROOT
ATOM      1  C   UNL     1       0.637   9.500  19.496  0.00  0.00    +0.000 A 
ATOM      2  C   UNL     1       0.980   8.528  20.429  0.00  0.00    +0.000 A 
ATOM      3  C   UNL     1       2.027   7.656  19.972  0.00  0.00    +0.000 A 
ATOM      4  C   UNL     1       2.387   7.944  18.676  0.00  0.00    +0.000 A 
ATOM      5  S   UNL     1       1.731   9.421  18.181  0.00  0.00    +0.000 S 
ENDROOT
BRANCH   1  12
ATOM      6  C   UNL     1      -1.680   9.856  17.442  0.00  0.00    +0.000 C 
ATOM      7  C   UNL     1      -1.423  10.764  18.619  0.00  0.00    +0.000 A 
ATOM      8  C   UNL     1      -2.282  11.872  18.744  0.00  0.00    +0.000 A 
ATOM      9  C   UNL     1      -2.148  12.775  19.792  0.00  0.00    +0.000 A 
ATOM     10  C   UNL     1      -1.154  12.599  20.759  0.00  0.00    +0.000 A 
ATOM     11  C   UNL     1      -0.292  11.493  20.639  0.00  0.00    +0.000 A 
ATOM     12  C   UNL     1      -0.383  10.577  19.567  0.00  0.00    +0.000 A 
BRANCH  10  13
ATOM     13  C   UNL     1      -0.978  13.550  21.853  0.00  0.00    +0.000 A 
ATOM     14  N   UNL     1      -0.329  14.702  21.871  0.00  0.00    +0.000 NA
ATOM     15  C   UNL     1      -0.538  15.182  23.139  0.00  0.00    +0.000 A 
ATOM     16  C   UNL     1      -1.302  14.296  23.853  0.00  0.00    +0.000 A 
ATOM     17  O   UNL     1      -1.592  13.243  23.040  0.00  0.00    +0.000 OA
ENDBRANCH  10  13
ENDBRANCH   1  12
BRANCH   4  18
ATOM     18  N   UNL     1       3.251   7.240  17.851  0.00  0.00    +0.000 N 
ATOM     19  C   UNL     1       4.013   6.152  18.274  0.00  0.00    +0.000 C 
ATOM     20  O   UNL     1       4.038   5.707  19.416  0.00  0.00    +0.000 OA
ATOM     21  H   UNL     1       3.467   7.666  16.957  0.00  0.00    +0.000 HD
BRANCH  19  22
ATOM     22  C   UNL     1       4.920   5.523  17.270  0.00  0.00    +0.000 A 
ATOM     23  C   UNL     1       4.586   4.360  16.575  0.00  0.00    +0.000 A 
ATOM     24  F   UNL     1       3.415   3.740  16.783  0.00  0.00    +0.000 F 
ATOM     25  C   UNL     1       5.450   3.810  15.625  0.00  0.00    +0.000 A 
ATOM     26  C   UNL     1       6.670   4.421  15.350  0.00  0.00    +0.000 A 
ATOM     27  C   UNL     1       7.025   5.577  16.036  0.00  0.00    +0.000 A 
ATOM     28  C   UNL     1       6.159   6.117  16.988  0.00  0.00    +0.000 A 
ATOM     29  F   UNL     1       6.573   7.226  17.616  0.00  0.00    +0.000 F 
ENDBRANCH  19  22
ENDBRANCH   4  18
TORSDOF 4
ENDMDL
MODEL 8
REMARK VINA RESULT:      -7.7      6.933      9.145
REMARK  Name = 
REMARK  5 active torsions:
REMARK  status: ('A' for Active; 'I' for Inactive)
REMARK    1  A    between atoms: C_1  and  C_2
REMARK    2  A    between atoms: C_5  and  C_6
REMARK    3  A    between atoms: C_12  and  C_13
REMARK    4  A    between atoms: C_16  and  N_17
REMARK    5  A    between atoms: C_18  and  C_20
REMARK                            x       y       z     vdW  Elec       q    Type
REMARK                         _______ _______ _______ _____ _____    ______ ____
ROOT
ATOM      1  C   UNL     1       0.808   9.766  19.405  0.00  0.00    +0.000 A 
ATOM      2  C   UNL     1       1.003   8.714  20.291  0.00  0.00    +0.000 A 
ATOM      3  C   UNL     1       1.978   7.764  19.829  0.00  0.00    +0.000 A 
ATOM      4  C   UNL     1       2.431   8.084  18.570  0.00  0.00    +0.000 A 
ATOM      5  S   UNL     1       1.953   9.646  18.137  0.00  0.00    +0.000 S 
ENDROOT
BRANCH   1  12
ATOM      6  C   UNL     1       1.534  12.435  20.841  0.00  0.00    +0.000 C 
ATOM      7  C   UNL     1       0.213  12.146  20.173  0.00  0.00    +0.000 A 
ATOM      8  C   UNL     1      -0.760  13.160  20.264  0.00  0.00    +0.000 A 
ATOM      9  C   UNL     1      -2.013  13.012  19.681  0.00  0.00    +0.000 A 
ATOM     10  C   UNL     1      -2.337  11.847  18.979  0.00  0.00    +0.000 A 
ATOM     11  C   UNL     1      -1.369  10.831  18.885  0.00  0.00    +0.000 A 
ATOM     12  C   UNL     1      -0.099  10.938  19.495  0.00  0.00    +0.000 A 
BRANCH  10  13
ATOM     13  C   UNL     1      -3.657  11.660  18.382  0.00  0.00    +0.000 A 
ATOM     14  N   UNL     1      -4.848  11.665  18.955  0.00  0.00    +0.000 NA
ATOM     15  C   UNL     1      -5.720  11.489  17.911  0.00  0.00    +0.000 A 
ATOM     16  C   UNL     1      -5.024  11.374  16.736  0.00  0.00    +0.000 A 
ATOM     17  O   UNL     1      -3.697  11.481  17.023  0.00  0.00    +0.000 OA
ENDBRANCH  10  13
ENDBRANCH   1  12
BRANCH   4  18
ATOM     18  N   UNL     1       3.259   7.340  17.743  0.00  0.00    +0.000 N 
ATOM     19  C   UNL     1       4.004   6.244  18.174  0.00  0.00    +0.000 C 
ATOM     20  O   UNL     1       4.044   5.826  19.326  0.00  0.00    +0.000 OA
ATOM     21  H   UNL     1       3.464   7.741  16.835  0.00  0.00    +0.000 HD
BRANCH  19  22
ATOM     22  C   UNL     1       4.873   5.572  17.166  0.00  0.00    +0.000 A 
ATOM     23  C   UNL     1       6.090   6.105  16.742  0.00  0.00    +0.000 A 
ATOM     24  F   UNL     1       6.543   7.272  17.228  0.00  0.00    +0.000 F 
ATOM     25  C   UNL     1       6.892   5.437  15.812  0.00  0.00    +0.000 A 
ATOM     26  C   UNL     1       6.485   4.213  15.289  0.00  0.00    +0.000 A 
ATOM     27  C   UNL     1       5.272   3.666  15.693  0.00  0.00    +0.000 A 
ATOM     28  C   UNL     1       4.475   4.343  16.618  0.00  0.00    +0.000 A 
ATOM     29  F   UNL     1       3.315   3.760  16.952  0.00  0.00    +0.000 F 
ENDBRANCH  19  22
ENDBRANCH   4  18
TORSDOF 4
ENDMDL
MODEL 9
REMARK VINA RESULT:      -7.6      7.587     10.245
REMARK  Name = 
REMARK  5 active torsions:
REMARK  status: ('A' for Active; 'I' for Inactive)
REMARK    1  A    between atoms: C_1  and  C_2
REMARK    2  A    between atoms: C_5  and  C_6
REMARK    3  A    between atoms: C_12  and  C_13
REMARK    4  A    between atoms: C_16  and  N_17
REMARK    5  A    between atoms: C_18  and  C_20
REMARK                            x       y       z     vdW  Elec       q    Type
REMARK                         _______ _______ _______ _____ _____    ______ ____
ROOT
ATOM      1  C   UNL     1       0.879  10.984  19.932  0.00  0.00    +0.000 A 
ATOM      2  C   UNL     1       1.149  10.899  18.571  0.00  0.00    +0.000 A 
ATOM      3  C   UNL     1       1.474   9.565  18.145  0.00  0.00    +0.000 A 
ATOM      4  C   UNL     1       1.520   8.697  19.211  0.00  0.00    +0.000 A 
ATOM      5  S   UNL     1       0.854   9.404  20.594  0.00  0.00    +0.000 S 
ENDROOT
BRANCH   1  12
ATOM      6  C   UNL     1       2.614  13.561  20.184  0.00  0.00    +0.000 C 
ATOM      7  C   UNL     1       1.312  13.323  20.907  0.00  0.00    +0.000 A 
ATOM      8  C   UNL     1       0.901  14.339  21.791  0.00  0.00    +0.000 A 
ATOM      9  C   UNL     1      -0.285  14.236  22.508  0.00  0.00    +0.000 A 
ATOM     10  C   UNL     1      -1.108  13.116  22.362  0.00  0.00    +0.000 A 
ATOM     11  C   UNL     1      -0.702  12.097  21.481  0.00  0.00    +0.000 A 
ATOM     12  C   UNL     1       0.513  12.158  20.764  0.00  0.00    +0.000 A 
BRANCH  10  13
ATOM     13  C   UNL     1      -2.344  12.975  23.127  0.00  0.00    +0.000 A 
ATOM     14  N   UNL     1      -2.967  11.880  23.527  0.00  0.00    +0.000 NA
ATOM     15  C   UNL     1      -4.041  12.349  24.240  0.00  0.00    +0.000 A 
ATOM     16  C   UNL     1      -4.038  13.719  24.240  0.00  0.00    +0.000 A 
ATOM     17  O   UNL     1      -2.955  14.136  23.528  0.00  0.00    +0.000 OA
ENDBRANCH  10  13
ENDBRANCH   1  12
BRANCH   4  18
ATOM     18  N   UNL     1       1.933   7.374  19.220  0.00  0.00    +0.000 N 
ATOM     19  C   UNL     1       2.947   6.872  18.406  0.00  0.00    +0.000 C 
ATOM     20  O   UNL     1       3.570   7.520  17.573  0.00  0.00    +0.000 OA
ATOM     21  H   UNL     1       1.332   6.719  19.708  0.00  0.00    +0.000 HD
BRANCH  19  22
ATOM     22  C   UNL     1       3.249   5.416  18.513  0.00  0.00    +0.000 A 
ATOM     23  C   UNL     1       4.400   4.926  19.132  0.00  0.00    +0.000 A 
ATOM     24  F   UNL     1       5.307   5.759  19.667  0.00  0.00    +0.000 F 
ATOM     25  C   UNL     1       4.642   3.554  19.235  0.00  0.00    +0.000 A 
ATOM     26  C   UNL     1       3.727   2.641  18.718  0.00  0.00    +0.000 A 
ATOM     27  C   UNL     1       2.577   3.107  18.091  0.00  0.00    +0.000 A 
ATOM     28  C   UNL     1       2.346   4.479  17.988  0.00  0.00    +0.000 A 
ATOM     29  F   UNL     1       1.221   4.854  17.361  0.00  0.00    +0.000 F 
ENDBRANCH  19  22
ENDBRANCH   4  18
TORSDOF 4
ENDMDL
