MODEL 1
REMARK VINA RESULT:      -6.0      0.000      0.000
REMARK  Name = 
REMARK  4 active torsions:
REMARK  status: ('A' for Active; 'I' for Inactive)
REMARK    1  A    between atoms: C_1  and  C_2
REMARK    2  A    between atoms: C_2  and  O_3
REMARK    3  A    between atoms: O_3  and  N_4
REMARK    4  A    between atoms: N_6  and  C_7
REMARK                            x       y       z     vdW  Elec       q    Type
REMARK                         _______ _______ _______ _____ _____    ______ ____
ROOT
ATOM      1  N   UNL     1       5.921   4.575  18.944  0.00  0.00    +0.000 NA
ATOM      2  C   UNL     1       5.217   4.452  17.865  0.00  0.00    +0.000 C 
ATOM      3  N   UNL     1       3.850   4.397  17.766  0.00  0.00    +0.000 N 
ATOM      4  H   UNL     1       3.412   4.703  16.903  0.00  0.00    +0.000 HD
ENDROOT
BRANCH   3   5
ATOM      5  C   UNL     1       2.969   4.027  18.800  0.00  0.00    +0.000 A 
ATOM      6  C   UNL     1       2.264   5.009  19.514  0.00  0.00    +0.000 A 
ATOM      7  C   UNL     1       1.359   4.668  20.517  0.00  0.00    +0.000 A 
ATOM      8  C   UNL     1       1.108   3.336  20.807  0.00  0.00    +0.000 A 
ATOM      9  C   UNL     1       1.781   2.333  20.106  0.00  0.00    +0.000 A 
ATOM     10  C   UNL     1       2.704   2.677  19.107  0.00  0.00    +0.000 A 
ATOM     11 CL   UNL     1       3.532   1.398  18.289  0.00  0.00    +0.000 Cl
ENDBRANCH   3   5
BRANCH   1  12
ATOM     12  O   UNL     1       7.287   4.610  18.624  0.00  0.00    +0.000 OA
BRANCH  12  14
ATOM     13  C   UNL     1       7.843   6.905  18.228  0.00  0.00    +0.000 C 
ATOM     14  C   UNL     1       7.850   5.773  19.236  0.00  0.00    +0.000 C 
ENDBRANCH  12  14
ENDBRANCH   1  12
TORSDOF 3
ENDMDL
MODEL 2
REMARK VINA RESULT:      -6.0      1.522      1.849
REMARK  Name = 
REMARK  4 active torsions:
REMARK  status: ('A' for Active; 'I' for Inactive)
REMARK    1  A    between atoms: C_1  and  C_2
REMARK    2  A    between atoms: C_2  and  O_3
REMARK    3  A    between atoms: O_3  and  N_4
REMARK    4  A    between atoms: N_6  and  C_7
REMARK                            x       y       z     vdW  Elec       q    Type
REMARK                         _______ _______ _______ _____ _____    ______ ____
ROOT
ATOM      1  N   UNL     1       5.572   5.240  19.234  0.00  0.00    +0.000 NA
ATOM      2  C   UNL     1       5.484   4.147  18.545  0.00  0.00    +0.000 C 
ATOM      3  N   UNL     1       4.398   3.316  18.439  0.00  0.00    +0.000 N 
ATOM      4  H   UNL     1       4.297   2.752  17.601  0.00  0.00    +0.000 HD
ENDROOT
BRANCH   3   5
ATOM      5  C   UNL     1       3.341   3.229  19.365  0.00  0.00    +0.000 A 
ATOM      6  C   UNL     1       3.536   2.599  20.605  0.00  0.00    +0.000 A 
ATOM      7  C   UNL     1       2.518   2.530  21.554  0.00  0.00    +0.000 A 
ATOM      8  C   UNL     1       1.290   3.124  21.302  0.00  0.00    +0.000 A 
ATOM      9  C   UNL     1       1.068   3.773  20.086  0.00  0.00    +0.000 A 
ATOM     10  C   UNL     1       2.087   3.827  19.125  0.00  0.00    +0.000 A 
ATOM     11 CL   UNL     1       1.751   4.616  17.624  0.00  0.00    +0.000 Cl
ENDBRANCH   3   5
BRANCH   1  12
ATOM     12  O   UNL     1       6.842   5.811  19.067  0.00  0.00    +0.000 OA
BRANCH  12  14
ATOM     13  C   UNL     1       7.627   7.526  17.591  0.00  0.00    +0.000 C 
ATOM     14  C   UNL     1       6.990   6.153  17.687  0.00  0.00    +0.000 C 
ENDBRANCH  12  14
ENDBRANCH   1  12
TORSDOF 3
ENDMDL
MODEL 3
REMARK VINA RESULT:      -5.8      2.528      3.323
REMARK  Name = 
REMARK  4 active torsions:
REMARK  status: ('A' for Active; 'I' for Inactive)
REMARK    1  A    between atoms: C_1  and  C_2
REMARK    2  A    between atoms: C_2  and  O_3
REMARK    3  A    between atoms: O_3  and  N_4
REMARK    4  A    between atoms: N_6  and  C_7
REMARK                            x       y       z     vdW  Elec       q    Type
REMARK                         _______ _______ _______ _____ _____    ______ ____
ROOT
ATOM      1  N   UNL     1       6.350   4.301  16.440  0.00  0.00    +0.000 NA
ATOM      2  C   UNL     1       6.478   4.420  17.723  0.00  0.00    +0.000 C 
ATOM      3  N   UNL     1       5.601   3.999  18.688  0.00  0.00    +0.000 N 
ATOM      4  H   UNL     1       5.963   3.776  19.611  0.00  0.00    +0.000 HD
ENDROOT
BRANCH   3   5
ATOM      5  C   UNL     1       4.226   3.758  18.497  0.00  0.00    +0.000 A 
ATOM      6  C   UNL     1       3.716   2.454  18.598  0.00  0.00    +0.000 A 
ATOM      7  C   UNL     1       2.355   2.193  18.449  0.00  0.00    +0.000 A 
ATOM      8  C   UNL     1       1.465   3.234  18.232  0.00  0.00    +0.000 A 
ATOM      9  C   UNL     1       1.937   4.545  18.143  0.00  0.00    +0.000 A 
ATOM     10  C   UNL     1       3.309   4.805  18.276  0.00  0.00    +0.000 A 
ATOM     11 CL   UNL     1       3.846   6.442  18.128  0.00  0.00    +0.000 Cl
ENDBRANCH   3   5
BRANCH   1  12
ATOM     12  O   UNL     1       7.472   4.843  15.793  0.00  0.00    +0.000 OA
BRANCH  12  14
ATOM     13  C   UNL     1       6.099   3.909  14.068  0.00  0.00    +0.000 C 
ATOM     14  C   UNL     1       7.173   4.927  14.397  0.00  0.00    +0.000 C 
ENDBRANCH  12  14
ENDBRANCH   1  12
TORSDOF 3
ENDMDL
MODEL 4
REMARK VINA RESULT:      -5.8      1.536      2.032
REMARK  Name = 
REMARK  4 active torsions:
REMARK  status: ('A' for Active; 'I' for Inactive)
REMARK    1  A    between atoms: C_1  and  C_2
REMARK    2  A    between atoms: C_2  and  O_3
REMARK    3  A    between atoms: O_3  and  N_4
REMARK    4  A    between atoms: N_6  and  C_7
REMARK                            x       y       z     vdW  Elec       q    Type
REMARK                         _______ _______ _______ _____ _____    ______ ____
ROOT
ATOM      1  N   UNL     1       5.848   4.421  18.639  0.00  0.00    +0.000 NA
ATOM      2  C   UNL     1       5.297   4.237  17.482  0.00  0.00    +0.000 C 
ATOM      3  N   UNL     1       3.957   4.139  17.206  0.00  0.00    +0.000 N 
ATOM      4  H   UNL     1       3.631   4.400  16.280  0.00  0.00    +0.000 HD
ENDROOT
BRANCH   3   5
ATOM      5  C   UNL     1       2.955   3.784  18.129  0.00  0.00    +0.000 A 
ATOM      6  C   UNL     1       2.606   2.437  18.311  0.00  0.00    +0.000 A 
ATOM      7  C   UNL     1       1.643   2.055  19.244  0.00  0.00    +0.000 A 
ATOM      8  C   UNL     1       1.033   3.008  20.045  0.00  0.00    +0.000 A 
ATOM      9  C   UNL     1       1.368   4.355  19.901  0.00  0.00    +0.000 A 
ATOM     10  C   UNL     1       2.325   4.741  18.951  0.00  0.00    +0.000 A 
ATOM     11 CL   UNL     1       2.683   6.425  18.792  0.00  0.00    +0.000 Cl
ENDBRANCH   3   5
BRANCH   1  12
ATOM     12  O   UNL     1       7.243   4.483  18.501  0.00  0.00    +0.000 OA
BRANCH  12  14
ATOM     13  C   UNL     1       7.798   6.798  18.239  0.00  0.00    +0.000 C 
ATOM     14  C   UNL     1       7.702   5.637  19.210  0.00  0.00    +0.000 C 
ENDBRANCH  12  14
ENDBRANCH   1  12
TORSDOF 3
ENDMDL
MODEL 5
REMARK VINA RESULT:      -5.8      1.813      2.254
REMARK  Name = 
REMARK  4 active torsions:
REMARK  status: ('A' for Active; 'I' for Inactive)
REMARK    1  A    between atoms: C_1  and  C_2
REMARK    2  A    between atoms: C_2  and  O_3
REMARK    3  A    between atoms: O_3  and  N_4
REMARK    4  A    between atoms: N_6  and  C_7
REMARK                            x       y       z     vdW  Elec       q    Type
REMARK                         _______ _______ _______ _____ _____    ______ ____
ROOT
ATOM      1  N   UNL     1       5.608   4.932  19.655  0.00  0.00    +0.000 NA
ATOM      2  C   UNL     1       5.049   5.621  18.713  0.00  0.00    +0.000 C 
ATOM      3  N   UNL     1       3.740   5.566  18.308  0.00  0.00    +0.000 N 
ATOM      4  H   UNL     1       3.330   6.389  17.877  0.00  0.00    +0.000 HD
ENDROOT
BRANCH   3   5
ATOM      5  C   UNL     1       2.864   4.483  18.513  0.00  0.00    +0.000 A 
ATOM      6  C   UNL     1       2.952   3.339  17.705  0.00  0.00    +0.000 A 
ATOM      7  C   UNL     1       2.122   2.238  17.910  0.00  0.00    +0.000 A 
ATOM      8  C   UNL     1       1.208   2.239  18.953  0.00  0.00    +0.000 A 
ATOM      9  C   UNL     1       1.106   3.354  19.787  0.00  0.00    +0.000 A 
ATOM     10  C   UNL     1       1.930   4.468  19.569  0.00  0.00    +0.000 A 
ATOM     11 CL   UNL     1       1.743   5.836  20.611  0.00  0.00    +0.000 Cl
ENDBRANCH   3   5
BRANCH   1  12
ATOM     12  O   UNL     1       6.960   5.290  19.775  0.00  0.00    +0.000 OA
BRANCH  12  14
ATOM     13  C   UNL     1       8.120   6.991  18.552  0.00  0.00    +0.000 C 
ATOM     14  C   UNL     1       7.436   5.641  18.472  0.00  0.00    +0.000 C 
ENDBRANCH  12  14
ENDBRANCH   1  12
TORSDOF 3
ENDMDL
MODEL 6
REMARK VINA RESULT:      -5.7      1.218      1.347
REMARK  Name = 
REMARK  4 active torsions:
REMARK  status: ('A' for Active; 'I' for Inactive)
REMARK    1  A    between atoms: C_1  and  C_2
REMARK    2  A    between atoms: C_2  and  O_3
REMARK    3  A    between atoms: O_3  and  N_4
REMARK    4  A    between atoms: N_6  and  C_7
REMARK                            x       y       z     vdW  Elec       q    Type
REMARK                         _______ _______ _______ _____ _____    ______ ____
ROOT
ATOM      1  N   UNL     1       5.397   5.293  17.422  0.00  0.00    +0.000 NA
ATOM      2  C   UNL     1       5.902   4.562  18.364  0.00  0.00    +0.000 C 
ATOM      3  N   UNL     1       5.238   3.681  19.178  0.00  0.00    +0.000 N 
ATOM      4  H   UNL     1       5.754   2.901  19.573  0.00  0.00    +0.000 HD
ENDROOT
BRANCH   3   5
ATOM      5  C   UNL     1       3.858   3.705  19.458  0.00  0.00    +0.000 A 
ATOM      6  C   UNL     1       3.274   4.841  20.040  0.00  0.00    +0.000 A 
ATOM      7  C   UNL     1       1.905   4.905  20.294  0.00  0.00    +0.000 A 
ATOM      8  C   UNL     1       1.080   3.850  19.938  0.00  0.00    +0.000 A 
ATOM      9  C   UNL     1       1.626   2.711  19.341  0.00  0.00    +0.000 A 
ATOM     10  C   UNL     1       3.006   2.640  19.102  0.00  0.00    +0.000 A 
ATOM     11 CL   UNL     1       3.636   1.196  18.388  0.00  0.00    +0.000 Cl
ENDBRANCH   3   5
BRANCH   1  12
ATOM     12  O   UNL     1       6.407   6.049  16.808  0.00  0.00    +0.000 OA
BRANCH  12  14
ATOM     13  C   UNL     1       7.746   7.889  17.552  0.00  0.00    +0.000 C 
ATOM     14  C   UNL     1       7.326   6.459  17.824  0.00  0.00    +0.000 C 
ENDBRANCH  12  14
ENDBRANCH   1  12
TORSDOF 3
ENDMDL
MODEL 7
REMARK VINA RESULT:      -5.7      2.087      2.706
REMARK  Name = 
REMARK  4 active torsions:
REMARK  status: ('A' for Active; 'I' for Inactive)
REMARK    1  A    between atoms: C_1  and  C_2
REMARK    2  A    between atoms: C_2  and  O_3
REMARK    3  A    between atoms: O_3  and  N_4
REMARK    4  A    between atoms: N_6  and  C_7
REMARK                            x       y       z     vdW  Elec       q    Type
REMARK                         _______ _______ _______ _____ _____    ______ ____
ROOT
ATOM      1  N   UNL     1       6.412   4.325  16.712  0.00  0.00    +0.000 NA
ATOM      2  C   UNL     1       6.541   4.688  17.948  0.00  0.00    +0.000 C 
ATOM      3  N   UNL     1       5.658   4.472  18.975  0.00  0.00    +0.000 N 
ATOM      4  H   UNL     1       6.017   4.427  19.923  0.00  0.00    +0.000 HD
ENDROOT
BRANCH   3   5
ATOM      5  C   UNL     1       4.281   4.217  18.829  0.00  0.00    +0.000 A 
ATOM      6  C   UNL     1       3.467   5.112  18.117  0.00  0.00    +0.000 A 
ATOM      7  C   UNL     1       2.108   4.865  17.928  0.00  0.00    +0.000 A 
ATOM      8  C   UNL     1       1.537   3.699  18.413  0.00  0.00    +0.000 A 
ATOM      9  C   UNL     1       2.322   2.779  19.112  0.00  0.00    +0.000 A 
ATOM     10  C   UNL     1       3.685   3.036  19.318  0.00  0.00    +0.000 A 
ATOM     11 CL   UNL     1       4.606   1.880  20.215  0.00  0.00    +0.000 Cl
ENDBRANCH   3   5
BRANCH   1  12
ATOM     12  O   UNL     1       7.540   4.717  15.976  0.00  0.00    +0.000 OA
BRANCH  12  14
ATOM     13  C   UNL     1       5.985   3.950  14.325  0.00  0.00    +0.000 C 
ATOM     14  C   UNL     1       7.136   4.892  14.615  0.00  0.00    +0.000 C 
ENDBRANCH  12  14
ENDBRANCH   1  12
TORSDOF 3
ENDMDL
MODEL 8
REMARK VINA RESULT:      -5.7      2.297      5.489
REMARK  Name = 
REMARK  4 active torsions:
REMARK  status: ('A' for Active; 'I' for Inactive)
REMARK    1  A    between atoms: C_1  and  C_2
REMARK    2  A    between atoms: C_2  and  O_3
REMARK    3  A    between atoms: O_3  and  N_4
REMARK    4  A    between atoms: N_6  and  C_7
REMARK                            x       y       z     vdW  Elec       q    Type
REMARK                         _______ _______ _______ _____ _____    ______ ____
ROOT
ATOM      1  N   UNL     1       3.560   4.395  19.757  0.00  0.00    +0.000 NA
ATOM      2  C   UNL     1       4.366   3.443  19.409  0.00  0.00    +0.000 C 
ATOM      3  N   UNL     1       5.663   3.567  18.982  0.00  0.00    +0.000 N 
ATOM      4  H   UNL     1       6.299   2.789  19.127  0.00  0.00    +0.000 HD
ENDROOT
BRANCH   3   5
ATOM      5  C   UNL     1       6.234   4.727  18.424  0.00  0.00    +0.000 A 
ATOM      6  C   UNL     1       7.162   5.482  19.159  0.00  0.00    +0.000 A 
ATOM      7  C   UNL     1       7.769   6.614  18.618  0.00  0.00    +0.000 A 
ATOM      8  C   UNL     1       7.491   6.998  17.315  0.00  0.00    +0.000 A 
ATOM      9  C   UNL     1       6.585   6.260  16.551  0.00  0.00    +0.000 A 
ATOM     10  C   UNL     1       5.961   5.131  17.101  0.00  0.00    +0.000 A 
ATOM     11 CL   UNL     1       4.824   4.270  16.124  0.00  0.00    +0.000 Cl
ENDBRANCH   3   5
BRANCH   1  12
ATOM     12  O   UNL     1       2.324   3.857  20.150  0.00  0.00    +0.000 OA
BRANCH  12  14
ATOM     13  C   UNL     1       0.851   2.459  18.882  0.00  0.00    +0.000 C 
ATOM     14  C   UNL     1       2.203   2.561  19.558  0.00  0.00    +0.000 C 
ENDBRANCH  12  14
ENDBRANCH   1  12
TORSDOF 3
ENDMDL
MODEL 9
REMARK VINA RESULT:      -5.7      2.638      5.560
REMARK  Name = 
REMARK  4 active torsions:
REMARK  status: ('A' for Active; 'I' for Inactive)
REMARK    1  A    between atoms: C_1  and  C_2
REMARK    2  A    between atoms: C_2  and  O_3
REMARK    3  A    between atoms: O_3  and  N_4
REMARK    4  A    between atoms: N_6  and  C_7
REMARK                            x       y       z     vdW  Elec       q    Type
REMARK                         _______ _______ _______ _____ _____    ______ ____
ROOT
ATOM      1  N   UNL     1       2.697   4.200  17.923  0.00  0.00    +0.000 NA
ATOM      2  C   UNL     1       3.443   3.365  17.273  0.00  0.00    +0.000 C 
ATOM      3  N   UNL     1       4.814   3.331  17.234  0.00  0.00    +0.000 N 
ATOM      4  H   UNL     1       5.273   2.444  17.050  0.00  0.00    +0.000 HD
ENDROOT
BRANCH   3   5
ATOM      5  C   UNL     1       5.668   4.415  17.515  0.00  0.00    +0.000 A 
ATOM      6  C   UNL     1       6.131   4.630  18.823  0.00  0.00    +0.000 A 
ATOM      7  C   UNL     1       7.006   5.673  19.122  0.00  0.00    +0.000 A 
ATOM      8  C   UNL     1       7.469   6.505  18.114  0.00  0.00    +0.000 A 
ATOM      9  C   UNL     1       7.041   6.309  16.799  0.00  0.00    +0.000 A 
ATOM     10  C   UNL     1       6.147   5.270  16.502  0.00  0.00    +0.000 A 
ATOM     11 CL   UNL     1       5.624   5.089  14.864  0.00  0.00    +0.000 Cl
ENDBRANCH   3   5
BRANCH   1  12
ATOM     12  O   UNL     1       1.343   3.891  17.720  0.00  0.00    +0.000 OA
BRANCH  12  14
ATOM     13  C   UNL     1       0.900   3.388  20.019  0.00  0.00    +0.000 C 
ATOM     14  C   UNL     1       0.998   2.829  18.613  0.00  0.00    +0.000 C 
ENDBRANCH  12  14
ENDBRANCH   1  12
TORSDOF 3
ENDMDL
