MODEL 1
REMARK VINA RESULT:      -6.8      0.000      0.000
REMARK  Name = 
REMARK  3 active torsions:
REMARK  status: ('A' for Active; 'I' for Inactive)
REMARK    1  A    between atoms: C_1  and  S_2
REMARK    2  A    between atoms: S_2  and  C_3
REMARK    3  A    between atoms: N_7  and  C_8
REMARK                            x       y       z     vdW  Elec       q    Type
REMARK                         _______ _______ _______ _____ _____    ______ ____
ROOT
ATOM      1  C   UNL     1       7.038   5.333  17.874  0.00  0.00    +0.000 A 
ATOM      2  N   UNL     1       7.409   4.747  16.732  0.00  0.00    +0.000 NA
ATOM      3  N   UNL     1       6.412   3.861  16.557  0.00  0.00    +0.000 N 
ATOM      4  C   UNL     1       5.501   3.921  17.577  0.00  0.00    +0.000 A 
ATOM      5  N   UNL     1       4.438   3.084  17.658  0.00  0.00    +0.000 N 
ATOM      6  N   UNL     1       5.874   4.867  18.404  0.00  0.00    +0.000 NA
ATOM      7  H   UNL     1       6.415   3.266  15.740  0.00  0.00    +0.000 HD
ATOM      8  H   UNL     1       4.455   2.211  17.139  0.00  0.00    +0.000 HD
ENDROOT
BRANCH   5   9
ATOM      9  C   UNL     1       3.445   3.138  18.640  0.00  0.00    +0.000 C 
ATOM     10  C   UNL     1       3.636   2.787  19.926  0.00  0.00    +0.000 C 
ATOM     11  C   UNL     1       2.538   2.773  20.920  0.00  0.00    +0.000 C 
ATOM     12  O   UNL     1       2.771   2.428  22.076  0.00  0.00    +0.000 OA
ATOM     13  C   UNL     1       1.147   3.105  20.448  0.00  0.00    +0.000 C 
ATOM     14  C   UNL     1       1.195   4.116  19.315  0.00  0.00    +0.000 C 
ATOM     15  C   UNL     1       2.088   3.634  18.174  0.00  0.00    +0.000 C 
ENDBRANCH   5   9
BRANCH   1  17
ATOM     16  C   UNL     1       7.677   7.944  17.505  0.00  0.00    +0.000 C 
ATOM     17  S   UNL     1       7.993   6.570  18.642  0.00  0.00    +0.000 S 
ENDBRANCH   1  17
TORSDOF 2
ENDMDL
MODEL 2
REMARK VINA RESULT:      -6.8      2.073      2.574
REMARK  Name = 
REMARK  3 active torsions:
REMARK  status: ('A' for Active; 'I' for Inactive)
REMARK    1  A    between atoms: C_1  and  S_2
REMARK    2  A    between atoms: S_2  and  C_3
REMARK    3  A    between atoms: N_7  and  C_8
REMARK                            x       y       z     vdW  Elec       q    Type
REMARK                         _______ _______ _______ _____ _____    ______ ____
ROOT
ATOM      1  C   UNL     1       6.838   4.634  16.180  0.00  0.00    +0.000 A 
ATOM      2  N   UNL     1       7.945   4.620  16.928  0.00  0.00    +0.000 NA
ATOM      3  N   UNL     1       7.453   4.224  18.115  0.00  0.00    +0.000 N 
ATOM      4  C   UNL     1       6.099   4.031  18.060  0.00  0.00    +0.000 A 
ATOM      5  N   UNL     1       5.364   3.689  19.146  0.00  0.00    +0.000 N 
ATOM      6  N   UNL     1       5.702   4.264  16.832  0.00  0.00    +0.000 NA
ATOM      7  H   UNL     1       8.081   4.104  18.898  0.00  0.00    +0.000 HD
ATOM      8  H   UNL     1       5.743   3.858  20.074  0.00  0.00    +0.000 HD
ENDROOT
BRANCH   5   9
ATOM      9  C   UNL     1       3.992   3.421  19.137  0.00  0.00    +0.000 C 
ATOM     10  C   UNL     1       3.070   4.185  19.752  0.00  0.00    +0.000 C 
ATOM     11  C   UNL     1       1.635   3.823  19.796  0.00  0.00    +0.000 C 
ATOM     12  O   UNL     1       0.843   4.553  20.386  0.00  0.00    +0.000 OA
ATOM     13  C   UNL     1       1.212   2.515  19.180  0.00  0.00    +0.000 C 
ATOM     14  C   UNL     1       2.092   2.178  17.988  0.00  0.00    +0.000 C 
ATOM     15  C   UNL     1       3.571   2.181  18.367  0.00  0.00    +0.000 C 
ENDBRANCH   5   9
BRANCH   1  17
ATOM     16  C   UNL     1       6.048   3.681  13.765  0.00  0.00    +0.000 C 
ATOM     17  S   UNL     1       6.846   5.126  14.510  0.00  0.00    +0.000 S 
ENDBRANCH   1  17
TORSDOF 2
ENDMDL
MODEL 3
REMARK VINA RESULT:      -6.6      2.317      2.935
REMARK  Name = 
REMARK  3 active torsions:
REMARK  status: ('A' for Active; 'I' for Inactive)
REMARK    1  A    between atoms: C_1  and  S_2
REMARK    2  A    between atoms: S_2  and  C_3
REMARK    3  A    between atoms: N_7  and  C_8
REMARK                            x       y       z     vdW  Elec       q    Type
REMARK                         _______ _______ _______ _____ _____    ______ ____
ROOT
ATOM      1  C   UNL     1       6.888   4.610  16.157  0.00  0.00    +0.000 A 
ATOM      2  N   UNL     1       7.969   4.586  16.943  0.00  0.00    +0.000 NA
ATOM      3  N   UNL     1       7.424   4.247  18.125  0.00  0.00    +0.000 N 
ATOM      4  C   UNL     1       6.066   4.095  18.029  0.00  0.00    +0.000 A 
ATOM      5  N   UNL     1       5.284   3.814  19.099  0.00  0.00    +0.000 N 
ATOM      6  N   UNL     1       5.720   4.299  16.781  0.00  0.00    +0.000 NA
ATOM      7  H   UNL     1       8.021   4.134  18.933  0.00  0.00    +0.000 HD
ATOM      8  H   UNL     1       5.637   4.002  20.033  0.00  0.00    +0.000 HD
ENDROOT
BRANCH   5   9
ATOM      9  C   UNL     1       3.905   3.589  19.051  0.00  0.00    +0.000 C 
ATOM     10  C   UNL     1       3.104   4.028  18.062  0.00  0.00    +0.000 C 
ATOM     11  C   UNL     1       1.635   3.847  18.088  0.00  0.00    +0.000 C 
ATOM     12  O   UNL     1       0.953   4.284  17.163  0.00  0.00    +0.000 OA
ATOM     13  C   UNL     1       1.018   3.202  19.301  0.00  0.00    +0.000 C 
ATOM     14  C   UNL     1       1.966   2.177  19.900  0.00  0.00    +0.000 C 
ATOM     15  C   UNL     1       3.330   2.791  20.207  0.00  0.00    +0.000 C 
ENDBRANCH   5   9
BRANCH   1  17
ATOM     16  C   UNL     1       5.980   3.701  13.767  0.00  0.00    +0.000 C 
ATOM     17  S   UNL     1       6.970   5.044  14.473  0.00  0.00    +0.000 S 
ENDBRANCH   1  17
TORSDOF 2
ENDMDL
MODEL 4
REMARK VINA RESULT:      -6.6      2.306      2.663
REMARK  Name = 
REMARK  3 active torsions:
REMARK  status: ('A' for Active; 'I' for Inactive)
REMARK    1  A    between atoms: C_1  and  S_2
REMARK    2  A    between atoms: S_2  and  C_3
REMARK    3  A    between atoms: N_7  and  C_8
REMARK                            x       y       z     vdW  Elec       q    Type
REMARK                         _______ _______ _______ _____ _____    ______ ____
ROOT
ATOM      1  C   UNL     1       5.654   5.404  16.240  0.00  0.00    +0.000 A 
ATOM      2  N   UNL     1       5.505   6.712  16.009  0.00  0.00    +0.000 NA
ATOM      3  N   UNL     1       4.436   6.992  16.776  0.00  0.00    +0.000 N 
ATOM      4  C   UNL     1       3.970   5.875  17.417  0.00  0.00    +0.000 A 
ATOM      5  N   UNL     1       2.864   5.889  18.200  0.00  0.00    +0.000 N 
ATOM      6  N   UNL     1       4.750   4.868  17.104  0.00  0.00    +0.000 NA
ATOM      7  H   UNL     1       4.090   7.940  16.817  0.00  0.00    +0.000 HD
ATOM      8  H   UNL     1       2.192   6.643  18.092  0.00  0.00    +0.000 HD
ENDROOT
BRANCH   5   9
ATOM      9  C   UNL     1       2.378   4.798  18.926  0.00  0.00    +0.000 C 
ATOM     10  C   UNL     1       2.521   4.654  20.257  0.00  0.00    +0.000 C 
ATOM     11  C   UNL     1       2.070   3.443  20.980  0.00  0.00    +0.000 C 
ATOM     12  O   UNL     1       2.241   3.363  22.194  0.00  0.00    +0.000 OA
ATOM     13  C   UNL     1       1.490   2.309  20.176  0.00  0.00    +0.000 C 
ATOM     14  C   UNL     1       0.753   2.841  18.959  0.00  0.00    +0.000 C 
ATOM     15  C   UNL     1       1.649   3.743  18.113  0.00  0.00    +0.000 C 
ENDBRANCH   5   9
BRANCH   1  17
ATOM     16  C   UNL     1       6.025   4.037  13.925  0.00  0.00    +0.000 C 
ATOM     17  S   UNL     1       6.888   4.454  15.461  0.00  0.00    +0.000 S 
ENDBRANCH   1  17
TORSDOF 2
ENDMDL
MODEL 5
REMARK VINA RESULT:      -6.5      2.492      2.985
REMARK  Name = 
REMARK  3 active torsions:
REMARK  status: ('A' for Active; 'I' for Inactive)
REMARK    1  A    between atoms: C_1  and  S_2
REMARK    2  A    between atoms: S_2  and  C_3
REMARK    3  A    between atoms: N_7  and  C_8
REMARK                            x       y       z     vdW  Elec       q    Type
REMARK                         _______ _______ _______ _____ _____    ______ ____
ROOT
ATOM      1  C   UNL     1       5.751   5.507  16.561  0.00  0.00    +0.000 A 
ATOM      2  N   UNL     1       5.641   6.808  16.277  0.00  0.00    +0.000 NA
ATOM      3  N   UNL     1       4.502   7.120  16.922  0.00  0.00    +0.000 N 
ATOM      4  C   UNL     1       3.961   6.027  17.545  0.00  0.00    +0.000 A 
ATOM      5  N   UNL     1       2.781   6.074  18.210  0.00  0.00    +0.000 N 
ATOM      6  N   UNL     1       4.757   5.005  17.343  0.00  0.00    +0.000 NA
ATOM      7  H   UNL     1       4.163   8.072  16.899  0.00  0.00    +0.000 HD
ATOM      8  H   UNL     1       2.131   6.829  18.012  0.00  0.00    +0.000 HD
ENDROOT
BRANCH   5   9
ATOM      9  C   UNL     1       2.211   5.009  18.914  0.00  0.00    +0.000 C 
ATOM     10  C   UNL     1       1.530   4.002  18.336  0.00  0.00    +0.000 C 
ATOM     11  C   UNL     1       0.865   2.937  19.121  0.00  0.00    +0.000 C 
ATOM     12  O   UNL     1       0.244   2.051  18.538  0.00  0.00    +0.000 OA
ATOM     13  C   UNL     1       0.905   3.029  20.624  0.00  0.00    +0.000 C 
ATOM     14  C   UNL     1       2.199   3.680  21.083  0.00  0.00    +0.000 C 
ATOM     15  C   UNL     1       2.408   5.039  20.419  0.00  0.00    +0.000 C 
ENDBRANCH   5   9
BRANCH   1  17
ATOM     16  C   UNL     1       6.550   4.428  14.203  0.00  0.00    +0.000 C 
ATOM     17  S   UNL     1       7.048   4.524  15.941  0.00  0.00    +0.000 S 
ENDBRANCH   1  17
TORSDOF 2
ENDMDL
MODEL 6
REMARK VINA RESULT:      -6.5      3.213      3.872
REMARK  Name = 
REMARK  3 active torsions:
REMARK  status: ('A' for Active; 'I' for Inactive)
REMARK    1  A    between atoms: C_1  and  S_2
REMARK    2  A    between atoms: S_2  and  C_3
REMARK    3  A    between atoms: N_7  and  C_8
REMARK                            x       y       z     vdW  Elec       q    Type
REMARK                         _______ _______ _______ _____ _____    ______ ____
ROOT
ATOM      1  C   UNL     1       6.691   4.472  13.814  0.00  0.00    +0.000 A 
ATOM      2  N   UNL     1       7.705   5.271  14.159  0.00  0.00    +0.000 NA
ATOM      3  N   UNL     1       7.305   5.690  15.373  0.00  0.00    +0.000 N 
ATOM      4  C   UNL     1       6.088   5.162  15.711  0.00  0.00    +0.000 A 
ATOM      5  N   UNL     1       5.446   5.484  16.861  0.00  0.00    +0.000 N 
ATOM      6  N   UNL     1       5.701   4.369  14.741  0.00  0.00    +0.000 NA
ATOM      7  H   UNL     1       7.897   6.314  15.902  0.00  0.00    +0.000 HD
ATOM      8  H   UNL     1       5.703   6.336  17.350  0.00  0.00    +0.000 HD
ENDROOT
BRANCH   5   9
ATOM      9  C   UNL     1       4.234   4.932  17.287  0.00  0.00    +0.000 C 
ATOM     10  C   UNL     1       3.971   3.612  17.304  0.00  0.00    +0.000 C 
ATOM     11  C   UNL     1       2.646   3.068  17.679  0.00  0.00    +0.000 C 
ATOM     12  O   UNL     1       2.462   1.853  17.661  0.00  0.00    +0.000 OA
ATOM     13  C   UNL     1       1.539   4.041  17.988  0.00  0.00    +0.000 C 
ATOM     14  C   UNL     1       2.100   5.303  18.622  0.00  0.00    +0.000 C 
ATOM     15  C   UNL     1       3.187   5.929  17.751  0.00  0.00    +0.000 C 
ENDBRANCH   5   9
BRANCH   1  17
ATOM     16  C   UNL     1       4.838   3.422  12.132  0.00  0.00    +0.000 C 
ATOM     17  S   UNL     1       6.628   3.657  12.276  0.00  0.00    +0.000 S 
ENDBRANCH   1  17
TORSDOF 2
ENDMDL
MODEL 7
REMARK VINA RESULT:      -6.5      2.348      2.681
REMARK  Name = 
REMARK  3 active torsions:
REMARK  status: ('A' for Active; 'I' for Inactive)
REMARK    1  A    between atoms: C_1  and  S_2
REMARK    2  A    between atoms: S_2  and  C_3
REMARK    3  A    between atoms: N_7  and  C_8
REMARK                            x       y       z     vdW  Elec       q    Type
REMARK                         _______ _______ _______ _____ _____    ______ ____
ROOT
ATOM      1  C   UNL     1       6.383   4.233  15.974  0.00  0.00    +0.000 A 
ATOM      2  N   UNL     1       7.622   4.377  16.454  0.00  0.00    +0.000 NA
ATOM      3  N   UNL     1       7.390   4.374  17.779  0.00  0.00    +0.000 N 
ATOM      4  C   UNL     1       6.054   4.250  18.056  0.00  0.00    +0.000 A 
ATOM      5  N   UNL     1       5.563   4.283  19.319  0.00  0.00    +0.000 N 
ATOM      6  N   UNL     1       5.410   4.134  16.920  0.00  0.00    +0.000 NA
ATOM      7  H   UNL     1       8.167   4.455  18.419  0.00  0.00    +0.000 HD
ATOM      8  H   UNL     1       6.126   4.695  20.058  0.00  0.00    +0.000 HD
ENDROOT
BRANCH   5   9
ATOM      9  C   UNL     1       4.221   4.100  19.665  0.00  0.00    +0.000 C 
ATOM     10  C   UNL     1       3.373   5.106  19.950  0.00  0.00    +0.000 C 
ATOM     11  C   UNL     1       1.981   4.872  20.398  0.00  0.00    +0.000 C 
ATOM     12  O   UNL     1       1.258   5.831  20.659  0.00  0.00    +0.000 OA
ATOM     13  C   UNL     1       1.529   3.449  20.600  0.00  0.00    +0.000 C 
ATOM     14  C   UNL     1       2.225   2.524  19.617  0.00  0.00    +0.000 C 
ATOM     15  C   UNL     1       3.744   2.660  19.702  0.00  0.00    +0.000 C 
ENDBRANCH   5   9
BRANCH   1  17
ATOM     16  C   UNL     1       7.512   5.073  13.653  0.00  0.00    +0.000 C 
ATOM     17  S   UNL     1       6.041   4.212  14.267  0.00  0.00    +0.000 S 
ENDBRANCH   1  17
TORSDOF 2
ENDMDL
MODEL 8
REMARK VINA RESULT:      -6.5      3.670      5.918
REMARK  Name = 
REMARK  3 active torsions:
REMARK  status: ('A' for Active; 'I' for Inactive)
REMARK    1  A    between atoms: C_1  and  S_2
REMARK    2  A    between atoms: S_2  and  C_3
REMARK    3  A    between atoms: N_7  and  C_8
REMARK                            x       y       z     vdW  Elec       q    Type
REMARK                         _______ _______ _______ _____ _____    ______ ____
ROOT
ATOM      1  C   UNL     1       1.958   4.404  20.223  0.00  0.00    +0.000 A 
ATOM      2  N   UNL     1       1.580   5.568  20.760  0.00  0.00    +0.000 NA
ATOM      3  N   UNL     1       2.469   6.412  20.204  0.00  0.00    +0.000 N 
ATOM      4  C   UNL     1       3.344   5.752  19.383  0.00  0.00    +0.000 A 
ATOM      5  N   UNL     1       4.371   6.376  18.756  0.00  0.00    +0.000 N 
ATOM      6  N   UNL     1       3.014   4.483  19.369  0.00  0.00    +0.000 NA
ATOM      7  H   UNL     1       2.418   7.398  20.419  0.00  0.00    +0.000 HD
ATOM      8  H   UNL     1       4.694   7.273  19.108  0.00  0.00    +0.000 HD
ENDROOT
BRANCH   5   9
ATOM      9  C   UNL     1       5.257   5.768  17.862  0.00  0.00    +0.000 C 
ATOM     10  C   UNL     1       6.387   5.138  18.233  0.00  0.00    +0.000 C 
ATOM     11  C   UNL     1       7.347   4.581  17.252  0.00  0.00    +0.000 C 
ATOM     12  O   UNL     1       8.370   4.029  17.651  0.00  0.00    +0.000 OA
ATOM     13  C   UNL     1       7.069   4.789  15.787  0.00  0.00    +0.000 C 
ATOM     14  C   UNL     1       5.572   4.811  15.526  0.00  0.00    +0.000 C 
ATOM     15  C   UNL     1       4.868   5.849  16.397  0.00  0.00    +0.000 C 
ENDBRANCH   5   9
BRANCH   1  17
ATOM     16  C   UNL     1       0.825   2.293  18.949  0.00  0.00    +0.000 C 
ATOM     17  S   UNL     1       1.178   2.898  20.619  0.00  0.00    +0.000 S 
ENDBRANCH   1  17
TORSDOF 2
ENDMDL
MODEL 9
REMARK VINA RESULT:      -6.4      1.148      1.149
REMARK  Name = 
REMARK  3 active torsions:
REMARK  status: ('A' for Active; 'I' for Inactive)
REMARK    1  A    between atoms: C_1  and  S_2
REMARK    2  A    between atoms: S_2  and  C_3
REMARK    3  A    between atoms: N_7  and  C_8
REMARK                            x       y       z     vdW  Elec       q    Type
REMARK                         _______ _______ _______ _____ _____    ______ ____
ROOT
ATOM      1  C   UNL     1       6.434   5.996  17.641  0.00  0.00    +0.000 A 
ATOM      2  N   UNL     1       7.544   5.255  17.572  0.00  0.00    +0.000 NA
ATOM      3  N   UNL     1       7.103   4.079  18.054  0.00  0.00    +0.000 N 
ATOM      4  C   UNL     1       5.781   4.143  18.407  0.00  0.00    +0.000 A 
ATOM      5  N   UNL     1       5.124   3.103  18.974  0.00  0.00    +0.000 N 
ATOM      6  N   UNL     1       5.341   5.346  18.126  0.00  0.00    +0.000 NA
ATOM      7  H   UNL     1       7.738   3.295  18.109  0.00  0.00    +0.000 HD
ATOM      8  H   UNL     1       5.660   2.364  19.422  0.00  0.00    +0.000 HD
ENDROOT
BRANCH   5   9
ATOM      9  C   UNL     1       3.764   3.090  19.299  0.00  0.00    +0.000 C 
ATOM     10  C   UNL     1       3.289   2.920  20.546  0.00  0.00    +0.000 C 
ATOM     11  C   UNL     1       1.841   2.825  20.841  0.00  0.00    +0.000 C 
ATOM     12  O   UNL     1       1.467   2.654  21.999  0.00  0.00    +0.000 OA
ATOM     13  C   UNL     1       0.876   2.857  19.685  0.00  0.00    +0.000 C 
ATOM     14  C   UNL     1       1.414   3.732  18.565  0.00  0.00    +0.000 C 
ATOM     15  C   UNL     1       2.811   3.290  18.134  0.00  0.00    +0.000 C 
ENDBRANCH   5   9
BRANCH   1  17
ATOM     16  C   UNL     1       8.017   8.193  17.818  0.00  0.00    +0.000 C 
ATOM     17  S   UNL     1       6.403   7.675  17.180  0.00  0.00    +0.000 S 
ENDBRANCH   1  17
TORSDOF 2
ENDMDL
