MODEL 1
REMARK VINA RESULT:      -6.5      0.000      0.000
REMARK  Name = 
REMARK  4 active torsions:
REMARK  status: ('A' for Active; 'I' for Inactive)
REMARK    1  A    between atoms: C_2  and  C_3
REMARK    2  A    between atoms: C_3  and  S_4
REMARK    3  A    between atoms: S_4  and  C_5
REMARK    4  A    between atoms: N_10  and  C_11
REMARK                            x       y       z     vdW  Elec       q    Type
REMARK                         _______ _______ _______ _____ _____    ______ ____
ROOT
ATOM      1  O   UNL     1       4.128   6.045  17.164  0.00  0.00    +0.000 OA
ATOM      2  C   UNL     1       4.452   5.017  16.573  0.00  0.00    +0.000 C 
ATOM      3  N   UNL     1       4.160   3.725  16.986  0.00  0.00    +0.000 N 
ATOM      4  H   UNL     1       4.737   2.993  16.564  0.00  0.00    +0.000 HD
ENDROOT
BRANCH   3   5
ATOM      5  C   UNL     1       3.405   3.368  18.125  0.00  0.00    +0.000 A 
ATOM      6  C   UNL     1       2.004   3.388  18.157  0.00  0.00    +0.000 A 
ATOM      7  C   UNL     1       1.311   3.100  19.333  0.00  0.00    +0.000 A 
ATOM      8  C   UNL     1       2.012   2.772  20.489  0.00  0.00    +0.000 A 
ATOM      9 CL   UNL     1       1.160   2.472  21.953  0.00  0.00    +0.000 Cl
ATOM     10  C   UNL     1       3.402   2.692  20.463  0.00  0.00    +0.000 A 
ATOM     11  C   UNL     1       4.096   2.978  19.280  0.00  0.00    +0.000 A 
ENDBRANCH   3   5
BRANCH   2  12
ATOM     12  C   UNL     1       5.248   5.088  15.278  0.00  0.00    +0.000 C 
BRANCH  12  13
ATOM     13  S   UNL     1       6.932   4.455  15.506  0.00  0.00    +0.000 S 
BRANCH  13  14
ATOM     14  C   UNL     1       7.417   5.353  16.893  0.00  0.00    +0.000 C 
ATOM     15  N   UNL     1       7.542   6.652  16.900  0.00  0.00    +0.000 NA
ATOM     16  C   UNL     1       7.907   6.943  18.325  0.00  0.00    +0.000 C 
ATOM     17  C   UNL     1       7.632   5.658  19.120  0.00  0.00    +0.000 C 
ATOM     18  N   UNL     1       7.633   4.684  18.059  0.00  0.00    +0.000 N 
ATOM     19  H   UNL     1       7.139   3.809  18.183  0.00  0.00    +0.000 HD
ENDBRANCH  13  14
ENDBRANCH  12  13
ENDBRANCH   2  12
TORSDOF 4
ENDMDL
MODEL 2
REMARK VINA RESULT:      -6.2      4.350      5.276
REMARK  Name = 
REMARK  4 active torsions:
REMARK  status: ('A' for Active; 'I' for Inactive)
REMARK    1  A    between atoms: C_2  and  C_3
REMARK    2  A    between atoms: C_3  and  S_4
REMARK    3  A    between atoms: S_4  and  C_5
REMARK    4  A    between atoms: N_10  and  C_11
REMARK                            x       y       z     vdW  Elec       q    Type
REMARK                         _______ _______ _______ _____ _____    ______ ____
ROOT
ATOM      1  O   UNL     1       0.744   4.469  20.340  0.00  0.00    +0.000 OA
ATOM      2  C   UNL     1       1.967   4.535  20.440  0.00  0.00    +0.000 C 
ATOM      3  N   UNL     1       2.733   5.672  20.225  0.00  0.00    +0.000 N 
ATOM      4  H   UNL     1       3.728   5.501  20.057  0.00  0.00    +0.000 HD
ENDROOT
BRANCH   3   5
ATOM      5  C   UNL     1       2.241   6.955  19.901  0.00  0.00    +0.000 A 
ATOM      6  C   UNL     1       1.554   7.768  20.813  0.00  0.00    +0.000 A 
ATOM      7  C   UNL     1       1.022   8.996  20.417  0.00  0.00    +0.000 A 
ATOM      8  C   UNL     1       1.186   9.432  19.106  0.00  0.00    +0.000 A 
ATOM      9 CL   UNL     1       0.482  10.919  18.602  0.00  0.00    +0.000 Cl
ATOM     10  C   UNL     1       1.913   8.664  18.200  0.00  0.00    +0.000 A 
ATOM     11  C   UNL     1       2.449   7.434  18.601  0.00  0.00    +0.000 A 
ENDBRANCH   3   5
BRANCH   2  12
ATOM     12  C   UNL     1       2.778   3.304  20.820  0.00  0.00    +0.000 C 
BRANCH  12  13
ATOM     13  S   UNL     1       3.168   2.299  19.362  0.00  0.00    +0.000 S 
BRANCH  13  14
ATOM     14  C   UNL     1       4.213   3.373  18.513  0.00  0.00    +0.000 C 
ATOM     15  N   UNL     1       3.828   4.093  17.494  0.00  0.00    +0.000 NA
ATOM     16  C   UNL     1       5.056   4.888  17.167  0.00  0.00    +0.000 C 
ATOM     17  C   UNL     1       6.016   4.721  18.355  0.00  0.00    +0.000 C 
ATOM     18  N   UNL     1       5.492   3.522  18.953  0.00  0.00    +0.000 N 
ATOM     19  H   UNL     1       5.663   3.336  19.934  0.00  0.00    +0.000 HD
ENDBRANCH  13  14
ENDBRANCH  12  13
ENDBRANCH   2  12
TORSDOF 4
ENDMDL
MODEL 3
REMARK VINA RESULT:      -6.2      0.342      1.212
REMARK  Name = 
REMARK  4 active torsions:
REMARK  status: ('A' for Active; 'I' for Inactive)
REMARK    1  A    between atoms: C_2  and  C_3
REMARK    2  A    between atoms: C_3  and  S_4
REMARK    3  A    between atoms: S_4  and  C_5
REMARK    4  A    between atoms: N_10  and  C_11
REMARK                            x       y       z     vdW  Elec       q    Type
REMARK                         _______ _______ _______ _____ _____    ______ ____
ROOT
ATOM      1  O   UNL     1       4.256   6.419  17.309  0.00  0.00    +0.000 OA
ATOM      2  C   UNL     1       4.526   5.383  16.707  0.00  0.00    +0.000 C 
ATOM      3  N   UNL     1       4.237   4.098  17.146  0.00  0.00    +0.000 N 
ATOM      4  H   UNL     1       4.776   3.354  16.697  0.00  0.00    +0.000 HD
ENDROOT
BRANCH   3   5
ATOM      5  C   UNL     1       3.547   3.762  18.331  0.00  0.00    +0.000 A 
ATOM      6  C   UNL     1       4.176   3.219  19.460  0.00  0.00    +0.000 A 
ATOM      7  C   UNL     1       3.433   2.833  20.577  0.00  0.00    +0.000 A 
ATOM      8  C   UNL     1       2.052   3.000  20.583  0.00  0.00    +0.000 A 
ATOM      9 CL   UNL     1       1.130   2.472  21.936  0.00  0.00    +0.000 Cl
ATOM     10  C   UNL     1       1.415   3.588  19.493  0.00  0.00    +0.000 A 
ATOM     11  C   UNL     1       2.164   3.978  18.374  0.00  0.00    +0.000 A 
ENDBRANCH   3   5
BRANCH   2  12
ATOM     12  C   UNL     1       5.244   5.432  15.367  0.00  0.00    +0.000 C 
BRANCH  12  13
ATOM     13  S   UNL     1       6.921   4.755  15.495  0.00  0.00    +0.000 S 
BRANCH  13  14
ATOM     14  C   UNL     1       7.465   5.535  16.930  0.00  0.00    +0.000 C 
ATOM     15  N   UNL     1       7.689   6.819  17.009  0.00  0.00    +0.000 NA
ATOM     16  C   UNL     1       8.065   7.003  18.448  0.00  0.00    +0.000 C 
ATOM     17  C   UNL     1       7.687   5.701  19.171  0.00  0.00    +0.000 C 
ATOM     18  N   UNL     1       7.621   4.790  18.058  0.00  0.00    +0.000 N 
ATOM     19  H   UNL     1       7.060   3.950  18.132  0.00  0.00    +0.000 HD
ENDBRANCH  13  14
ENDBRANCH  12  13
ENDBRANCH   2  12
TORSDOF 4
ENDMDL
MODEL 4
REMARK VINA RESULT:      -6.1      4.062      4.548
REMARK  Name = 
REMARK  4 active torsions:
REMARK  status: ('A' for Active; 'I' for Inactive)
REMARK    1  A    between atoms: C_2  and  C_3
REMARK    2  A    between atoms: C_3  and  S_4
REMARK    3  A    between atoms: S_4  and  C_5
REMARK    4  A    between atoms: N_10  and  C_11
REMARK                            x       y       z     vdW  Elec       q    Type
REMARK                         _______ _______ _______ _____ _____    ______ ____
ROOT
ATOM      1  O   UNL     1       1.656   4.904  17.716  0.00  0.00    +0.000 OA
ATOM      2  C   UNL     1       2.743   5.039  18.271  0.00  0.00    +0.000 C 
ATOM      3  N   UNL     1       3.199   6.202  18.877  0.00  0.00    +0.000 N 
ATOM      4  H   UNL     1       4.211   6.248  19.024  0.00  0.00    +0.000 HD
ENDROOT
BRANCH   3   5
ATOM      5  C   UNL     1       2.479   7.410  19.002  0.00  0.00    +0.000 A 
ATOM      6  C   UNL     1       1.827   7.798  20.180  0.00  0.00    +0.000 A 
ATOM      7  C   UNL     1       1.065   8.967  20.224  0.00  0.00    +0.000 A 
ATOM      8  C   UNL     1       0.961   9.769  19.093  0.00  0.00    +0.000 A 
ATOM      9 CL   UNL     1      -0.024  11.180  19.130  0.00  0.00    +0.000 Cl
ATOM     10  C   UNL     1       1.646   9.429  17.929  0.00  0.00    +0.000 A 
ATOM     11  C   UNL     1       2.413   8.258  17.889  0.00  0.00    +0.000 A 
ENDBRANCH   3   5
BRANCH   2  12
ATOM     12  C   UNL     1       3.729   3.882  18.331  0.00  0.00    +0.000 C 
BRANCH  12  13
ATOM     13  S   UNL     1       4.803   3.857  16.870  0.00  0.00    +0.000 S 
BRANCH  13  14
ATOM     14  C   UNL     1       6.060   4.913  17.387  0.00  0.00    +0.000 C 
ATOM     15  N   UNL     1       6.048   6.201  17.176  0.00  0.00    +0.000 NA
ATOM     16  C   UNL     1       7.297   6.663  17.865  0.00  0.00    +0.000 C 
ATOM     17  C   UNL     1       7.777   5.491  18.735  0.00  0.00    +0.000 C 
ATOM     18  N   UNL     1       7.097   4.393  18.099  0.00  0.00    +0.000 N 
ATOM     19  H   UNL     1       6.912   3.547  18.625  0.00  0.00    +0.000 HD
ENDBRANCH  13  14
ENDBRANCH  12  13
ENDBRANCH   2  12
TORSDOF 4
ENDMDL
MODEL 5
REMARK VINA RESULT:      -6.0      4.350      5.820
REMARK  Name = 
REMARK  4 active torsions:
REMARK  status: ('A' for Active; 'I' for Inactive)
REMARK    1  A    between atoms: C_2  and  C_3
REMARK    2  A    between atoms: C_3  and  S_4
REMARK    3  A    between atoms: S_4  and  C_5
REMARK    4  A    between atoms: N_10  and  C_11
REMARK                            x       y       z     vdW  Elec       q    Type
REMARK                         _______ _______ _______ _____ _____    ______ ____
ROOT
ATOM      1  O   UNL     1       1.637   4.880  17.642  0.00  0.00    +0.000 OA
ATOM      2  C   UNL     1       2.810   5.164  17.871  0.00  0.00    +0.000 C 
ATOM      3  N   UNL     1       3.264   6.386  18.348  0.00  0.00    +0.000 N 
ATOM      4  H   UNL     1       4.261   6.565  18.204  0.00  0.00    +0.000 HD
ENDROOT
BRANCH   3   5
ATOM      5  C   UNL     1       2.459   7.493  18.695  0.00  0.00    +0.000 A 
ATOM      6  C   UNL     1       2.139   8.522  17.799  0.00  0.00    +0.000 A 
ATOM      7  C   UNL     1       1.403   9.631  18.217  0.00  0.00    +0.000 A 
ATOM      8  C   UNL     1       0.965   9.716  19.535  0.00  0.00    +0.000 A 
ATOM      9 CL   UNL     1       0.106  11.110  20.065  0.00  0.00    +0.000 Cl
ATOM     10  C   UNL     1       1.226   8.679  20.425  0.00  0.00    +0.000 A 
ATOM     11  C   UNL     1       1.961   7.564  20.002  0.00  0.00    +0.000 A 
ENDBRANCH   3   5
BRANCH   2  12
ATOM     12  C   UNL     1       3.914   4.146  17.626  0.00  0.00    +0.000 C 
BRANCH  12  13
ATOM     13  S   UNL     1       3.299   2.451  17.821  0.00  0.00    +0.000 S 
BRANCH  13  14
ATOM     14  C   UNL     1       2.736   2.508  19.447  0.00  0.00    +0.000 C 
ATOM     15  N   UNL     1       3.525   2.660  20.476  0.00  0.00    +0.000 NA
ATOM     16  C   UNL     1       2.565   2.715  21.626  0.00  0.00    +0.000 C 
ATOM     17  C   UNL     1       1.166   2.901  21.021  0.00  0.00    +0.000 C 
ATOM     18  N   UNL     1       1.395   2.445  19.675  0.00  0.00    +0.000 N 
ATOM     19  H   UNL     1       0.789   2.762  18.929  0.00  0.00    +0.000 HD
ENDBRANCH  13  14
ENDBRANCH  12  13
ENDBRANCH   2  12
TORSDOF 4
ENDMDL
MODEL 6
REMARK VINA RESULT:      -5.9      2.024      3.092
REMARK  Name = 
REMARK  4 active torsions:
REMARK  status: ('A' for Active; 'I' for Inactive)
REMARK    1  A    between atoms: C_2  and  C_3
REMARK    2  A    between atoms: C_3  and  S_4
REMARK    3  A    between atoms: S_4  and  C_5
REMARK    4  A    between atoms: N_10  and  C_11
REMARK                            x       y       z     vdW  Elec       q    Type
REMARK                         _______ _______ _______ _____ _____    ______ ____
ROOT
ATOM      1  O   UNL     1       6.780   4.026  18.524  0.00  0.00    +0.000 OA
ATOM      2  C   UNL     1       6.475   5.183  18.804  0.00  0.00    +0.000 C 
ATOM      3  N   UNL     1       5.186   5.641  19.041  0.00  0.00    +0.000 N 
ATOM      4  H   UNL     1       5.064   6.653  18.966  0.00  0.00    +0.000 HD
ENDROOT
BRANCH   3   5
ATOM      5  C   UNL     1       4.014   4.853  19.049  0.00  0.00    +0.000 A 
ATOM      6  C   UNL     1       3.760   3.861  20.006  0.00  0.00    +0.000 A 
ATOM      7  C   UNL     1       2.621   3.060  19.921  0.00  0.00    +0.000 A 
ATOM      8  C   UNL     1       1.713   3.254  18.885  0.00  0.00    +0.000 A 
ATOM      9 CL   UNL     1       0.337   2.229  18.748  0.00  0.00    +0.000 Cl
ATOM     10  C   UNL     1       1.919   4.271  17.957  0.00  0.00    +0.000 A 
ATOM     11  C   UNL     1       3.061   5.076  18.046  0.00  0.00    +0.000 A 
ENDBRANCH   3   5
BRANCH   2  12
ATOM     12  C   UNL     1       7.544   6.261  18.907  0.00  0.00    +0.000 C 
BRANCH  12  13
ATOM     13  S   UNL     1       7.522   7.349  17.457  0.00  0.00    +0.000 S 
BRANCH  13  14
ATOM     14  C   UNL     1       6.807   6.303  16.292  0.00  0.00    +0.000 C 
ATOM     15  N   UNL     1       5.576   6.427  15.875  0.00  0.00    +0.000 NA
ATOM     16  C   UNL     1       5.465   5.347  14.840  0.00  0.00    +0.000 C 
ATOM     17  C   UNL     1       6.896   4.870  14.549  0.00  0.00    +0.000 C 
ATOM     18  N   UNL     1       7.574   5.327  15.734  0.00  0.00    +0.000 N 
ATOM     19  H   UNL     1       8.573   5.490  15.707  0.00  0.00    +0.000 HD
ENDBRANCH  13  14
ENDBRANCH  12  13
ENDBRANCH   2  12
TORSDOF 4
ENDMDL
MODEL 7
REMARK VINA RESULT:      -5.9      0.958      1.335
REMARK  Name = 
REMARK  4 active torsions:
REMARK  status: ('A' for Active; 'I' for Inactive)
REMARK    1  A    between atoms: C_2  and  C_3
REMARK    2  A    between atoms: C_3  and  S_4
REMARK    3  A    between atoms: S_4  and  C_5
REMARK    4  A    between atoms: N_10  and  C_11
REMARK                            x       y       z     vdW  Elec       q    Type
REMARK                         _______ _______ _______ _____ _____    ______ ____
ROOT
ATOM      1  O   UNL     1       4.390   5.068  16.184  0.00  0.00    +0.000 OA
ATOM      2  C   UNL     1       4.940   3.970  16.137  0.00  0.00    +0.000 C 
ATOM      3  N   UNL     1       4.764   2.941  17.052  0.00  0.00    +0.000 N 
ATOM      4  H   UNL     1       5.495   2.226  17.048  0.00  0.00    +0.000 HD
ENDROOT
BRANCH   3   5
ATOM      5  C   UNL     1       3.892   2.958  18.162  0.00  0.00    +0.000 A 
ATOM      6  C   UNL     1       4.128   3.723  19.313  0.00  0.00    +0.000 A 
ATOM      7  C   UNL     1       3.272   3.643  20.412  0.00  0.00    +0.000 A 
ATOM      8  C   UNL     1       2.160   2.808  20.367  0.00  0.00    +0.000 A 
ATOM      9 CL   UNL     1       1.137   2.666  21.743  0.00  0.00    +0.000 Cl
ATOM     10  C   UNL     1       1.879   2.082  19.212  0.00  0.00    +0.000 A 
ATOM     11  C   UNL     1       2.737   2.167  18.108  0.00  0.00    +0.000 A 
ENDBRANCH   3   5
BRANCH   2  12
ATOM     12  C   UNL     1       5.917   3.642  15.017  0.00  0.00    +0.000 C 
BRANCH  12  13
ATOM     13  S   UNL     1       7.038   5.031  14.695  0.00  0.00    +0.000 S 
BRANCH  13  14
ATOM     14  C   UNL     1       7.444   5.485  16.306  0.00  0.00    +0.000 C 
ATOM     15  N   UNL     1       7.327   6.703  16.760  0.00  0.00    +0.000 NA
ATOM     16  C   UNL     1       7.729   6.562  18.197  0.00  0.00    +0.000 C 
ATOM     17  C   UNL     1       7.750   5.057  18.501  0.00  0.00    +0.000 C 
ATOM     18  N   UNL     1       7.858   4.519  17.170  0.00  0.00    +0.000 N 
ATOM     19  H   UNL     1       7.544   3.574  16.986  0.00  0.00    +0.000 HD
ENDBRANCH  13  14
ENDBRANCH  12  13
ENDBRANCH   2  12
TORSDOF 4
ENDMDL
MODEL 8
REMARK VINA RESULT:      -5.9      3.593      5.779
REMARK  Name = 
REMARK  4 active torsions:
REMARK  status: ('A' for Active; 'I' for Inactive)
REMARK    1  A    between atoms: C_2  and  C_3
REMARK    2  A    between atoms: C_3  and  S_4
REMARK    3  A    between atoms: S_4  and  C_5
REMARK    4  A    between atoms: N_10  and  C_11
REMARK                            x       y       z     vdW  Elec       q    Type
REMARK                         _______ _______ _______ _____ _____    ______ ____
ROOT
ATOM      1  O   UNL     1       4.871   2.947  19.847  0.00  0.00    +0.000 OA
ATOM      2  C   UNL     1       4.414   2.783  18.718  0.00  0.00    +0.000 C 
ATOM      3  N   UNL     1       4.682   3.585  17.617  0.00  0.00    +0.000 N 
ATOM      4  H   UNL     1       4.013   3.503  16.847  0.00  0.00    +0.000 HD
ENDROOT
BRANCH   3   5
ATOM      5  C   UNL     1       5.556   4.694  17.590  0.00  0.00    +0.000 A 
ATOM      6  C   UNL     1       6.868   4.651  18.081  0.00  0.00    +0.000 A 
ATOM      7  C   UNL     1       7.663   5.797  18.100  0.00  0.00    +0.000 A 
ATOM      8  C   UNL     1       7.158   6.999  17.612  0.00  0.00    +0.000 A 
ATOM      9 CL   UNL     1       8.118   8.425  17.687  0.00  0.00    +0.000 Cl
ATOM     10  C   UNL     1       5.877   7.049  17.069  0.00  0.00    +0.000 A 
ATOM     11  C   UNL     1       5.082   5.896  17.048  0.00  0.00    +0.000 A 
ENDBRANCH   3   5
BRANCH   2  12
ATOM     12  C   UNL     1       3.462   1.632  18.429  0.00  0.00    +0.000 C 
BRANCH  12  13
ATOM     13  S   UNL     1       1.733   2.162  18.561  0.00  0.00    +0.000 S 
BRANCH  13  14
ATOM     14  C   UNL     1       1.938   3.744  19.206  0.00  0.00    +0.000 C 
ATOM     15  N   UNL     1       1.973   4.822  18.469  0.00  0.00    +0.000 NA
ATOM     16  C   UNL     1       2.095   5.916  19.486  0.00  0.00    +0.000 C 
ATOM     17  C   UNL     1       1.787   5.283  20.851  0.00  0.00    +0.000 C 
ATOM     18  N   UNL     1       2.016   3.893  20.557  0.00  0.00    +0.000 N 
ATOM     19  H   UNL     1       1.568   3.181  21.122  0.00  0.00    +0.000 HD
ENDBRANCH  13  14
ENDBRANCH  12  13
ENDBRANCH   2  12
TORSDOF 4
ENDMDL
MODEL 9
REMARK VINA RESULT:      -5.8      4.320      5.006
REMARK  Name = 
REMARK  4 active torsions:
REMARK  status: ('A' for Active; 'I' for Inactive)
REMARK    1  A    between atoms: C_2  and  C_3
REMARK    2  A    between atoms: C_3  and  S_4
REMARK    3  A    between atoms: S_4  and  C_5
REMARK    4  A    between atoms: N_10  and  C_11
REMARK                            x       y       z     vdW  Elec       q    Type
REMARK                         _______ _______ _______ _____ _____    ______ ____
ROOT
ATOM      1  O   UNL     1       1.911   4.818  18.334  0.00  0.00    +0.000 OA
ATOM      2  C   UNL     1       2.885   5.146  19.008  0.00  0.00    +0.000 C 
ATOM      3  N   UNL     1       3.133   6.422  19.494  0.00  0.00    +0.000 N 
ATOM      4  H   UNL     1       4.102   6.601  19.771  0.00  0.00    +0.000 HD
ENDROOT
BRANCH   3   5
ATOM      5  C   UNL     1       2.294   7.548  19.340  0.00  0.00    +0.000 A 
ATOM      6  C   UNL     1       2.138   8.229  18.126  0.00  0.00    +0.000 A 
ATOM      7  C   UNL     1       1.355   9.382  18.048  0.00  0.00    +0.000 A 
ATOM      8  C   UNL     1       0.707   9.858  19.183  0.00  0.00    +0.000 A 
ATOM      9 CL   UNL     1      -0.212  11.310  19.102  0.00  0.00    +0.000 Cl
ATOM     10  C   UNL     1       0.805   9.163  20.386  0.00  0.00    +0.000 A 
ATOM     11  C   UNL     1       1.588   8.004  20.461  0.00  0.00    +0.000 A 
ENDBRANCH   3   5
BRANCH   2  12
ATOM     12  C   UNL     1       3.953   4.126  19.371  0.00  0.00    +0.000 C 
BRANCH  12  13
ATOM     13  S   UNL     1       5.615   4.763  19.025  0.00  0.00    +0.000 S 
BRANCH  13  14
ATOM     14  C   UNL     1       5.589   4.785  17.303  0.00  0.00    +0.000 C 
ATOM     15  N   UNL     1       5.509   5.882  16.600  0.00  0.00    +0.000 NA
ATOM     16  C   UNL     1       5.592   5.380  15.190  0.00  0.00    +0.000 C 
ATOM     17  C   UNL     1       6.053   3.917  15.272  0.00  0.00    +0.000 C 
ATOM     18  N   UNL     1       5.709   3.606  16.635  0.00  0.00    +0.000 N 
ATOM     19  H   UNL     1       6.192   2.855  17.113  0.00  0.00    +0.000 HD
ENDBRANCH  13  14
ENDBRANCH  12  13
ENDBRANCH   2  12
TORSDOF 4
ENDMDL
