MODEL 1
REMARK VINA RESULT:      -8.5      0.000      0.000
REMARK  Name = 
REMARK  1 active torsions:
REMARK  status: ('A' for Active; 'I' for Inactive)
REMARK    1  A    between atoms: C_1  and  C_2
REMARK                            x       y       z     vdW  Elec       q    Type
REMARK                         _______ _______ _______ _____ _____    ______ ____
ROOT
ATOM      1  C   UNL     1       7.768   7.400  17.620  0.00  0.00    +0.000 C 
ATOM      2  C   UNL     1       6.550   6.526  17.594  0.00  0.00    +0.000 A 
ATOM      3  C   UNL     1       5.341   6.972  17.062  0.00  0.00    +0.000 A 
ATOM      4  C   UNL     1       4.209   6.153  17.111  0.00  0.00    +0.000 A 
ATOM      5  C   UNL     1       4.246   4.899  17.743  0.00  0.00    +0.000 A 
ATOM      6  C   UNL     1       5.454   4.469  18.302  0.00  0.00    +0.000 A 
ATOM      7  C   UNL     1       6.609   5.252  18.166  0.00  0.00    +0.000 A 
ATOM      8  N   UNL     1       5.605   3.289  19.039  0.00  0.00    +0.000 N 
ATOM      9  C   UNL     1       4.717   2.673  19.880  0.00  0.00    +0.000 C 
ATOM     10  O   UNL     1       5.166   1.811  20.642  0.00  0.00    +0.000 OA
ATOM     11  C   UNL     1       3.289   3.034  19.987  0.00  0.00    +0.000 A 
ATOM     12  C   UNL     1       2.628   2.683  21.175  0.00  0.00    +0.000 A 
ATOM     13  C   UNL     1       1.257   2.883  21.296  0.00  0.00    +0.000 A 
ATOM     14  C   UNL     1       0.587   3.417  20.216  0.00  0.00    +0.000 A 
ATOM     15  N   UNL     1       1.197   3.788  19.069  0.00  0.00    +0.000 NA
ATOM     16  C   UNL     1       2.541   3.618  18.973  0.00  0.00    +0.000 A 
ATOM     17  N   UNL     1       3.071   4.130  17.792  0.00  0.00    +0.000 N 
ATOM     18  H   UNL     1       6.551   2.980  19.227  0.00  0.00    +0.000 HD
ATOM     19  H   UNL     1       2.289   4.538  17.290  0.00  0.00    +0.000 HD
ENDROOT
TORSDOF 0
ENDMDL
MODEL 2
REMARK VINA RESULT:      -8.1      2.335      5.778
REMARK  Name = 
REMARK  1 active torsions:
REMARK  status: ('A' for Active; 'I' for Inactive)
REMARK    1  A    between atoms: C_1  and  C_2
REMARK                            x       y       z     vdW  Elec       q    Type
REMARK                         _______ _______ _______ _____ _____    ______ ____
ROOT
ATOM      1  C   UNL     1       0.641   2.668  18.749  0.00  0.00    +0.000 C 
ATOM      2  C   UNL     1       2.121   2.898  18.678  0.00  0.00    +0.000 A 
ATOM      3  C   UNL     1       2.952   2.652  19.770  0.00  0.00    +0.000 A 
ATOM      4  C   UNL     1       4.319   2.936  19.689  0.00  0.00    +0.000 A 
ATOM      5  C   UNL     1       4.872   3.527  18.540  0.00  0.00    +0.000 A 
ATOM      6  C   UNL     1       4.028   3.800  17.459  0.00  0.00    +0.000 A 
ATOM      7  C   UNL     1       2.678   3.425  17.510  0.00  0.00    +0.000 A 
ATOM      8  N   UNL     1       4.428   4.468  16.296  0.00  0.00    +0.000 N 
ATOM      9  C   UNL     1       5.345   5.475  16.148  0.00  0.00    +0.000 C 
ATOM     10  O   UNL     1       5.323   6.107  15.088  0.00  0.00    +0.000 OA
ATOM     11  C   UNL     1       6.289   5.899  17.201  0.00  0.00    +0.000 A 
ATOM     12  C   UNL     1       6.814   7.198  17.106  0.00  0.00    +0.000 A 
ATOM     13  C   UNL     1       7.798   7.620  17.992  0.00  0.00    +0.000 A 
ATOM     14  C   UNL     1       8.237   6.721  18.941  0.00  0.00    +0.000 A 
ATOM     15  N   UNL     1       7.737   5.474  19.076  0.00  0.00    +0.000 NA
ATOM     16  C   UNL     1       6.753   5.083  18.225  0.00  0.00    +0.000 A 
ATOM     17  N   UNL     1       6.245   3.821  18.524  0.00  0.00    +0.000 N 
ATOM     18  H   UNL     1       3.796   4.439  15.505  0.00  0.00    +0.000 HD
ATOM     19  H   UNL     1       6.744   3.510  19.352  0.00  0.00    +0.000 HD
ENDROOT
TORSDOF 0
ENDMDL
MODEL 3
REMARK VINA RESULT:      -7.6      2.089      5.249
REMARK  Name = 
REMARK  1 active torsions:
REMARK  status: ('A' for Active; 'I' for Inactive)
REMARK    1  A    between atoms: C_1  and  C_2
REMARK                            x       y       z     vdW  Elec       q    Type
REMARK                         _______ _______ _______ _____ _____    ______ ____
ROOT
ATOM      1  C   UNL     1       1.129   2.747  21.177  0.00  0.00    +0.000 C 
ATOM      2  C   UNL     1       1.788   3.593  20.129  0.00  0.00    +0.000 A 
ATOM      3  C   UNL     1       1.201   3.802  18.882  0.00  0.00    +0.000 A 
ATOM      4  C   UNL     1       1.872   4.545  17.907  0.00  0.00    +0.000 A 
ATOM      5  C   UNL     1       3.166   5.043  18.134  0.00  0.00    +0.000 A 
ATOM      6  C   UNL     1       3.763   4.804  19.376  0.00  0.00    +0.000 A 
ATOM      7  C   UNL     1       3.048   4.141  20.384  0.00  0.00    +0.000 A 
ATOM      8  N   UNL     1       5.077   5.161  19.700  0.00  0.00    +0.000 N 
ATOM      9  C   UNL     1       6.188   5.194  18.899  0.00  0.00    +0.000 C 
ATOM     10  O   UNL     1       7.286   5.255  19.460  0.00  0.00    +0.000 OA
ATOM     11  C   UNL     1       6.154   5.077  17.428  0.00  0.00    +0.000 A 
ATOM     12  C   UNL     1       7.331   4.651  16.792  0.00  0.00    +0.000 A 
ATOM     13  C   UNL     1       7.407   4.634  15.404  0.00  0.00    +0.000 A 
ATOM     14  C   UNL     1       6.305   5.058  14.693  0.00  0.00    +0.000 A 
ATOM     15  N   UNL     1       5.150   5.450  15.273  0.00  0.00    +0.000 NA
ATOM     16  C   UNL     1       5.074   5.432  16.629  0.00  0.00    +0.000 A 
ATOM     17  N   UNL     1       3.807   5.756  17.108  0.00  0.00    +0.000 N 
ATOM     18  H   UNL     1       5.340   5.119  20.677  0.00  0.00    +0.000 HD
ATOM     19  H   UNL     1       3.230   5.907  16.287  0.00  0.00    +0.000 HD
ENDROOT
TORSDOF 0
ENDMDL
MODEL 4
REMARK VINA RESULT:      -7.3      4.570      6.040
REMARK  Name = 
REMARK  1 active torsions:
REMARK  status: ('A' for Active; 'I' for Inactive)
REMARK    1  A    between atoms: C_1  and  C_2
REMARK                            x       y       z     vdW  Elec       q    Type
REMARK                         _______ _______ _______ _____ _____    ______ ____
ROOT
ATOM      1  C   UNL     1       2.195   2.563  17.812  0.00  0.00    +0.000 C 
ATOM      2  C   UNL     1       2.209   3.796  18.664  0.00  0.00    +0.000 A 
ATOM      3  C   UNL     1       1.819   3.766  20.002  0.00  0.00    +0.000 A 
ATOM      4  C   UNL     1       1.785   4.947  20.750  0.00  0.00    +0.000 A 
ATOM      5  C   UNL     1       2.082   6.188  20.162  0.00  0.00    +0.000 A 
ATOM      6  C   UNL     1       2.444   6.217  18.812  0.00  0.00    +0.000 A 
ATOM      7  C   UNL     1       2.568   5.020  18.092  0.00  0.00    +0.000 A 
ATOM      8  N   UNL     1       2.673   7.389  18.082  0.00  0.00    +0.000 N 
ATOM      9  C   UNL     1       2.068   8.613  18.197  0.00  0.00    +0.000 C 
ATOM     10  O   UNL     1       2.219   9.407  17.264  0.00  0.00    +0.000 OA
ATOM     11  C   UNL     1       1.188   9.001  19.317  0.00  0.00    +0.000 A 
ATOM     12  C   UNL     1       0.281  10.049  19.085  0.00  0.00    +0.000 A 
ATOM     13  C   UNL     1      -0.492  10.546  20.128  0.00  0.00    +0.000 A 
ATOM     14  C   UNL     1      -0.323   9.987  21.377  0.00  0.00    +0.000 A 
ATOM     15  N   UNL     1       0.521   8.963  21.629  0.00  0.00    +0.000 NA
ATOM     16  C   UNL     1       1.248   8.463  20.596  0.00  0.00    +0.000 A 
ATOM     17  N   UNL     1       2.002   7.348  20.951  0.00  0.00    +0.000 N 
ATOM     18  H   UNL     1       3.115   7.291  17.176  0.00  0.00    +0.000 HD
ATOM     19  H   UNL     1       1.790   7.169  21.928  0.00  0.00    +0.000 HD
ENDROOT
TORSDOF 0
ENDMDL
MODEL 5
REMARK VINA RESULT:      -7.3      3.297      4.307
REMARK  Name = 
REMARK  1 active torsions:
REMARK  status: ('A' for Active; 'I' for Inactive)
REMARK    1  A    between atoms: C_1  and  C_2
REMARK                            x       y       z     vdW  Elec       q    Type
REMARK                         _______ _______ _______ _____ _____    ______ ____
ROOT
ATOM      1  C   UNL     1       0.112  10.440  19.941  0.00  0.00    +0.000 C 
ATOM      2  C   UNL     1       1.040   9.349  19.499  0.00  0.00    +0.000 A 
ATOM      3  C   UNL     1       1.541   9.295  18.200  0.00  0.00    +0.000 A 
ATOM      4  C   UNL     1       2.355   8.229  17.804  0.00  0.00    +0.000 A 
ATOM      5  C   UNL     1       2.635   7.165  18.678  0.00  0.00    +0.000 A 
ATOM      6  C   UNL     1       2.105   7.208  19.971  0.00  0.00    +0.000 A 
ATOM      7  C   UNL     1       1.369   8.326  20.393  0.00  0.00    +0.000 A 
ATOM      8  N   UNL     1       2.227   6.175  20.908  0.00  0.00    +0.000 N 
ATOM      9  C   UNL     1       2.260   4.821  20.704  0.00  0.00    +0.000 C 
ATOM     10  O   UNL     1       2.079   4.098  21.689  0.00  0.00    +0.000 OA
ATOM     11  C   UNL     1       2.412   4.185  19.381  0.00  0.00    +0.000 A 
ATOM     12  C   UNL     1       1.959   2.862  19.251  0.00  0.00    +0.000 A 
ATOM     13  C   UNL     1       2.181   2.162  18.070  0.00  0.00    +0.000 A 
ATOM     14  C   UNL     1       2.862   2.805  17.059  0.00  0.00    +0.000 A 
ATOM     15  N   UNL     1       3.288   4.083  17.142  0.00  0.00    +0.000 NA
ATOM     16  C   UNL     1       3.039   4.769  18.288  0.00  0.00    +0.000 A 
ATOM     17  N   UNL     1       3.431   6.103  18.219  0.00  0.00    +0.000 N 
ATOM     18  H   UNL     1       1.978   6.388  21.867  0.00  0.00    +0.000 HD
ATOM     19  H   UNL     1       3.798   6.238  17.283  0.00  0.00    +0.000 HD
ENDROOT
TORSDOF 0
ENDMDL
MODEL 6
REMARK VINA RESULT:      -7.2      2.302      5.682
REMARK  Name = 
REMARK  1 active torsions:
REMARK  status: ('A' for Active; 'I' for Inactive)
REMARK    1  A    between atoms: C_1  and  C_2
REMARK                            x       y       z     vdW  Elec       q    Type
REMARK                         _______ _______ _______ _____ _____    ______ ____
ROOT
ATOM      1  C   UNL     1       1.154   2.718  21.722  0.00  0.00    +0.000 C 
ATOM      2  C   UNL     1       1.771   2.925  20.371  0.00  0.00    +0.000 A 
ATOM      3  C   UNL     1       2.347   1.872  19.662  0.00  0.00    +0.000 A 
ATOM      4  C   UNL     1       2.968   2.112  18.433  0.00  0.00    +0.000 A 
ATOM      5  C   UNL     1       3.080   3.414  17.916  0.00  0.00    +0.000 A 
ATOM      6  C   UNL     1       2.526   4.470  18.646  0.00  0.00    +0.000 A 
ATOM      7  C   UNL     1       1.821   4.212  19.831  0.00  0.00    +0.000 A 
ATOM      8  N   UNL     1       2.647   5.820  18.295  0.00  0.00    +0.000 N 
ATOM      9  C   UNL     1       3.691   6.466  17.686  0.00  0.00    +0.000 C 
ATOM     10  O   UNL     1       3.698   7.699  17.740  0.00  0.00    +0.000 OA
ATOM     11  C   UNL     1       4.835   5.781  17.052  0.00  0.00    +0.000 A 
ATOM     12  C   UNL     1       6.021   6.518  16.906  0.00  0.00    +0.000 A 
ATOM     13  C   UNL     1       7.097   5.977  16.211  0.00  0.00    +0.000 A 
ATOM     14  C   UNL     1       6.947   4.717  15.671  0.00  0.00    +0.000 A 
ATOM     15  N   UNL     1       5.829   3.973  15.814  0.00  0.00    +0.000 NA
ATOM     16  C   UNL     1       4.795   4.497  16.523  0.00  0.00    +0.000 A 
ATOM     17  N   UNL     1       3.742   3.602  16.692  0.00  0.00    +0.000 N 
ATOM     18  H   UNL     1       2.050   6.479  18.779  0.00  0.00    +0.000 HD
ATOM     19  H   UNL     1       4.035   2.740  16.244  0.00  0.00    +0.000 HD
ENDROOT
TORSDOF 0
ENDMDL
MODEL 7
REMARK VINA RESULT:      -7.2      2.176      2.801
REMARK  Name = 
REMARK  1 active torsions:
REMARK  status: ('A' for Active; 'I' for Inactive)
REMARK    1  A    between atoms: C_1  and  C_2
REMARK                            x       y       z     vdW  Elec       q    Type
REMARK                         _______ _______ _______ _____ _____    ______ ____
ROOT
ATOM      1  C   UNL     1       7.455   4.793  15.479  0.00  0.00    +0.000 C 
ATOM      2  C   UNL     1       6.527   5.033  16.631  0.00  0.00    +0.000 A 
ATOM      3  C   UNL     1       6.999   5.171  17.936  0.00  0.00    +0.000 A 
ATOM      4  C   UNL     1       6.101   5.332  18.994  0.00  0.00    +0.000 A 
ATOM      5  C   UNL     1       4.713   5.299  18.781  0.00  0.00    +0.000 A 
ATOM      6  C   UNL     1       4.243   5.130  17.475  0.00  0.00    +0.000 A 
ATOM      7  C   UNL     1       5.148   5.065  16.406  0.00  0.00    +0.000 A 
ATOM      8  N   UNL     1       2.893   4.986  17.135  0.00  0.00    +0.000 N 
ATOM      9  C   UNL     1       1.883   4.380  17.837  0.00  0.00    +0.000 C 
ATOM     10  O   UNL     1       0.847   4.116  17.218  0.00  0.00    +0.000 OA
ATOM     11  C   UNL     1       1.992   3.953  19.245  0.00  0.00    +0.000 A 
ATOM     12  C   UNL     1       1.109   2.953  19.681  0.00  0.00    +0.000 A 
ATOM     13  C   UNL     1       1.073   2.589  21.022  0.00  0.00    +0.000 A 
ATOM     14  C   UNL     1       1.916   3.249  21.891  0.00  0.00    +0.000 A 
ATOM     15  N   UNL     1       2.794   4.198  21.501  0.00  0.00    +0.000 NA
ATOM     16  C   UNL     1       2.844   4.523  20.183  0.00  0.00    +0.000 A 
ATOM     17  N   UNL     1       3.854   5.434  19.885  0.00  0.00    +0.000 N 
ATOM     18  H   UNL     1       2.651   5.066  16.155  0.00  0.00    +0.000 HD
ATOM     19  H   UNL     1       4.334   5.614  20.761  0.00  0.00    +0.000 HD
ENDROOT
TORSDOF 0
ENDMDL
MODEL 8
REMARK VINA RESULT:      -7.0      2.744      3.151
REMARK  Name = 
REMARK  1 active torsions:
REMARK  status: ('A' for Active; 'I' for Inactive)
REMARK    1  A    between atoms: C_1  and  C_2
REMARK                            x       y       z     vdW  Elec       q    Type
REMARK                         _______ _______ _______ _____ _____    ______ ____
ROOT
ATOM      1  C   UNL     1       8.114   5.595  13.041  0.00  0.00    +0.000 C 
ATOM      2  C   UNL     1       7.241   4.888  14.035  0.00  0.00    +0.000 A 
ATOM      3  C   UNL     1       6.088   4.209  13.644  0.00  0.00    +0.000 A 
ATOM      4  C   UNL     1       5.265   3.614  14.604  0.00  0.00    +0.000 A 
ATOM      5  C   UNL     1       5.542   3.736  15.976  0.00  0.00    +0.000 A 
ATOM      6  C   UNL     1       6.683   4.445  16.364  0.00  0.00    +0.000 A 
ATOM      7  C   UNL     1       7.556   4.958  15.395  0.00  0.00    +0.000 A 
ATOM      8  N   UNL     1       7.024   4.721  17.694  0.00  0.00    +0.000 N 
ATOM      9  C   UNL     1       6.206   4.973  18.763  0.00  0.00    +0.000 C 
ATOM     10  O   UNL     1       6.726   5.476  19.764  0.00  0.00    +0.000 OA
ATOM     11  C   UNL     1       4.746   4.760  18.759  0.00  0.00    +0.000 A 
ATOM     12  C   UNL     1       3.991   5.482  19.697  0.00  0.00    +0.000 A 
ATOM     13  C   UNL     1       2.628   5.241  19.830  0.00  0.00    +0.000 A 
ATOM     14  C   UNL     1       2.064   4.273  19.026  0.00  0.00    +0.000 A 
ATOM     15  N   UNL     1       2.756   3.579  18.098  0.00  0.00    +0.000 NA
ATOM     16  C   UNL     1       4.080   3.845  17.953  0.00  0.00    +0.000 A 
ATOM     17  N   UNL     1       4.664   3.146  16.900  0.00  0.00    +0.000 N 
ATOM     18  H   UNL     1       7.961   5.066  17.868  0.00  0.00    +0.000 HD
ATOM     19  H   UNL     1       3.915   2.610  16.473  0.00  0.00    +0.000 HD
ENDROOT
TORSDOF 0
ENDMDL
MODEL 9
REMARK VINA RESULT:      -6.8      1.747      1.890
REMARK  Name = 
REMARK  1 active torsions:
REMARK  status: ('A' for Active; 'I' for Inactive)
REMARK    1  A    between atoms: C_1  and  C_2
REMARK                            x       y       z     vdW  Elec       q    Type
REMARK                         _______ _______ _______ _____ _____    ______ ____
ROOT
ATOM      1  C   UNL     1       7.596   5.157  14.907  0.00  0.00    +0.000 C 
ATOM      2  C   UNL     1       6.285   5.147  15.635  0.00  0.00    +0.000 A 
ATOM      3  C   UNL     1       5.667   6.327  16.045  0.00  0.00    +0.000 A 
ATOM      4  C   UNL     1       4.476   6.278  16.776  0.00  0.00    +0.000 A 
ATOM      5  C   UNL     1       3.911   5.051  17.164  0.00  0.00    +0.000 A 
ATOM      6  C   UNL     1       4.552   3.870  16.776  0.00  0.00    +0.000 A 
ATOM      7  C   UNL     1       5.692   3.924  15.962  0.00  0.00    +0.000 A 
ATOM      8  N   UNL     1       4.150   2.589  17.171  0.00  0.00    +0.000 N 
ATOM      9  C   UNL     1       3.590   2.184  18.354  0.00  0.00    +0.000 C 
ATOM     10  O   UNL     1       3.590   0.972  18.591  0.00  0.00    +0.000 OA
ATOM     11  C   UNL     1       3.072   3.104  19.385  0.00  0.00    +0.000 A 
ATOM     12  C   UNL     1       2.980   2.610  20.696  0.00  0.00    +0.000 A 
ATOM     13  C   UNL     1       2.389   3.380  21.692  0.00  0.00    +0.000 A 
ATOM     14  C   UNL     1       1.896   4.618  21.341  0.00  0.00    +0.000 A 
ATOM     15  N   UNL     1       1.991   5.133  20.096  0.00  0.00    +0.000 NA
ATOM     16  C   UNL     1       2.599   4.387  19.138  0.00  0.00    +0.000 A 
ATOM     17  N   UNL     1       2.731   5.059  17.926  0.00  0.00    +0.000 N 
ATOM     18  H   UNL     1       4.560   1.803  16.680  0.00  0.00    +0.000 HD
ATOM     19  H   UNL     1       2.345   5.985  18.078  0.00  0.00    +0.000 HD
ENDROOT
TORSDOF 0
ENDMDL
