MODEL 1
REMARK VINA RESULT:      -8.0      0.000      0.000
REMARK  Name = 
REMARK  5 active torsions:
REMARK  status: ('A' for Active; 'I' for Inactive)
REMARK    1  A    between atoms: C_1  and  C_2
REMARK    2  A    between atoms: C_2  and  C_3
REMARK    3  A    between atoms: C_7  and  N_8
REMARK    4  A    between atoms: C_13  and  N_14
REMARK    5  A    between atoms: C_21  and  O_22
REMARK                            x       y       z     vdW  Elec       q    Type
REMARK                         _______ _______ _______ _____ _____    ______ ____
ROOT
ATOM      1  C   UNL     1       4.218   2.350  20.289  0.00  0.00    +0.000 C 
ATOM      2  C   UNL     1       3.401   2.959  19.136  0.00  0.00    +0.000 C 
ATOM      3  C   UNL     1       2.279   1.971  18.774  0.00  0.00    +0.000 C 
ATOM      4  C   UNL     1       2.829   4.312  19.519  0.00  0.00    +0.000 A 
ATOM      5  C   UNL     1       1.949   4.608  20.556  0.00  0.00    +0.000 A 
ATOM      6  C   UNL     1       1.565   5.939  20.770  0.00  0.00    +0.000 A 
ATOM      7  C   UNL     1       2.055   6.960  19.932  0.00  0.00    +0.000 A 
ATOM      8  C   UNL     1       2.930   6.664  18.885  0.00  0.00    +0.000 A 
ATOM      9  C   UNL     1       3.318   5.338  18.707  0.00  0.00    +0.000 A 
ATOM     10  C   UNL     1       4.344   4.856  17.717  0.00  0.00    +0.000 C 
ATOM     11  C   UNL     1       4.342   3.305  17.921  0.00  0.00    +0.000 C 
ENDROOT
BRANCH  10  12
ATOM     12  N   UNL     1       5.642   5.518  17.928  0.00  0.00    +0.000 N 
ATOM     13  C   UNL     1       6.403   5.246  19.057  0.00  0.00    +0.000 A 
ATOM     14  C   UNL     1       7.532   5.909  19.324  0.00  0.00    +0.000 A 
ATOM     15  C   UNL     1       7.988   6.936  18.429  0.00  0.00    +0.000 A 
ATOM     16  C   UNL     1       7.281   7.244  17.338  0.00  0.00    +0.000 A 
ATOM     17  C   UNL     1       6.011   6.528  17.032  0.00  0.00    +0.000 A 
ATOM     18  O   UNL     1       5.357   6.867  16.050  0.00  0.00    +0.000 OA
ENDBRANCH  10  12
BRANCH   7  19
ATOM     19  N   UNL     1       1.673   8.356  20.178  0.00  0.00    +0.000 N 
ATOM     20  O   UNL     1       1.540   9.099  19.194  0.00  0.00    +0.000 OA
ATOM     21  O   UNL     1       1.495   8.710  21.352  0.00  0.00    +0.000 OA
ENDBRANCH   7  19
BRANCH  11  22
ATOM     22  O   UNL     1       3.921   2.642  16.717  0.00  0.00    +0.000 OA
ATOM     23  H   UNL     1       4.411   3.019  15.965  0.00  0.00    +0.000 HD
ENDBRANCH  11  22
TORSDOF 3
ENDMDL
MODEL 2
REMARK VINA RESULT:      -7.7      1.920      5.047
REMARK  Name = 
REMARK  5 active torsions:
REMARK  status: ('A' for Active; 'I' for Inactive)
REMARK    1  A    between atoms: C_1  and  C_2
REMARK    2  A    between atoms: C_2  and  C_3
REMARK    3  A    between atoms: C_7  and  N_8
REMARK    4  A    between atoms: C_13  and  N_14
REMARK    5  A    between atoms: C_21  and  O_22
REMARK                            x       y       z     vdW  Elec       q    Type
REMARK                         _______ _______ _______ _____ _____    ______ ____
ROOT
ATOM      1  C   UNL     1       1.153   3.404  18.102  0.00  0.00    +0.000 C 
ATOM      2  C   UNL     1       2.343   3.640  19.049  0.00  0.00    +0.000 C 
ATOM      3  C   UNL     1       2.663   2.310  19.753  0.00  0.00    +0.000 C 
ATOM      4  C   UNL     1       3.553   4.159  18.296  0.00  0.00    +0.000 A 
ATOM      5  C   UNL     1       4.250   3.540  17.261  0.00  0.00    +0.000 A 
ATOM      6  C   UNL     1       5.329   4.208  16.666  0.00  0.00    +0.000 A 
ATOM      7  C   UNL     1       5.709   5.484  17.123  0.00  0.00    +0.000 A 
ATOM      8  C   UNL     1       5.019   6.104  18.167  0.00  0.00    +0.000 A 
ATOM      9  C   UNL     1       3.934   5.432  18.727  0.00  0.00    +0.000 A 
ATOM     10  C   UNL     1       3.003   5.996  19.766  0.00  0.00    +0.000 C 
ATOM     11  C   UNL     1       2.021   4.812  20.051  0.00  0.00    +0.000 C 
ENDROOT
BRANCH  10  12
ATOM     12  N   UNL     1       2.371   7.241  19.299  0.00  0.00    +0.000 N 
ATOM     13  C   UNL     1       2.608   7.718  18.017  0.00  0.00    +0.000 A 
ATOM     14  C   UNL     1       2.131   8.897  17.603  0.00  0.00    +0.000 A 
ATOM     15  C   UNL     1       1.351   9.707  18.497  0.00  0.00    +0.000 A 
ATOM     16  C   UNL     1       1.111   9.296  19.746  0.00  0.00    +0.000 A 
ATOM     17  C   UNL     1       1.647   7.994  20.230  0.00  0.00    +0.000 A 
ATOM     18  O   UNL     1       1.453   7.666  21.398  0.00  0.00    +0.000 OA
ENDBRANCH  10  12
BRANCH   7  19
ATOM     19  N   UNL     1       6.822   6.193  16.476  0.00  0.00    +0.000 N 
ATOM     20  O   UNL     1       7.426   5.608  15.565  0.00  0.00    +0.000 OA
ATOM     21  O   UNL     1       7.087   7.337  16.871  0.00  0.00    +0.000 OA
ENDBRANCH   7  19
BRANCH  11  22
ATOM     22  O   UNL     1       2.133   4.387  21.420  0.00  0.00    +0.000 OA
ATOM     23  H   UNL     1       1.754   5.077  21.993  0.00  0.00    +0.000 HD
ENDBRANCH  11  22
TORSDOF 3
ENDMDL
MODEL 3
REMARK VINA RESULT:      -7.6      1.454      1.655
REMARK  Name = 
REMARK  5 active torsions:
REMARK  status: ('A' for Active; 'I' for Inactive)
REMARK    1  A    between atoms: C_1  and  C_2
REMARK    2  A    between atoms: C_2  and  C_3
REMARK    3  A    between atoms: C_7  and  N_8
REMARK    4  A    between atoms: C_13  and  N_14
REMARK    5  A    between atoms: C_21  and  O_22
REMARK                            x       y       z     vdW  Elec       q    Type
REMARK                         _______ _______ _______ _____ _____    ______ ____
ROOT
ATOM      1  C   UNL     1       3.076   2.806  21.199  0.00  0.00    +0.000 C 
ATOM      2  C   UNL     1       2.311   3.108  19.898  0.00  0.00    +0.000 C 
ATOM      3  C   UNL     1       0.950   2.394  19.969  0.00  0.00    +0.000 C 
ATOM      4  C   UNL     1       2.129   4.602  19.698  0.00  0.00    +0.000 A 
ATOM      5  C   UNL     1       1.465   5.503  20.527  0.00  0.00    +0.000 A 
ATOM      6  C   UNL     1       1.441   6.861  20.181  0.00  0.00    +0.000 A 
ATOM      7  C   UNL     1       2.070   7.302  19.001  0.00  0.00    +0.000 A 
ATOM      8  C   UNL     1       2.728   6.398  18.163  0.00  0.00    +0.000 A 
ATOM      9  C   UNL     1       2.762   5.057  18.539  0.00  0.00    +0.000 A 
ATOM     10  C   UNL     1       3.526   3.972  17.830  0.00  0.00    +0.000 C 
ATOM     11  C   UNL     1       3.171   2.687  18.647  0.00  0.00    +0.000 C 
ENDROOT
BRANCH  10  12
ATOM     12  N   UNL     1       4.961   4.294  17.753  0.00  0.00    +0.000 N 
ATOM     13  C   UNL     1       5.662   4.688  18.885  0.00  0.00    +0.000 A 
ATOM     14  C   UNL     1       6.937   5.084  18.823  0.00  0.00    +0.000 A 
ATOM     15  C   UNL     1       7.618   5.111  17.559  0.00  0.00    +0.000 A 
ATOM     16  C   UNL     1       6.979   4.756  16.440  0.00  0.00    +0.000 A 
ATOM     17  C   UNL     1       5.554   4.327  16.485  0.00  0.00    +0.000 A 
ATOM     18  O   UNL     1       4.979   4.055  15.435  0.00  0.00    +0.000 OA
ENDBRANCH  10  12
BRANCH   7  19
ATOM     19  N   UNL     1       2.067   8.730  18.658  0.00  0.00    +0.000 N 
ATOM     20  O   UNL     1       2.667   9.077  17.629  0.00  0.00    +0.000 OA
ATOM     21  O   UNL     1       1.459   9.505  19.409  0.00  0.00    +0.000 OA
ENDBRANCH   7  19
BRANCH  11  22
ATOM     22  O   UNL     1       2.473   1.743  17.816  0.00  0.00    +0.000 OA
ATOM     23  H   UNL     1       2.082   1.057  18.385  0.00  0.00    +0.000 HD
ENDBRANCH  11  22
TORSDOF 3
ENDMDL
MODEL 4
REMARK VINA RESULT:      -7.5      2.030      4.661
REMARK  Name = 
REMARK  5 active torsions:
REMARK  status: ('A' for Active; 'I' for Inactive)
REMARK    1  A    between atoms: C_1  and  C_2
REMARK    2  A    between atoms: C_2  and  C_3
REMARK    3  A    between atoms: C_7  and  N_8
REMARK    4  A    between atoms: C_13  and  N_14
REMARK    5  A    between atoms: C_21  and  O_22
REMARK                            x       y       z     vdW  Elec       q    Type
REMARK                         _______ _______ _______ _____ _____    ______ ____
ROOT
ATOM      1  C   UNL     1       5.032   5.042  16.068  0.00  0.00    +0.000 C 
ATOM      2  C   UNL     1       5.305   5.667  17.448  0.00  0.00    +0.000 C 
ATOM      3  C   UNL     1       6.683   6.349  17.398  0.00  0.00    +0.000 C 
ATOM      4  C   UNL     1       4.223   6.660  17.828  0.00  0.00    +0.000 A 
ATOM      5  C   UNL     1       3.855   7.824  17.159  0.00  0.00    +0.000 A 
ATOM      6  C   UNL     1       2.794   8.594  17.656  0.00  0.00    +0.000 A 
ATOM      7  C   UNL     1       2.122   8.198  18.829  0.00  0.00    +0.000 A 
ATOM      8  C   UNL     1       2.496   7.036  19.508  0.00  0.00    +0.000 A 
ATOM      9  C   UNL     1       3.536   6.273  18.981  0.00  0.00    +0.000 A 
ATOM     10  C   UNL     1       3.987   4.936  19.504  0.00  0.00    +0.000 C 
ATOM     11  C   UNL     1       5.192   4.573  18.576  0.00  0.00    +0.000 C 
ENDROOT
BRANCH  10  12
ATOM     12  N   UNL     1       2.881   3.965  19.510  0.00  0.00    +0.000 N 
ATOM     13  C   UNL     1       2.447   3.375  18.331  0.00  0.00    +0.000 A 
ATOM     14  C   UNL     1       1.381   2.570  18.294  0.00  0.00    +0.000 A 
ATOM     15  C   UNL     1       0.648   2.298  19.499  0.00  0.00    +0.000 A 
ATOM     16  C   UNL     1       1.018   2.856  20.655  0.00  0.00    +0.000 A 
ATOM     17  C   UNL     1       2.194   3.768  20.714  0.00  0.00    +0.000 A 
ATOM     18  O   UNL     1       2.479   4.305  21.780  0.00  0.00    +0.000 OA
ENDBRANCH  10  12
BRANCH   7  19
ATOM     19  N   UNL     1       0.993   8.992  19.330  0.00  0.00    +0.000 N 
ATOM     20  O   UNL     1       0.375   9.694  18.516  0.00  0.00    +0.000 OA
ATOM     21  O   UNL     1       0.715   8.908  20.535  0.00  0.00    +0.000 OA
ENDBRANCH   7  19
BRANCH  11  22
ATOM     22  O   UNL     1       6.404   4.475  19.344  0.00  0.00    +0.000 OA
ATOM     23  H   UNL     1       6.301   4.999  20.158  0.00  0.00    +0.000 HD
ENDBRANCH  11  22
TORSDOF 3
ENDMDL
MODEL 5
REMARK VINA RESULT:      -7.2      1.310      1.719
REMARK  Name = 
REMARK  5 active torsions:
REMARK  status: ('A' for Active; 'I' for Inactive)
REMARK    1  A    between atoms: C_1  and  C_2
REMARK    2  A    between atoms: C_2  and  C_3
REMARK    3  A    between atoms: C_7  and  N_8
REMARK    4  A    between atoms: C_13  and  N_14
REMARK    5  A    between atoms: C_21  and  O_22
REMARK                            x       y       z     vdW  Elec       q    Type
REMARK                         _______ _______ _______ _____ _____    ______ ____
ROOT
ATOM      1  C   UNL     1       2.869   3.914  21.434  0.00  0.00    +0.000 C 
ATOM      2  C   UNL     1       2.195   4.170  20.075  0.00  0.00    +0.000 C 
ATOM      3  C   UNL     1       0.854   3.416  20.058  0.00  0.00    +0.000 C 
ATOM      4  C   UNL     1       1.986   5.653  19.832  0.00  0.00    +0.000 A 
ATOM      5  C   UNL     1       1.236   6.548  20.590  0.00  0.00    +0.000 A 
ATOM      6  C   UNL     1       1.199   7.899  20.216  0.00  0.00    +0.000 A 
ATOM      7  C   UNL     1       1.901   8.337  19.078  0.00  0.00    +0.000 A 
ATOM      8  C   UNL     1       2.646   7.439  18.310  0.00  0.00    +0.000 A 
ATOM      9  C   UNL     1       2.690   6.107  18.714  0.00  0.00    +0.000 A 
ATOM     10  C   UNL     1       3.536   5.033  18.086  0.00  0.00    +0.000 C 
ATOM     11  C   UNL     1       3.158   3.752  18.899  0.00  0.00    +0.000 C 
ENDROOT
BRANCH  10  12
ATOM     12  N   UNL     1       4.963   5.397  18.109  0.00  0.00    +0.000 N 
ATOM     13  C   UNL     1       5.720   5.229  19.261  0.00  0.00    +0.000 A 
ATOM     14  C   UNL     1       6.987   5.646  19.340  0.00  0.00    +0.000 A 
ATOM     15  C   UNL     1       7.601   6.289  18.211  0.00  0.00    +0.000 A 
ATOM     16  C   UNL     1       6.907   6.487  17.087  0.00  0.00    +0.000 A 
ATOM     17  C   UNL     1       5.488   6.044  16.984  0.00  0.00    +0.000 A 
ATOM     18  O   UNL     1       4.861   6.284  15.957  0.00  0.00    +0.000 OA
ENDBRANCH  10  12
BRANCH   7  19
ATOM     19  N   UNL     1       1.883   9.758  18.707  0.00  0.00    +0.000 N 
ATOM     20  O   UNL     1       1.437  10.565  19.537  0.00  0.00    +0.000 OA
ATOM     21  O   UNL     1       2.322  10.071  17.591  0.00  0.00    +0.000 OA
ENDBRANCH   7  19
BRANCH  11  22
ATOM     22  O   UNL     1       2.552   2.773  18.038  0.00  0.00    +0.000 OA
ATOM     23  H   UNL     1       2.469   3.151  17.145  0.00  0.00    +0.000 HD
ENDBRANCH  11  22
TORSDOF 3
ENDMDL
MODEL 6
REMARK VINA RESULT:      -6.9      2.830      6.547
REMARK  Name = 
REMARK  5 active torsions:
REMARK  status: ('A' for Active; 'I' for Inactive)
REMARK    1  A    between atoms: C_1  and  C_2
REMARK    2  A    between atoms: C_2  and  C_3
REMARK    3  A    between atoms: C_7  and  N_8
REMARK    4  A    between atoms: C_13  and  N_14
REMARK    5  A    between atoms: C_21  and  O_22
REMARK                            x       y       z     vdW  Elec       q    Type
REMARK                         _______ _______ _______ _____ _____    ______ ____
ROOT
ATOM      1  C   UNL     1       7.535   5.378  18.498  0.00  0.00    +0.000 C 
ATOM      2  C   UNL     1       6.685   6.192  17.507  0.00  0.00    +0.000 C 
ATOM      3  C   UNL     1       7.328   7.581  17.355  0.00  0.00    +0.000 C 
ATOM      4  C   UNL     1       6.581   5.493  16.165  0.00  0.00    +0.000 A 
ATOM      5  C   UNL     1       7.613   5.149  15.296  0.00  0.00    +0.000 A 
ATOM      6  C   UNL     1       7.310   4.466  14.109  0.00  0.00    +0.000 A 
ATOM      7  C   UNL     1       5.975   4.148  13.797  0.00  0.00    +0.000 A 
ATOM      8  C   UNL     1       4.937   4.501  14.662  0.00  0.00    +0.000 A 
ATOM      9  C   UNL     1       5.263   5.156  15.848  0.00  0.00    +0.000 A 
ATOM     10  C   UNL     1       4.296   5.498  16.949  0.00  0.00    +0.000 C 
ATOM     11  C   UNL     1       5.186   6.250  17.991  0.00  0.00    +0.000 C 
ENDROOT
BRANCH  10  12
ATOM     12  N   UNL     1       3.614   4.294  17.453  0.00  0.00    +0.000 N 
ATOM     13  C   UNL     1       4.266   3.069  17.482  0.00  0.00    +0.000 A 
ATOM     14  C   UNL     1       3.639   1.943  17.837  0.00  0.00    +0.000 A 
ATOM     15  C   UNL     1       2.250   1.982  18.201  0.00  0.00    +0.000 A 
ATOM     16  C   UNL     1       1.577   3.136  18.174  0.00  0.00    +0.000 A 
ATOM     17  C   UNL     1       2.254   4.398  17.765  0.00  0.00    +0.000 A 
ATOM     18  O   UNL     1       1.597   5.434  17.701  0.00  0.00    +0.000 OA
ENDBRANCH  10  12
BRANCH   7  19
ATOM     19  N   UNL     1       5.665   3.408  12.567  0.00  0.00    +0.000 N 
ATOM     20  O   UNL     1       4.503   3.462  12.138  0.00  0.00    +0.000 OA
ATOM     21  O   UNL     1       6.584   2.779  12.023  0.00  0.00    +0.000 OA
ENDBRANCH   7  19
BRANCH  11  22
ATOM     22  O   UNL     1       4.732   7.605  18.152  0.00  0.00    +0.000 OA
ATOM     23  H   UNL     1       5.191   8.167  17.504  0.00  0.00    +0.000 HD
ENDBRANCH  11  22
TORSDOF 3
ENDMDL
MODEL 7
REMARK VINA RESULT:      -6.8      3.268      5.521
REMARK  Name = 
REMARK  5 active torsions:
REMARK  status: ('A' for Active; 'I' for Inactive)
REMARK    1  A    between atoms: C_1  and  C_2
REMARK    2  A    between atoms: C_2  and  C_3
REMARK    3  A    between atoms: C_7  and  N_8
REMARK    4  A    between atoms: C_13  and  N_14
REMARK    5  A    between atoms: C_21  and  O_22
REMARK                            x       y       z     vdW  Elec       q    Type
REMARK                         _______ _______ _______ _____ _____    ______ ____
ROOT
ATOM      1  C   UNL     1       3.019   5.024  17.637  0.00  0.00    +0.000 C 
ATOM      2  C   UNL     1       4.139   3.976  17.514  0.00  0.00    +0.000 C 
ATOM      3  C   UNL     1       3.504   2.582  17.660  0.00  0.00    +0.000 C 
ATOM      4  C   UNL     1       4.870   4.101  16.191  0.00  0.00    +0.000 A 
ATOM      5  C   UNL     1       4.347   3.976  14.907  0.00  0.00    +0.000 A 
ATOM      6  C   UNL     1       5.189   4.168  13.802  0.00  0.00    +0.000 A 
ATOM      7  C   UNL     1       6.551   4.467  13.994  0.00  0.00    +0.000 A 
ATOM      8  C   UNL     1       7.081   4.584  15.282  0.00  0.00    +0.000 A 
ATOM      9  C   UNL     1       6.220   4.415  16.364  0.00  0.00    +0.000 A 
ATOM     10  C   UNL     1       6.586   4.627  17.809  0.00  0.00    +0.000 C 
ATOM     11  C   UNL     1       5.272   4.258  18.572  0.00  0.00    +0.000 C 
ENDROOT
BRANCH  10  12
ATOM     12  N   UNL     1       7.087   5.993  18.038  0.00  0.00    +0.000 N 
ATOM     13  C   UNL     1       6.726   7.032  17.191  0.00  0.00    +0.000 A 
ATOM     14  C   UNL     1       7.247   8.257  17.315  0.00  0.00    +0.000 A 
ATOM     15  C   UNL     1       8.209   8.524  18.347  0.00  0.00    +0.000 A 
ATOM     16  C   UNL     1       8.599   7.551  19.176  0.00  0.00    +0.000 A 
ATOM     17  C   UNL     1       8.042   6.176  19.044  0.00  0.00    +0.000 A 
ATOM     18  O   UNL     1       8.457   5.291  19.787  0.00  0.00    +0.000 OA
ENDBRANCH  10  12
BRANCH   7  19
ATOM     19  N   UNL     1       7.422   4.696  12.835  0.00  0.00    +0.000 N 
ATOM     20  O   UNL     1       7.287   3.946  11.855  0.00  0.00    +0.000 OA
ATOM     21  O   UNL     1       8.236   5.628  12.896  0.00  0.00    +0.000 OA
ENDBRANCH   7  19
BRANCH  11  22
ATOM     22  O   UNL     1       5.492   3.125  19.430  0.00  0.00    +0.000 OA
ATOM     23  H   UNL     1       5.828   3.443  20.286  0.00  0.00    +0.000 HD
ENDBRANCH  11  22
TORSDOF 3
ENDMDL
MODEL 8
REMARK VINA RESULT:      -6.8      1.690      2.149
REMARK  Name = 
REMARK  5 active torsions:
REMARK  status: ('A' for Active; 'I' for Inactive)
REMARK    1  A    between atoms: C_1  and  C_2
REMARK    2  A    between atoms: C_2  and  C_3
REMARK    3  A    between atoms: C_7  and  N_8
REMARK    4  A    between atoms: C_13  and  N_14
REMARK    5  A    between atoms: C_21  and  O_22
REMARK                            x       y       z     vdW  Elec       q    Type
REMARK                         _______ _______ _______ _____ _____    ______ ____
ROOT
ATOM      1  C   UNL     1       3.541   2.737  20.879  0.00  0.00    +0.000 C 
ATOM      2  C   UNL     1       2.533   3.039  19.757  0.00  0.00    +0.000 C 
ATOM      3  C   UNL     1       1.216   2.319  20.093  0.00  0.00    +0.000 C 
ATOM      4  C   UNL     1       2.310   4.531  19.601  0.00  0.00    +0.000 A 
ATOM      5  C   UNL     1       1.820   5.428  20.547  0.00  0.00    +0.000 A 
ATOM      6  C   UNL     1       1.724   6.787  20.217  0.00  0.00    +0.000 A 
ATOM      7  C   UNL     1       2.105   7.233  18.937  0.00  0.00    +0.000 A 
ATOM      8  C   UNL     1       2.587   6.334  17.983  0.00  0.00    +0.000 A 
ATOM      9  C   UNL     1       2.699   4.992  18.341  0.00  0.00    +0.000 A 
ATOM     10  C   UNL     1       3.312   3.912  17.491  0.00  0.00    +0.000 C 
ATOM     11  C   UNL     1       3.129   2.623  18.358  0.00  0.00    +0.000 C 
ENDROOT
BRANCH  10  12
ATOM     12  N   UNL     1       4.702   4.239  17.132  0.00  0.00    +0.000 N 
ATOM     13  C   UNL     1       5.142   4.124  15.821  0.00  0.00    +0.000 A 
ATOM     14  C   UNL     1       6.422   4.315  15.487  0.00  0.00    +0.000 A 
ATOM     15  C   UNL     1       7.385   4.648  16.499  0.00  0.00    +0.000 A 
ATOM     16  C   UNL     1       7.010   4.754  17.778  0.00  0.00    +0.000 A 
ATOM     17  C   UNL     1       5.592   4.530  18.173  0.00  0.00    +0.000 A 
ATOM     18  O   UNL     1       5.288   4.584  19.361  0.00  0.00    +0.000 OA
ENDBRANCH  10  12
BRANCH   7  19
ATOM     19  N   UNL     1       2.030   8.662  18.605  0.00  0.00    +0.000 N 
ATOM     20  O   UNL     1       2.484   9.024  17.509  0.00  0.00    +0.000 OA
ATOM     21  O   UNL     1       1.509   9.422  19.434  0.00  0.00    +0.000 OA
ENDBRANCH   7  19
BRANCH  11  22
ATOM     22  O   UNL     1       2.284   1.679  17.679  0.00  0.00    +0.000 OA
ATOM     23  H   UNL     1       2.404   1.786  16.720  0.00  0.00    +0.000 HD
ENDBRANCH  11  22
TORSDOF 3
ENDMDL
MODEL 9
REMARK VINA RESULT:      -6.6      2.345      4.755
REMARK  Name = 
REMARK  5 active torsions:
REMARK  status: ('A' for Active; 'I' for Inactive)
REMARK    1  A    between atoms: C_1  and  C_2
REMARK    2  A    between atoms: C_2  and  C_3
REMARK    3  A    between atoms: C_7  and  N_8
REMARK    4  A    between atoms: C_13  and  N_14
REMARK    5  A    between atoms: C_21  and  O_22
REMARK                            x       y       z     vdW  Elec       q    Type
REMARK                         _______ _______ _______ _____ _____    ______ ____
ROOT
ATOM      1  C   UNL     1       6.394   5.615  19.265  0.00  0.00    +0.000 C 
ATOM      2  C   UNL     1       5.555   5.354  18.002  0.00  0.00    +0.000 C 
ATOM      3  C   UNL     1       6.476   4.736  16.937  0.00  0.00    +0.000 C 
ATOM      4  C   UNL     1       4.381   4.439  18.299  0.00  0.00    +0.000 A 
ATOM      5  C   UNL     1       4.412   3.134  18.783  0.00  0.00    +0.000 A 
ATOM      6  C   UNL     1       3.204   2.466  19.029  0.00  0.00    +0.000 A 
ATOM      7  C   UNL     1       1.976   3.106  18.772  0.00  0.00    +0.000 A 
ATOM      8  C   UNL     1       1.943   4.412  18.277  0.00  0.00    +0.000 A 
ATOM      9  C   UNL     1       3.154   5.066  18.065  0.00  0.00    +0.000 A 
ATOM     10  C   UNL     1       3.307   6.507  17.658  0.00  0.00    +0.000 C 
ATOM     11  C   UNL     1       4.855   6.683  17.525  0.00  0.00    +0.000 C 
ENDROOT
BRANCH  10  12
ATOM     12  N   UNL     1       2.650   7.406  18.622  0.00  0.00    +0.000 N 
ATOM     13  C   UNL     1       2.378   6.983  19.916  0.00  0.00    +0.000 A 
ATOM     14  C   UNL     1       1.692   7.741  20.776  0.00  0.00    +0.000 A 
ATOM     15  C   UNL     1       1.213   9.032  20.369  0.00  0.00    +0.000 A 
ATOM     16  C   UNL     1       1.437   9.475  19.129  0.00  0.00    +0.000 A 
ATOM     17  C   UNL     1       2.185   8.639  18.149  0.00  0.00    +0.000 A 
ATOM     18  O   UNL     1       2.332   9.051  17.002  0.00  0.00    +0.000 OA
ENDBRANCH  10  12
BRANCH   7  19
ATOM     19  N   UNL     1       0.714   2.413  19.059  0.00  0.00    +0.000 N 
ATOM     20  O   UNL     1       0.243   2.521  20.202  0.00  0.00    +0.000 OA
ATOM     21  O   UNL     1       0.185   1.769  18.141  0.00  0.00    +0.000 OA
ENDBRANCH   7  19
BRANCH  11  22
ATOM     22  O   UNL     1       5.208   7.012  16.171  0.00  0.00    +0.000 OA
ATOM     23  H   UNL     1       4.595   7.695  15.846  0.00  0.00    +0.000 HD
ENDBRANCH  11  22
TORSDOF 3
ENDMDL
