MODEL 1
REMARK VINA RESULT:      -7.7      0.000      0.000
REMARK  Name = 
REMARK  14 active torsions:
REMARK  status: ('A' for Active; 'I' for Inactive)
REMARK    1  A    between atoms: C_1  and  C_2
REMARK    2  A    between atoms: C_2  and  N_3
REMARK    3  A    between atoms: C_2  and  C_4
REMARK    4  A    between atoms: N_6  and  C_7
REMARK    5  A    between atoms: C_7  and  C_8
REMARK    6  A    between atoms: C_7  and  C_16
REMARK    7  A    between atoms: C_8  and  C_9
REMARK    8  A    between atoms: C_9  and  C_10
REMARK    9  A    between atoms: N_18  and  C_19
REMARK   10  A    between atoms: C_19  and  C_20
REMARK   11  A    between atoms: C_19  and  C_23
REMARK   12  A    between atoms: C_20  and  C_21
REMARK   13  A    between atoms: C_21  and  N_22
REMARK   14  A    between atoms: N_25  and  C_26
REMARK                            x       y       z     vdW  Elec       q    Type
REMARK                         _______ _______ _______ _____ _____    ______ ____
ROOT
ATOM      1  C   UNL     1       3.536   7.058  18.108  0.00  0.00    +0.000 C 
ATOM      2  O   UNL     1       3.285   8.139  17.580  0.00  0.00    +0.000 OA
ATOM      3  N   UNL     1       4.763   6.436  18.034  0.00  0.00    +0.000 N 
ATOM      4  H   UNL     1       4.883   5.522  18.466  0.00  0.00    +0.000 HD
ENDROOT
BRANCH   1   5
ATOM      5  C   UNL     1       2.452   6.274  18.867  0.00  0.00    +0.000 C 
BRANCH   5   8
ATOM      6  C   UNL     1       2.110   3.936  18.042  0.00  0.00    +0.000 C 
ATOM      7  O   UNL     1       1.122   4.226  17.374  0.00  0.00    +0.000 OA
ATOM      8  N   UNL     1       2.796   4.857  18.796  0.00  0.00    +0.000 N 
ATOM      9  H   UNL     1       3.609   4.519  19.313  0.00  0.00    +0.000 HD
BRANCH   6  11
ATOM     10  C   UNL     1       3.868   2.437  19.094  0.00  0.00    +0.000 C 
ATOM     11  C   UNL     1       2.665   2.493  18.159  0.00  0.00    +0.000 C 
BRANCH  11  12
ATOM     12  N   UNL     1       1.605   1.570  18.625  0.00  0.00    +0.000 NA
ATOM     13  H   UNL     1       0.817   1.624  17.975  0.00  0.00    +0.000 HD
ATOM     14  H   UNL     1       1.244   1.907  19.519  0.00  0.00    +0.000 HD
ENDBRANCH  11  12
ENDBRANCH   6  11
ENDBRANCH   5   8
BRANCH   5  15
ATOM     15  C   UNL     1       2.437   6.755  20.319  0.00  0.00    +0.000 C 
BRANCH  15  16
ATOM     16  C   UNL     1       1.016   6.924  20.862  0.00  0.00    +0.000 C 
BRANCH  16  17
ATOM     17  C   UNL     1       0.709   8.377  21.107  0.00  0.00    +0.000 A 
ATOM     18  C   UNL     1       0.079   8.773  22.296  0.00  0.00    +0.000 A 
ATOM     19  C   UNL     1      -0.245  10.109  22.499  0.00  0.00    +0.000 A 
ATOM     20  C   UNL     1       0.050  11.059  21.521  0.00  0.00    +0.000 A 
ATOM     21  C   UNL     1       0.674  10.668  20.336  0.00  0.00    +0.000 A 
ATOM     22  C   UNL     1       1.002   9.329  20.129  0.00  0.00    +0.000 A 
ENDBRANCH  16  17
ENDBRANCH  15  16
ENDBRANCH   5  15
ENDBRANCH   1   5
BRANCH   3  23
ATOM     23  C   UNL     1       5.958   6.950  17.339  0.00  0.00    +0.000 C 
BRANCH  23  24
ATOM     24  C   UNL     1       5.835   6.479  15.860  0.00  0.00    +0.000 C 
ATOM     25  O   UNL     1       4.996   7.013  15.128  0.00  0.00    +0.000 OA
ATOM     26  N   UNL     1       6.709   5.474  15.472  0.00  0.00    +0.000 N 
ATOM     27  H   UNL     1       7.294   5.049  16.181  0.00  0.00    +0.000 HD
BRANCH  26  28
ATOM     28  C   UNL     1       6.759   4.860  14.197  0.00  0.00    +0.000 A 
ATOM     29  C   UNL     1       7.672   5.222  13.204  0.00  0.00    +0.000 A 
ATOM     30  C   UNL     1       7.653   4.607  11.951  0.00  0.00    +0.000 A 
ATOM     31  C   UNL     1       6.713   3.614  11.673  0.00  0.00    +0.000 A 
ATOM     32  C   UNL     1       5.811   3.228  12.657  0.00  0.00    +0.000 A 
ATOM     33  C   UNL     1       5.839   3.837  13.918  0.00  0.00    +0.000 A 
ENDBRANCH  26  28
ENDBRANCH  23  24
BRANCH  23  34
ATOM     34  C   UNL     1       7.286   6.524  17.982  0.00  0.00    +0.000 C 
BRANCH  34  35
ATOM     35  C   UNL     1       7.134   5.273  18.847  0.00  0.00    +0.000 C 
BRANCH  35  36
ATOM     36  N   UNL     1       7.682   5.505  20.176  0.00  0.00    +0.000 NA
ATOM     37  H   UNL     1       7.505   6.460  20.475  0.00  0.00    +0.000 HD
ATOM     38  H   UNL     1       8.693   5.384  20.147  0.00  0.00    +0.000 HD
ENDBRANCH  35  36
ENDBRANCH  34  35
ENDBRANCH  23  34
ENDBRANCH   3  23
TORSDOF 13
ENDMDL
MODEL 2
REMARK VINA RESULT:      -7.7      1.237      1.572
REMARK  Name = 
REMARK  14 active torsions:
REMARK  status: ('A' for Active; 'I' for Inactive)
REMARK    1  A    between atoms: C_1  and  C_2
REMARK    2  A    between atoms: C_2  and  N_3
REMARK    3  A    between atoms: C_2  and  C_4
REMARK    4  A    between atoms: N_6  and  C_7
REMARK    5  A    between atoms: C_7  and  C_8
REMARK    6  A    between atoms: C_7  and  C_16
REMARK    7  A    between atoms: C_8  and  C_9
REMARK    8  A    between atoms: C_9  and  C_10
REMARK    9  A    between atoms: N_18  and  C_19
REMARK   10  A    between atoms: C_19  and  C_20
REMARK   11  A    between atoms: C_19  and  C_23
REMARK   12  A    between atoms: C_20  and  C_21
REMARK   13  A    between atoms: C_21  and  N_22
REMARK   14  A    between atoms: N_25  and  C_26
REMARK                            x       y       z     vdW  Elec       q    Type
REMARK                         _______ _______ _______ _____ _____    ______ ____
ROOT
ATOM      1  C   UNL     1       4.125   6.735  17.547  0.00  0.00    +0.000 C 
ATOM      2  O   UNL     1       3.933   7.412  16.540  0.00  0.00    +0.000 OA
ATOM      3  N   UNL     1       5.374   6.364  17.994  0.00  0.00    +0.000 N 
ATOM      4  H   UNL     1       5.450   5.770  18.818  0.00  0.00    +0.000 HD
ENDROOT
BRANCH   1   5
ATOM      5  C   UNL     1       2.948   6.193  18.375  0.00  0.00    +0.000 C 
BRANCH   5   8
ATOM      6  C   UNL     1       3.130   3.696  18.358  0.00  0.00    +0.000 C 
ATOM      7  O   UNL     1       2.529   3.576  17.294  0.00  0.00    +0.000 OA
ATOM      8  N   UNL     1       3.359   4.915  18.949  0.00  0.00    +0.000 N 
ATOM      9  H   UNL     1       3.872   4.912  19.832  0.00  0.00    +0.000 HD
BRANCH   6  11
ATOM     10  C   UNL     1       3.594   1.201  18.375  0.00  0.00    +0.000 C 
ATOM     11  C   UNL     1       3.646   2.491  19.186  0.00  0.00    +0.000 C 
BRANCH  11  12
ATOM     12  N   UNL     1       5.024   2.748  19.662  0.00  0.00    +0.000 NA
ATOM     13  H   UNL     1       5.675   2.215  19.079  0.00  0.00    +0.000 HD
ATOM     14  H   UNL     1       5.125   2.363  20.603  0.00  0.00    +0.000 HD
ENDBRANCH  11  12
ENDBRANCH   6  11
ENDBRANCH   5   8
BRANCH   5  15
ATOM     15  C   UNL     1       2.629   7.203  19.479  0.00  0.00    +0.000 C 
BRANCH  15  16
ATOM     16  C   UNL     1       1.788   8.377  18.968  0.00  0.00    +0.000 C 
BRANCH  16  17
ATOM     17  C   UNL     1       1.032   9.021  20.099  0.00  0.00    +0.000 A 
ATOM     18  C   UNL     1       0.179  10.106  19.848  0.00  0.00    +0.000 A 
ATOM     19  C   UNL     1      -0.482  10.729  20.900  0.00  0.00    +0.000 A 
ATOM     20  C   UNL     1      -0.296  10.281  22.208  0.00  0.00    +0.000 A 
ATOM     21  C   UNL     1       0.554   9.204  22.462  0.00  0.00    +0.000 A 
ATOM     22  C   UNL     1       1.217   8.575  21.409  0.00  0.00    +0.000 A 
ENDBRANCH  16  17
ENDBRANCH  15  16
ENDBRANCH   5  15
ENDBRANCH   1   5
BRANCH   3  23
ATOM     23  C   UNL     1       6.662   6.716  17.368  0.00  0.00    +0.000 C 
BRANCH  23  24
ATOM     24  C   UNL     1       6.940   5.615  16.302  0.00  0.00    +0.000 C 
ATOM     25  O   UNL     1       7.679   4.671  16.594  0.00  0.00    +0.000 OA
ATOM     26  N   UNL     1       6.309   5.788  15.078  0.00  0.00    +0.000 N 
ATOM     27  H   UNL     1       5.796   6.647  14.921  0.00  0.00    +0.000 HD
BRANCH  26  28
ATOM     28  C   UNL     1       6.439   4.944  13.948  0.00  0.00    +0.000 A 
ATOM     29  C   UNL     1       7.488   5.043  13.032  0.00  0.00    +0.000 A 
ATOM     30  C   UNL     1       7.547   4.208  11.914  0.00  0.00    +0.000 A 
ATOM     31  C   UNL     1       6.550   3.256  11.698  0.00  0.00    +0.000 A 
ATOM     32  C   UNL     1       5.510   3.132  12.611  0.00  0.00    +0.000 A 
ATOM     33  C   UNL     1       5.459   3.962  13.739  0.00  0.00    +0.000 A 
ENDBRANCH  26  28
ENDBRANCH  23  24
BRANCH  23  34
ATOM     34  C   UNL     1       7.820   6.873  18.365  0.00  0.00    +0.000 C 
BRANCH  34  35
ATOM     35  C   UNL     1       8.109   5.578  19.123  0.00  0.00    +0.000 C 
BRANCH  35  36
ATOM     36  N   UNL     1       7.028   5.281  20.052  0.00  0.00    +0.000 NA
ATOM     37  H   UNL     1       6.143   5.200  19.558  0.00  0.00    +0.000 HD
ATOM     38  H   UNL     1       6.932   6.051  20.711  0.00  0.00    +0.000 HD
ENDBRANCH  35  36
ENDBRANCH  34  35
ENDBRANCH  23  34
ENDBRANCH   3  23
TORSDOF 13
ENDMDL
MODEL 3
REMARK VINA RESULT:      -7.7      1.920      4.473
REMARK  Name = 
REMARK  14 active torsions:
REMARK  status: ('A' for Active; 'I' for Inactive)
REMARK    1  A    between atoms: C_1  and  C_2
REMARK    2  A    between atoms: C_2  and  N_3
REMARK    3  A    between atoms: C_2  and  C_4
REMARK    4  A    between atoms: N_6  and  C_7
REMARK    5  A    between atoms: C_7  and  C_8
REMARK    6  A    between atoms: C_7  and  C_16
REMARK    7  A    between atoms: C_8  and  C_9
REMARK    8  A    between atoms: C_9  and  C_10
REMARK    9  A    between atoms: N_18  and  C_19
REMARK   10  A    between atoms: C_19  and  C_20
REMARK   11  A    between atoms: C_19  and  C_23
REMARK   12  A    between atoms: C_20  and  C_21
REMARK   13  A    between atoms: C_21  and  N_22
REMARK   14  A    between atoms: N_25  and  C_26
REMARK                            x       y       z     vdW  Elec       q    Type
REMARK                         _______ _______ _______ _____ _____    ______ ____
ROOT
ATOM      1  C   UNL     1       4.297   6.624  17.765  0.00  0.00    +0.000 C 
ATOM      2  O   UNL     1       4.110   7.381  16.817  0.00  0.00    +0.000 OA
ATOM      3  N   UNL     1       5.541   6.178  18.156  0.00  0.00    +0.000 N 
ATOM      4  H   UNL     1       5.613   5.521  18.930  0.00  0.00    +0.000 HD
ENDROOT
BRANCH   1   5
ATOM      5  C   UNL     1       3.119   6.059  18.576  0.00  0.00    +0.000 C 
BRANCH   5   8
ATOM      6  C   UNL     1       1.761   7.205  20.339  0.00  0.00    +0.000 C 
ATOM      7  O   UNL     1       1.797   6.249  21.108  0.00  0.00    +0.000 OA
ATOM      8  N   UNL     1       2.358   7.188  19.101  0.00  0.00    +0.000 N 
ATOM      9  H   UNL     1       2.276   8.035  18.537  0.00  0.00    +0.000 HD
BRANCH   6  11
ATOM     10  C   UNL     1       1.336   9.046  22.034  0.00  0.00    +0.000 C 
ATOM     11  C   UNL     1       0.993   8.516  20.646  0.00  0.00    +0.000 C 
BRANCH  11  12
ATOM     12  N   UNL     1       1.285   9.538  19.615  0.00  0.00    +0.000 NA
ATOM     13  H   UNL     1       0.509   9.559  18.948  0.00  0.00    +0.000 HD
ATOM     14  H   UNL     1       2.099   9.239  19.077  0.00  0.00    +0.000 HD
ENDBRANCH  11  12
ENDBRANCH   6  11
ENDBRANCH   5   8
BRANCH   5  15
ATOM     15  C   UNL     1       2.253   5.211  17.642  0.00  0.00    +0.000 C 
BRANCH  15  16
ATOM     16  C   UNL     1       2.565   3.717  17.756  0.00  0.00    +0.000 C 
BRANCH  16  17
ATOM     17  C   UNL     1       2.364   3.237  19.169  0.00  0.00    +0.000 A 
ATOM     18  C   UNL     1       1.085   3.257  19.745  0.00  0.00    +0.000 A 
ATOM     19  C   UNL     1       0.911   2.858  21.064  0.00  0.00    +0.000 A 
ATOM     20  C   UNL     1       2.006   2.440  21.821  0.00  0.00    +0.000 A 
ATOM     21  C   UNL     1       3.279   2.421  21.253  0.00  0.00    +0.000 A 
ATOM     22  C   UNL     1       3.459   2.820  19.929  0.00  0.00    +0.000 A 
ENDBRANCH  16  17
ENDBRANCH  15  16
ENDBRANCH   5  15
ENDBRANCH   1   5
BRANCH   3  23
ATOM     23  C   UNL     1       6.828   6.534  17.529  0.00  0.00    +0.000 C 
BRANCH  23  24
ATOM     24  C   UNL     1       7.058   5.495  16.392  0.00  0.00    +0.000 C 
ATOM     25  O   UNL     1       7.855   4.570  16.577  0.00  0.00    +0.000 OA
ATOM     26  N   UNL     1       6.321   5.696  15.233  0.00  0.00    +0.000 N 
ATOM     27  H   UNL     1       5.764   6.539  15.161  0.00  0.00    +0.000 HD
BRANCH  26  28
ATOM     28  C   UNL     1       6.389   4.910  14.057  0.00  0.00    +0.000 A 
ATOM     29  C   UNL     1       5.453   3.925  13.736  0.00  0.00    +0.000 A 
ATOM     30  C   UNL     1       5.588   3.155  12.580  0.00  0.00    +0.000 A 
ATOM     31  C   UNL     1       6.670   3.362  11.723  0.00  0.00    +0.000 A 
ATOM     32  C   UNL     1       7.598   4.352  12.018  0.00  0.00    +0.000 A 
ATOM     33  C   UNL     1       7.454   5.134  13.172  0.00  0.00    +0.000 A 
ENDBRANCH  26  28
ENDBRANCH  23  24
BRANCH  23  34
ATOM     34  C   UNL     1       8.006   6.598  18.513  0.00  0.00    +0.000 C 
BRANCH  34  35
ATOM     35  C   UNL     1       8.199   5.283  19.268  0.00  0.00    +0.000 C 
BRANCH  35  36
ATOM     36  N   UNL     1       7.921   5.466  20.686  0.00  0.00    +0.000 NA
ATOM     37  H   UNL     1       7.470   6.362  20.850  0.00  0.00    +0.000 HD
ATOM     38  H   UNL     1       8.800   5.475  21.201  0.00  0.00    +0.000 HD
ENDBRANCH  35  36
ENDBRANCH  34  35
ENDBRANCH  23  34
ENDBRANCH   3  23
TORSDOF 13
ENDMDL
MODEL 4
REMARK VINA RESULT:      -7.6      3.059      8.281
REMARK  Name = 
REMARK  14 active torsions:
REMARK  status: ('A' for Active; 'I' for Inactive)
REMARK    1  A    between atoms: C_1  and  C_2
REMARK    2  A    between atoms: C_2  and  N_3
REMARK    3  A    between atoms: C_2  and  C_4
REMARK    4  A    between atoms: N_6  and  C_7
REMARK    5  A    between atoms: C_7  and  C_8
REMARK    6  A    between atoms: C_7  and  C_16
REMARK    7  A    between atoms: C_8  and  C_9
REMARK    8  A    between atoms: C_9  and  C_10
REMARK    9  A    between atoms: N_18  and  C_19
REMARK   10  A    between atoms: C_19  and  C_20
REMARK   11  A    between atoms: C_19  and  C_23
REMARK   12  A    between atoms: C_20  and  C_21
REMARK   13  A    between atoms: C_21  and  N_22
REMARK   14  A    between atoms: N_25  and  C_26
REMARK                            x       y       z     vdW  Elec       q    Type
REMARK                         _______ _______ _______ _____ _____    ______ ____
ROOT
ATOM      1  C   UNL     1       2.070   6.638  20.219  0.00  0.00    +0.000 C 
ATOM      2  O   UNL     1       1.430   5.925  20.986  0.00  0.00    +0.000 OA
ATOM      3  N   UNL     1       1.857   7.992  20.075  0.00  0.00    +0.000 N 
ATOM      4  H   UNL     1       2.403   8.511  19.390  0.00  0.00    +0.000 HD
ENDROOT
BRANCH   1   5
ATOM      5  C   UNL     1       3.149   6.047  19.297  0.00  0.00    +0.000 C 
BRANCH   5   8
ATOM      6  C   UNL     1       4.245   3.813  19.568  0.00  0.00    +0.000 C 
ATOM      7  O   UNL     1       5.383   4.272  19.527  0.00  0.00    +0.000 OA
ATOM      8  N   UNL     1       3.122   4.596  19.452  0.00  0.00    +0.000 N 
ATOM      9  H   UNL     1       2.219   4.121  19.504  0.00  0.00    +0.000 HD
BRANCH   6  11
ATOM     10  C   UNL     1       3.448   1.717  18.378  0.00  0.00    +0.000 C 
ATOM     11  C   UNL     1       3.941   2.298  19.699  0.00  0.00    +0.000 C 
BRANCH  11  12
ATOM     12  N   UNL     1       5.143   1.571  20.167  0.00  0.00    +0.000 NA
ATOM     13  H   UNL     1       5.952   2.193  20.087  0.00  0.00    +0.000 HD
ATOM     14  H   UNL     1       5.330   0.797  19.529  0.00  0.00    +0.000 HD
ENDBRANCH  11  12
ENDBRANCH   6  11
ENDBRANCH   5   8
BRANCH   5  15
ATOM     15  C   UNL     1       2.822   6.443  17.855  0.00  0.00    +0.000 C 
BRANCH  15  16
ATOM     16  C   UNL     1       3.976   7.189  17.180  0.00  0.00    +0.000 C 
BRANCH  16  17
ATOM     17  C   UNL     1       5.113   6.250  16.877  0.00  0.00    +0.000 A 
ATOM     18  C   UNL     1       6.417   6.568  17.282  0.00  0.00    +0.000 A 
ATOM     19  C   UNL     1       7.471   5.721  16.959  0.00  0.00    +0.000 A 
ATOM     20  C   UNL     1       7.237   4.556  16.229  0.00  0.00    +0.000 A 
ATOM     21  C   UNL     1       5.941   4.238  15.822  0.00  0.00    +0.000 A 
ATOM     22  C   UNL     1       4.880   5.083  16.145  0.00  0.00    +0.000 A 
ENDBRANCH  16  17
ENDBRANCH  15  16
ENDBRANCH   5  15
ENDBRANCH   1   5
BRANCH   3  23
ATOM     23  C   UNL     1       0.863   8.798  20.807  0.00  0.00    +0.000 C 
BRANCH  23  24
ATOM     24  C   UNL     1       0.621  10.074  19.945  0.00  0.00    +0.000 C 
ATOM     25  O   UNL     1       0.150   9.951  18.811  0.00  0.00    +0.000 OA
ATOM     26  N   UNL     1       0.959  11.279  20.544  0.00  0.00    +0.000 N 
ATOM     27  H   UNL     1       1.421  11.253  21.445  0.00  0.00    +0.000 HD
BRANCH  26  28
ATOM     28  C   UNL     1       0.866  12.560  19.948  0.00  0.00    +0.000 A 
ATOM     29  C   UNL     1       1.899  13.141  19.209  0.00  0.00    +0.000 A 
ATOM     30  C   UNL     1       1.766  14.423  18.673  0.00  0.00    +0.000 A 
ATOM     31  C   UNL     1       0.590  15.146  18.871  0.00  0.00    +0.000 A 
ATOM     32  C   UNL     1      -0.455  14.574  19.586  0.00  0.00    +0.000 A 
ATOM     33  C   UNL     1      -0.326  13.282  20.112  0.00  0.00    +0.000 A 
ENDBRANCH  26  28
ENDBRANCH  23  24
BRANCH  23  34
ATOM     34  C   UNL     1       1.268   9.133  22.250  0.00  0.00    +0.000 C 
BRANCH  34  35
ATOM     35  C   UNL     1       0.059   9.253  23.177  0.00  0.00    +0.000 C 
BRANCH  35  36
ATOM     36  N   UNL     1      -0.375  10.641  23.268  0.00  0.00    +0.000 NA
ATOM     37  H   UNL     1      -0.393  10.947  24.237  0.00  0.00    +0.000 HD
ATOM     38  H   UNL     1      -1.326  10.718  22.912  0.00  0.00    +0.000 HD
ENDBRANCH  35  36
ENDBRANCH  34  35
ENDBRANCH  23  34
ENDBRANCH   3  23
TORSDOF 13
ENDMDL
MODEL 5
REMARK VINA RESULT:      -7.6      0.567      1.346
REMARK  Name = 
REMARK  14 active torsions:
REMARK  status: ('A' for Active; 'I' for Inactive)
REMARK    1  A    between atoms: C_1  and  C_2
REMARK    2  A    between atoms: C_2  and  N_3
REMARK    3  A    between atoms: C_2  and  C_4
REMARK    4  A    between atoms: N_6  and  C_7
REMARK    5  A    between atoms: C_7  and  C_8
REMARK    6  A    between atoms: C_7  and  C_16
REMARK    7  A    between atoms: C_8  and  C_9
REMARK    8  A    between atoms: C_9  and  C_10
REMARK    9  A    between atoms: N_18  and  C_19
REMARK   10  A    between atoms: C_19  and  C_20
REMARK   11  A    between atoms: C_19  and  C_23
REMARK   12  A    between atoms: C_20  and  C_21
REMARK   13  A    between atoms: C_21  and  N_22
REMARK   14  A    between atoms: N_25  and  C_26
REMARK                            x       y       z     vdW  Elec       q    Type
REMARK                         _______ _______ _______ _____ _____    ______ ____
ROOT
ATOM      1  C   UNL     1       3.455   7.204  18.108  0.00  0.00    +0.000 C 
ATOM      2  O   UNL     1       3.199   8.293  17.601  0.00  0.00    +0.000 OA
ATOM      3  N   UNL     1       4.666   6.562  17.973  0.00  0.00    +0.000 N 
ATOM      4  H   UNL     1       4.790   5.643  18.392  0.00  0.00    +0.000 HD
ENDROOT
BRANCH   1   5
ATOM      5  C   UNL     1       2.394   6.432  18.910  0.00  0.00    +0.000 C 
BRANCH   5   8
ATOM      6  C   UNL     1       2.272   3.988  18.383  0.00  0.00    +0.000 C 
ATOM      7  O   UNL     1       1.297   4.110  17.647  0.00  0.00    +0.000 OA
ATOM      8  N   UNL     1       2.848   5.051  19.036  0.00  0.00    +0.000 N 
ATOM      9  H   UNL     1       3.660   4.849  19.622  0.00  0.00    +0.000 HD
BRANCH   6  11
ATOM     10  C   UNL     1       3.472   2.592  20.131  0.00  0.00    +0.000 C 
ATOM     11  C   UNL     1       2.930   2.622  18.706  0.00  0.00    +0.000 C 
BRANCH  11  12
ATOM     12  N   UNL     1       1.962   1.522  18.497  0.00  0.00    +0.000 NA
ATOM     13  H   UNL     1       1.171   1.882  17.956  0.00  0.00    +0.000 HD
ATOM     14  H   UNL     1       1.571   1.250  19.400  0.00  0.00    +0.000 HD
ENDBRANCH  11  12
ENDBRANCH   6  11
ENDBRANCH   5   8
BRANCH   5  15
ATOM     15  C   UNL     1       2.261   7.085  20.288  0.00  0.00    +0.000 C 
BRANCH  15  16
ATOM     16  C   UNL     1       0.810   7.129  20.773  0.00  0.00    +0.000 C 
BRANCH  16  17
ATOM     17  C   UNL     1       0.428   8.526  21.182  0.00  0.00    +0.000 A 
ATOM     18  C   UNL     1       0.787   9.619  20.379  0.00  0.00    +0.000 A 
ATOM     19  C   UNL     1       0.474  10.911  20.783  0.00  0.00    +0.000 A 
ATOM     20  C   UNL     1      -0.194  11.127  21.989  0.00  0.00    +0.000 A 
ATOM     21  C   UNL     1      -0.551  10.043  22.791  0.00  0.00    +0.000 A 
ATOM     22  C   UNL     1      -0.240   8.745  22.389  0.00  0.00    +0.000 A 
ENDBRANCH  16  17
ENDBRANCH  15  16
ENDBRANCH   5  15
ENDBRANCH   1   5
BRANCH   3  23
ATOM     23  C   UNL     1       5.837   7.062  17.228  0.00  0.00    +0.000 C 
BRANCH  23  24
ATOM     24  C   UNL     1       5.679   6.536  15.770  0.00  0.00    +0.000 C 
ATOM     25  O   UNL     1       4.840   7.058  15.031  0.00  0.00    +0.000 OA
ATOM     26  N   UNL     1       6.526   5.497  15.409  0.00  0.00    +0.000 N 
ATOM     27  H   UNL     1       7.114   5.088  16.125  0.00  0.00    +0.000 HD
BRANCH  26  28
ATOM     28  C   UNL     1       6.542   4.832  14.159  0.00  0.00    +0.000 A 
ATOM     29  C   UNL     1       5.603   3.866  13.790  0.00  0.00    +0.000 A 
ATOM     30  C   UNL     1       5.688   3.216  12.557  0.00  0.00    +0.000 A 
ATOM     31  C   UNL     1       6.720   3.526  11.671  0.00  0.00    +0.000 A 
ATOM     32  C   UNL     1       7.650   4.500  12.016  0.00  0.00    +0.000 A 
ATOM     33  C   UNL     1       7.557   5.161  13.247  0.00  0.00    +0.000 A 
ENDBRANCH  26  28
ENDBRANCH  23  24
BRANCH  23  34
ATOM     34  C   UNL     1       7.186   6.673  17.850  0.00  0.00    +0.000 C 
BRANCH  34  35
ATOM     35  C   UNL     1       7.076   5.438  18.743  0.00  0.00    +0.000 C 
BRANCH  35  36
ATOM     36  N   UNL     1       7.676   4.283  18.089  0.00  0.00    +0.000 NA
ATOM     37  H   UNL     1       7.202   3.428  18.367  0.00  0.00    +0.000 HD
ATOM     38  H   UNL     1       8.646   4.198  18.386  0.00  0.00    +0.000 HD
ENDBRANCH  35  36
ENDBRANCH  34  35
ENDBRANCH  23  34
ENDBRANCH   3  23
TORSDOF 13
ENDMDL
MODEL 6
REMARK VINA RESULT:      -7.4      1.149      1.523
REMARK  Name = 
REMARK  14 active torsions:
REMARK  status: ('A' for Active; 'I' for Inactive)
REMARK    1  A    between atoms: C_1  and  C_2
REMARK    2  A    between atoms: C_2  and  N_3
REMARK    3  A    between atoms: C_2  and  C_4
REMARK    4  A    between atoms: N_6  and  C_7
REMARK    5  A    between atoms: C_7  and  C_8
REMARK    6  A    between atoms: C_7  and  C_16
REMARK    7  A    between atoms: C_8  and  C_9
REMARK    8  A    between atoms: C_9  and  C_10
REMARK    9  A    between atoms: N_18  and  C_19
REMARK   10  A    between atoms: C_19  and  C_20
REMARK   11  A    between atoms: C_19  and  C_23
REMARK   12  A    between atoms: C_20  and  C_21
REMARK   13  A    between atoms: C_21  and  N_22
REMARK   14  A    between atoms: N_25  and  C_26
REMARK                            x       y       z     vdW  Elec       q    Type
REMARK                         _______ _______ _______ _____ _____    ______ ____
ROOT
ATOM      1  C   UNL     1       3.880   6.069  18.928  0.00  0.00    +0.000 C 
ATOM      2  O   UNL     1       4.542   5.514  19.800  0.00  0.00    +0.000 OA
ATOM      3  N   UNL     1       4.415   6.569  17.761  0.00  0.00    +0.000 N 
ATOM      4  H   UNL     1       3.806   7.050  17.102  0.00  0.00    +0.000 HD
ENDROOT
BRANCH   1   5
ATOM      5  C   UNL     1       2.369   6.300  19.104  0.00  0.00    +0.000 C 
BRANCH   5   8
ATOM      6  C   UNL     1       1.364   4.050  18.664  0.00  0.00    +0.000 C 
ATOM      7  O   UNL     1       1.446   4.159  17.443  0.00  0.00    +0.000 OA
ATOM      8  N   UNL     1       1.772   5.038  19.528  0.00  0.00    +0.000 N 
ATOM      9  H   UNL     1       1.667   4.851  20.526  0.00  0.00    +0.000 HD
BRANCH   6  11
ATOM     10  C   UNL     1       1.471   1.535  18.989  0.00  0.00    +0.000 C 
ATOM     11  C   UNL     1       0.740   2.818  19.369  0.00  0.00    +0.000 C 
BRANCH  11  12
ATOM     12  N   UNL     1       0.753   3.005  20.837  0.00  0.00    +0.000 NA
ATOM     13  H   UNL     1       1.701   2.828  21.181  0.00  0.00    +0.000 HD
ATOM     14  H   UNL     1       0.170   2.286  21.267  0.00  0.00    +0.000 HD
ENDBRANCH  11  12
ENDBRANCH   6  11
ENDBRANCH   5   8
BRANCH   5  15
ATOM     15  C   UNL     1       2.167   7.379  20.170  0.00  0.00    +0.000 C 
BRANCH  15  16
ATOM     16  C   UNL     1       1.488   8.631  19.609  0.00  0.00    +0.000 C 
BRANCH  16  17
ATOM     17  C   UNL     1       0.710   9.342  20.685  0.00  0.00    +0.000 A 
ATOM     18  C   UNL     1       0.568  10.736  20.646  0.00  0.00    +0.000 A 
ATOM     19  C   UNL     1      -0.110  11.394  21.666  0.00  0.00    +0.000 A 
ATOM     20  C   UNL     1      -0.647  10.671  22.731  0.00  0.00    +0.000 A 
ATOM     21  C   UNL     1      -0.505   9.284  22.774  0.00  0.00    +0.000 A 
ATOM     22  C   UNL     1       0.173   8.620  21.753  0.00  0.00    +0.000 A 
ENDBRANCH  16  17
ENDBRANCH  15  16
ENDBRANCH   5  15
ENDBRANCH   1   5
BRANCH   3  23
ATOM     23  C   UNL     1       5.834   6.515  17.362  0.00  0.00    +0.000 C 
BRANCH  23  24
ATOM     24  C   UNL     1       5.841   6.252  15.827  0.00  0.00    +0.000 C 
ATOM     25  O   UNL     1       5.168   6.978  15.090  0.00  0.00    +0.000 OA
ATOM     26  N   UNL     1       6.633   5.196  15.399  0.00  0.00    +0.000 N 
ATOM     27  H   UNL     1       7.073   4.613  16.102  0.00  0.00    +0.000 HD
BRANCH  26  28
ATOM     28  C   UNL     1       6.769   4.744  14.065  0.00  0.00    +0.000 A 
ATOM     29  C   UNL     1       7.692   5.277  13.162  0.00  0.00    +0.000 A 
ATOM     30  C   UNL     1       7.758   4.817  11.846  0.00  0.00    +0.000 A 
ATOM     31  C   UNL     1       6.896   3.810  11.412  0.00  0.00    +0.000 A 
ATOM     32  C   UNL     1       5.986   3.255  12.303  0.00  0.00    +0.000 A 
ATOM     33  C   UNL     1       5.929   3.708  13.627  0.00  0.00    +0.000 A 
ENDBRANCH  26  28
ENDBRANCH  23  24
BRANCH  23  34
ATOM     34  C   UNL     1       6.663   5.481  18.139  0.00  0.00    +0.000 C 
BRANCH  34  35
ATOM     35  C   UNL     1       7.789   6.131  18.943  0.00  0.00    +0.000 C 
BRANCH  35  36
ATOM     36  N   UNL     1       7.832   5.581  20.291  0.00  0.00    +0.000 NA
ATOM     37  H   UNL     1       6.892   5.440  20.650  0.00  0.00    +0.000 HD
ATOM     38  H   UNL     1       8.291   6.248  20.909  0.00  0.00    +0.000 HD
ENDBRANCH  35  36
ENDBRANCH  34  35
ENDBRANCH  23  34
ENDBRANCH   3  23
TORSDOF 13
ENDMDL
MODEL 7
REMARK VINA RESULT:      -7.4      1.068      1.622
REMARK  Name = 
REMARK  14 active torsions:
REMARK  status: ('A' for Active; 'I' for Inactive)
REMARK    1  A    between atoms: C_1  and  C_2
REMARK    2  A    between atoms: C_2  and  N_3
REMARK    3  A    between atoms: C_2  and  C_4
REMARK    4  A    between atoms: N_6  and  C_7
REMARK    5  A    between atoms: C_7  and  C_8
REMARK    6  A    between atoms: C_7  and  C_16
REMARK    7  A    between atoms: C_8  and  C_9
REMARK    8  A    between atoms: C_9  and  C_10
REMARK    9  A    between atoms: N_18  and  C_19
REMARK   10  A    between atoms: C_19  and  C_20
REMARK   11  A    between atoms: C_19  and  C_23
REMARK   12  A    between atoms: C_20  and  C_21
REMARK   13  A    between atoms: C_21  and  N_22
REMARK   14  A    between atoms: N_25  and  C_26
REMARK                            x       y       z     vdW  Elec       q    Type
REMARK                         _______ _______ _______ _____ _____    ______ ____
ROOT
ATOM      1  C   UNL     1       4.053   6.953  17.499  0.00  0.00    +0.000 C 
ATOM      2  O   UNL     1       4.028   7.915  16.737  0.00  0.00    +0.000 OA
ATOM      3  N   UNL     1       5.195   6.244  17.801  0.00  0.00    +0.000 N 
ATOM      4  H   UNL     1       5.129   5.433  18.414  0.00  0.00    +0.000 HD
ENDROOT
BRANCH   1   5
ATOM      5  C   UNL     1       2.765   6.420  18.149  0.00  0.00    +0.000 C 
BRANCH   5   8
ATOM      6  C   UNL     1       2.256   3.969  18.126  0.00  0.00    +0.000 C 
ATOM      7  O   UNL     1       1.288   4.091  17.381  0.00  0.00    +0.000 OA
ATOM      8  N   UNL     1       3.007   5.038  18.551  0.00  0.00    +0.000 N 
ATOM      9  H   UNL     1       3.796   4.833  19.166  0.00  0.00    +0.000 HD
BRANCH   6  11
ATOM     10  C   UNL     1       3.120   2.753  20.180  0.00  0.00    +0.000 C 
ATOM     11  C   UNL     1       2.708   2.610  18.720  0.00  0.00    +0.000 C 
BRANCH  11  12
ATOM     12  N   UNL     1       1.630   1.604  18.583  0.00  0.00    +0.000 NA
ATOM     13  H   UNL     1       1.500   1.140  19.486  0.00  0.00    +0.000 HD
ATOM     14  H   UNL     1       1.940   0.872  17.943  0.00  0.00    +0.000 HD
ENDBRANCH  11  12
ENDBRANCH   6  11
ENDBRANCH   5   8
BRANCH   5  15
ATOM     15  C   UNL     1       2.444   7.289  19.367  0.00  0.00    +0.000 C 
BRANCH  15  16
ATOM     16  C   UNL     1       1.690   8.566  18.988  0.00  0.00    +0.000 C 
BRANCH  16  17
ATOM     17  C   UNL     1       0.973   9.136  20.182  0.00  0.00    +0.000 A 
ATOM     18  C   UNL     1       0.024  10.155  20.015  0.00  0.00    +0.000 A 
ATOM     19  C   UNL     1      -0.602  10.711  21.124  0.00  0.00    +0.000 A 
ATOM     20  C   UNL     1      -0.287  10.261  22.406  0.00  0.00    +0.000 A 
ATOM     21  C   UNL     1       0.658   9.249  22.577  0.00  0.00    +0.000 A 
ATOM     22  C   UNL     1       1.288   8.688  21.467  0.00  0.00    +0.000 A 
ENDBRANCH  16  17
ENDBRANCH  15  16
ENDBRANCH   5  15
ENDBRANCH   1   5
BRANCH   3  23
ATOM     23  C   UNL     1       6.550   6.519  17.287  0.00  0.00    +0.000 C 
BRANCH  23  24
ATOM     24  C   UNL     1       6.819   5.451  16.185  0.00  0.00    +0.000 C 
ATOM     25  O   UNL     1       7.621   4.541  16.415  0.00  0.00    +0.000 OA
ATOM     26  N   UNL     1       6.110   5.612  15.004  0.00  0.00    +0.000 N 
ATOM     27  H   UNL     1       5.545   6.446  14.894  0.00  0.00    +0.000 HD
BRANCH  26  28
ATOM     28  C   UNL     1       6.215   4.795  13.852  0.00  0.00    +0.000 A 
ATOM     29  C   UNL     1       5.262   3.837  13.498  0.00  0.00    +0.000 A 
ATOM     30  C   UNL     1       5.434   3.034  12.370  0.00  0.00    +0.000 A 
ATOM     31  C   UNL     1       6.571   3.180  11.574  0.00  0.00    +0.000 A 
ATOM     32  C   UNL     1       7.518   4.142  11.901  0.00  0.00    +0.000 A 
ATOM     33  C   UNL     1       7.338   4.957  13.026  0.00  0.00    +0.000 A 
ENDBRANCH  26  28
ENDBRANCH  23  24
BRANCH  23  34
ATOM     34  C   UNL     1       7.639   6.531  18.371  0.00  0.00    +0.000 C 
BRANCH  34  35
ATOM     35  C   UNL     1       7.209   5.779  19.630  0.00  0.00    +0.000 C 
BRANCH  35  36
ATOM     36  N   UNL     1       6.702   4.458  19.284  0.00  0.00    +0.000 NA
ATOM     37  H   UNL     1       7.347   3.736  19.589  0.00  0.00    +0.000 HD
ATOM     38  H   UNL     1       6.628   4.384  18.270  0.00  0.00    +0.000 HD
ENDBRANCH  35  36
ENDBRANCH  34  35
ENDBRANCH  23  34
ENDBRANCH   3  23
TORSDOF 13
ENDMDL
MODEL 8
REMARK VINA RESULT:      -7.4      2.946      8.240
REMARK  Name = 
REMARK  14 active torsions:
REMARK  status: ('A' for Active; 'I' for Inactive)
REMARK    1  A    between atoms: C_1  and  C_2
REMARK    2  A    between atoms: C_2  and  N_3
REMARK    3  A    between atoms: C_2  and  C_4
REMARK    4  A    between atoms: N_6  and  C_7
REMARK    5  A    between atoms: C_7  and  C_8
REMARK    6  A    between atoms: C_7  and  C_16
REMARK    7  A    between atoms: C_8  and  C_9
REMARK    8  A    between atoms: C_9  and  C_10
REMARK    9  A    between atoms: N_18  and  C_19
REMARK   10  A    between atoms: C_19  and  C_20
REMARK   11  A    between atoms: C_19  and  C_23
REMARK   12  A    between atoms: C_20  and  C_21
REMARK   13  A    between atoms: C_21  and  N_22
REMARK   14  A    between atoms: N_25  and  C_26
REMARK                            x       y       z     vdW  Elec       q    Type
REMARK                         _______ _______ _______ _____ _____    ______ ____
ROOT
ATOM      1  C   UNL     1       2.092   6.609  20.208  0.00  0.00    +0.000 C 
ATOM      2  O   UNL     1       1.434   5.882  20.948  0.00  0.00    +0.000 OA
ATOM      3  N   UNL     1       1.909   7.971  20.113  0.00  0.00    +0.000 N 
ATOM      4  H   UNL     1       2.469   8.502  19.448  0.00  0.00    +0.000 HD
ENDROOT
BRANCH   1   5
ATOM      5  C   UNL     1       3.160   6.027  19.267  0.00  0.00    +0.000 C 
BRANCH   5   8
ATOM      6  C   UNL     1       4.235   3.781  19.520  0.00  0.00    +0.000 C 
ATOM      7  O   UNL     1       5.377   4.233  19.516  0.00  0.00    +0.000 OA
ATOM      8  N   UNL     1       3.120   4.573  19.392  0.00  0.00    +0.000 N 
ATOM      9  H   UNL     1       2.214   4.104  19.412  0.00  0.00    +0.000 HD
BRANCH   6  11
ATOM     10  C   UNL     1       3.461   1.713  18.267  0.00  0.00    +0.000 C 
ATOM     11  C   UNL     1       3.920   2.265  19.613  0.00  0.00    +0.000 C 
BRANCH  11  12
ATOM     12  N   UNL     1       5.103   1.522  20.101  0.00  0.00    +0.000 NA
ATOM     13  H   UNL     1       4.822   0.951  20.902  0.00  0.00    +0.000 HD
ATOM     14  H   UNL     1       5.783   2.189  20.469  0.00  0.00    +0.000 HD
ENDBRANCH  11  12
ENDBRANCH   6  11
ENDBRANCH   5   8
BRANCH   5  15
ATOM     15  C   UNL     1       2.828   6.456  17.836  0.00  0.00    +0.000 C 
BRANCH  15  16
ATOM     16  C   UNL     1       3.965   7.250  17.188  0.00  0.00    +0.000 C 
BRANCH  16  17
ATOM     17  C   UNL     1       5.128   6.349  16.867  0.00  0.00    +0.000 A 
ATOM     18  C   UNL     1       4.926   5.173  16.131  0.00  0.00    +0.000 A 
ATOM     19  C   UNL     1       5.994   4.320  15.877  0.00  0.00    +0.000 A 
ATOM     20  C   UNL     1       7.267   4.628  16.356  0.00  0.00    +0.000 A 
ATOM     21  C   UNL     1       7.471   5.796  17.091  0.00  0.00    +0.000 A 
ATOM     22  C   UNL     1       6.404   6.655  17.347  0.00  0.00    +0.000 A 
ENDBRANCH  16  17
ENDBRANCH  15  16
ENDBRANCH   5  15
ENDBRANCH   1   5
BRANCH   3  23
ATOM     23  C   UNL     1       0.931   8.773  20.872  0.00  0.00    +0.000 C 
BRANCH  23  24
ATOM     24  C   UNL     1       0.659  10.046  20.017  0.00  0.00    +0.000 C 
ATOM     25  O   UNL     1       0.131   9.922  18.908  0.00  0.00    +0.000 OA
ATOM     26  N   UNL     1       1.038  11.251  20.592  0.00  0.00    +0.000 N 
ATOM     27  H   UNL     1       1.543  11.224  21.469  0.00  0.00    +0.000 HD
BRANCH  26  28
ATOM     28  C   UNL     1       0.927  12.530  19.994  0.00  0.00    +0.000 A 
ATOM     29  C   UNL     1      -0.280  13.223  19.879  0.00  0.00    +0.000 A 
ATOM     30  C   UNL     1      -0.336  14.467  19.247  0.00  0.00    +0.000 A 
ATOM     31  C   UNL     1       0.822  15.037  18.719  0.00  0.00    +0.000 A 
ATOM     32  C   UNL     1       2.034  14.369  18.843  0.00  0.00    +0.000 A 
ATOM     33  C   UNL     1       2.092  13.127  19.489  0.00  0.00    +0.000 A 
ENDBRANCH  26  28
ENDBRANCH  23  24
BRANCH  23  34
ATOM     34  C   UNL     1       1.375   9.110  22.303  0.00  0.00    +0.000 C 
BRANCH  34  35
ATOM     35  C   UNL     1       0.190   9.423  23.216  0.00  0.00    +0.000 C 
BRANCH  35  36
ATOM     36  N   UNL     1      -0.947   8.576  22.880  0.00  0.00    +0.000 NA
ATOM     37  H   UNL     1      -0.668   7.840  22.239  0.00  0.00    +0.000 HD
ATOM     38  H   UNL     1      -1.652   9.136  22.404  0.00  0.00    +0.000 HD
ENDBRANCH  35  36
ENDBRANCH  34  35
ENDBRANCH  23  34
ENDBRANCH   3  23
TORSDOF 13
ENDMDL
MODEL 9
REMARK VINA RESULT:      -7.3      1.209      1.787
REMARK  Name = 
REMARK  14 active torsions:
REMARK  status: ('A' for Active; 'I' for Inactive)
REMARK    1  A    between atoms: C_1  and  C_2
REMARK    2  A    between atoms: C_2  and  N_3
REMARK    3  A    between atoms: C_2  and  C_4
REMARK    4  A    between atoms: N_6  and  C_7
REMARK    5  A    between atoms: C_7  and  C_8
REMARK    6  A    between atoms: C_7  and  C_16
REMARK    7  A    between atoms: C_8  and  C_9
REMARK    8  A    between atoms: C_9  and  C_10
REMARK    9  A    between atoms: N_18  and  C_19
REMARK   10  A    between atoms: C_19  and  C_20
REMARK   11  A    between atoms: C_19  and  C_23
REMARK   12  A    between atoms: C_20  and  C_21
REMARK   13  A    between atoms: C_21  and  N_22
REMARK   14  A    between atoms: N_25  and  C_26
REMARK                            x       y       z     vdW  Elec       q    Type
REMARK                         _______ _______ _______ _____ _____    ______ ____
ROOT
ATOM      1  C   UNL     1       3.803   6.815  17.675  0.00  0.00    +0.000 C 
ATOM      2  O   UNL     1       3.792   7.766  16.899  0.00  0.00    +0.000 OA
ATOM      3  N   UNL     1       4.932   6.085  17.975  0.00  0.00    +0.000 N 
ATOM      4  H   UNL     1       4.854   5.285  18.601  0.00  0.00    +0.000 HD
ENDROOT
BRANCH   1   5
ATOM      5  C   UNL     1       2.510   6.323  18.348  0.00  0.00    +0.000 C 
BRANCH   5   8
ATOM      6  C   UNL     1       2.054   3.865  18.230  0.00  0.00    +0.000 C 
ATOM      7  O   UNL     1       1.191   3.981  17.365  0.00  0.00    +0.000 OA
ATOM      8  N   UNL     1       2.723   4.940  18.763  0.00  0.00    +0.000 N 
ATOM      9  H   UNL     1       3.428   4.740  19.475  0.00  0.00    +0.000 HD
BRANCH   6  11
ATOM     10  C   UNL     1       3.943   2.447  19.162  0.00  0.00    +0.000 C 
ATOM     11  C   UNL     1       2.449   2.505  18.863  0.00  0.00    +0.000 C 
BRANCH  11  12
ATOM     12  N   UNL     1       1.664   2.263  20.094  0.00  0.00    +0.000 NA
ATOM     13  H   UNL     1       0.705   2.027  19.828  0.00  0.00    +0.000 HD
ATOM     14  H   UNL     1       1.593   3.137  20.618  0.00  0.00    +0.000 HD
ENDBRANCH  11  12
ENDBRANCH   6  11
ENDBRANCH   5   8
BRANCH   5  15
ATOM     15  C   UNL     1       2.228   7.214  19.560  0.00  0.00    +0.000 C 
BRANCH  15  16
ATOM     16  C   UNL     1       1.582   8.545  19.166  0.00  0.00    +0.000 C 
BRANCH  16  17
ATOM     17  C   UNL     1       0.895   9.174  20.348  0.00  0.00    +0.000 A 
ATOM     18  C   UNL     1       0.069  10.293  20.170  0.00  0.00    +0.000 A 
ATOM     19  C   UNL     1      -0.526  10.900  21.270  0.00  0.00    +0.000 A 
ATOM     20  C   UNL     1      -0.300  10.402  22.553  0.00  0.00    +0.000 A 
ATOM     21  C   UNL     1       0.523   9.290  22.735  0.00  0.00    +0.000 A 
ATOM     22  C   UNL     1       1.120   8.677  21.634  0.00  0.00    +0.000 A 
ENDBRANCH  16  17
ENDBRANCH  15  16
ENDBRANCH   5  15
ENDBRANCH   1   5
BRANCH   3  23
ATOM     23  C   UNL     1       6.287   6.320  17.442  0.00  0.00    +0.000 C 
BRANCH  23  24
ATOM     24  C   UNL     1       6.508   5.247  16.335  0.00  0.00    +0.000 C 
ATOM     25  O   UNL     1       7.009   4.161  16.643  0.00  0.00    +0.000 OA
ATOM     26  N   UNL     1       6.105   5.607  15.057  0.00  0.00    +0.000 N 
ATOM     27  H   UNL     1       5.788   6.557  14.905  0.00  0.00    +0.000 HD
BRANCH  26  28
ATOM     28  C   UNL     1       6.239   4.819  13.889  0.00  0.00    +0.000 A 
ATOM     29  C   UNL     1       5.299   3.866  13.491  0.00  0.00    +0.000 A 
ATOM     30  C   UNL     1       5.500   3.090  12.348  0.00  0.00    +0.000 A 
ATOM     31  C   UNL     1       6.653   3.259  11.581  0.00  0.00    +0.000 A 
ATOM     32  C   UNL     1       7.589   4.218  11.952  0.00  0.00    +0.000 A 
ATOM     33  C   UNL     1       7.380   5.004  13.092  0.00  0.00    +0.000 A 
ENDBRANCH  26  28
ENDBRANCH  23  24
BRANCH  23  34
ATOM     34  C   UNL     1       7.391   6.298  18.509  0.00  0.00    +0.000 C 
BRANCH  34  35
ATOM     35  C   UNL     1       8.269   7.549  18.457  0.00  0.00    +0.000 C 
BRANCH  35  36
ATOM     36  N   UNL     1       7.763   8.482  17.460  0.00  0.00    +0.000 NA
ATOM     37  H   UNL     1       7.803   9.436  17.810  0.00  0.00    +0.000 HD
ATOM     38  H   UNL     1       6.784   8.273  17.273  0.00  0.00    +0.000 HD
ENDBRANCH  35  36
ENDBRANCH  34  35
ENDBRANCH  23  34
ENDBRANCH   3  23
TORSDOF 13
ENDMDL
