MODEL 1
REMARK VINA RESULT:      -7.5      0.000      0.000
REMARK  Name = 
REMARK  4 active torsions:
REMARK  status: ('A' for Active; 'I' for Inactive)
REMARK    1  A    between atoms: C_2  and  C_3
REMARK    2  A    between atoms: C_4  and  N_5
REMARK    3  A    between atoms: C_6  and  C_8
REMARK    4  A    between atoms: C_14  and  N_15
REMARK                            x       y       z     vdW  Elec       q    Type
REMARK                         _______ _______ _______ _____ _____    ______ ____
ROOT
ATOM      1  C   UNL     1       4.264   4.645  18.452  0.00  0.00    +0.000 A 
ATOM      2  C   UNL     1       5.150   5.297  17.559  0.00  0.00    +0.000 A 
ATOM      3  C   UNL     1       4.847   6.578  17.090  0.00  0.00    +0.000 A 
ATOM      4  C   UNL     1       3.636   7.170  17.434  0.00  0.00    +0.000 A 
ATOM      5  C   UNL     1       2.727   6.485  18.244  0.00  0.00    +0.000 A 
ATOM      6  C   UNL     1       3.001   5.211  18.781  0.00  0.00    +0.000 A 
ENDROOT
BRANCH   6   7
ATOM      7  N   UNL     1       2.059   4.602  19.591  0.00  0.00    +0.000 N 
ATOM      8  C   UNL     1       1.979   4.848  21.047  0.00  0.00    +0.000 C 
ATOM      9  C   UNL     1       1.960   3.503  21.792  0.00  0.00    +0.000 C 
ATOM     10  O   UNL     1       0.847   2.703  21.366  0.00  0.00    +0.000 OA
ATOM     11  C   UNL     1       0.961   2.405  19.960  0.00  0.00    +0.000 C 
ATOM     12  C   UNL     1       0.987   3.693  19.114  0.00  0.00    +0.000 C 
ENDBRANCH   6   7
BRANCH   2  13
ATOM     13  N   UNL     1       6.350   4.705  17.103  0.00  0.00    +0.000 N 
ATOM     14  C   UNL     1       7.593   4.881  17.719  0.00  0.00    +0.000 C 
ATOM     15  O   UNL     1       8.569   4.207  17.390  0.00  0.00    +0.000 OA
ATOM     16  H   UNL     1       6.320   3.863  16.541  0.00  0.00    +0.000 HD
BRANCH  14  17
ATOM     17  C   UNL     1       7.774   5.750  18.983  0.00  0.00    +0.000 C 
ATOM     18  O   UNL     1       8.215   6.939  18.758  0.00  0.00    +0.000 OA
ATOM     19  O   UNL     1       7.686   5.211  20.121  0.00  0.00    +0.000 OA
ENDBRANCH  14  17
ENDBRANCH   2  13
BRANCH   1  21
ATOM     20  N   UNL     1       5.062   2.553  19.773  0.00  0.00    +0.000 NA
ATOM     21  C   UNL     1       4.745   3.508  19.179  0.00  0.00    +0.000 C 
ENDBRANCH   1  21
TORSDOF 4
ENDMDL
MODEL 2
REMARK VINA RESULT:      -7.2      1.629      5.701
REMARK  Name = 
REMARK  4 active torsions:
REMARK  status: ('A' for Active; 'I' for Inactive)
REMARK    1  A    between atoms: C_2  and  C_3
REMARK    2  A    between atoms: C_4  and  N_5
REMARK    3  A    between atoms: C_6  and  C_8
REMARK    4  A    between atoms: C_14  and  N_15
REMARK                            x       y       z     vdW  Elec       q    Type
REMARK                         _______ _______ _______ _____ _____    ______ ____
ROOT
ATOM      1  C   UNL     1       4.040   5.137  19.245  0.00  0.00    +0.000 A 
ATOM      2  C   UNL     1       2.908   5.452  20.036  0.00  0.00    +0.000 A 
ATOM      3  C   UNL     1       2.075   6.513  19.667  0.00  0.00    +0.000 A 
ATOM      4  C   UNL     1       2.411   7.305  18.575  0.00  0.00    +0.000 A 
ATOM      5  C   UNL     1       3.577   7.044  17.851  0.00  0.00    +0.000 A 
ATOM      6  C   UNL     1       4.427   5.960  18.151  0.00  0.00    +0.000 A 
ENDROOT
BRANCH   6   7
ATOM      7  N   UNL     1       5.555   5.753  17.378  0.00  0.00    +0.000 N 
ATOM      8  C   UNL     1       5.487   5.452  15.932  0.00  0.00    +0.000 C 
ATOM      9  C   UNL     1       6.326   4.200  15.629  0.00  0.00    +0.000 C 
ATOM     10  O   UNL     1       7.691   4.395  16.028  0.00  0.00    +0.000 OA
ATOM     11  C   UNL     1       7.764   4.619  17.451  0.00  0.00    +0.000 C 
ATOM     12  C   UNL     1       6.953   5.863  17.864  0.00  0.00    +0.000 C 
ENDBRANCH   6   7
BRANCH   2  13
ATOM     13  N   UNL     1       2.571   4.738  21.208  0.00  0.00    +0.000 N 
ATOM     14  C   UNL     1       1.837   3.548  21.216  0.00  0.00    +0.000 C 
ATOM     15  O   UNL     1       1.722   2.876  22.241  0.00  0.00    +0.000 OA
ATOM     16  H   UNL     1       3.126   4.848  22.048  0.00  0.00    +0.000 HD
BRANCH  14  17
ATOM     17  C   UNL     1       1.321   2.886  19.919  0.00  0.00    +0.000 C 
ATOM     18  O   UNL     1       0.240   3.401  19.446  0.00  0.00    +0.000 OA
ATOM     19  O   UNL     1       1.841   1.803  19.531  0.00  0.00    +0.000 OA
ENDBRANCH  14  17
ENDBRANCH   2  13
BRANCH   1  21
ATOM     20  N   UNL     1       5.154   2.826  19.664  0.00  0.00    +0.000 NA
ATOM     21  C   UNL     1       4.669   3.865  19.434  0.00  0.00    +0.000 C 
ENDBRANCH   1  21
TORSDOF 4
ENDMDL
MODEL 3
REMARK VINA RESULT:      -6.9      1.000      1.052
REMARK  Name = 
REMARK  4 active torsions:
REMARK  status: ('A' for Active; 'I' for Inactive)
REMARK    1  A    between atoms: C_2  and  C_3
REMARK    2  A    between atoms: C_4  and  N_5
REMARK    3  A    between atoms: C_6  and  C_8
REMARK    4  A    between atoms: C_14  and  N_15
REMARK                            x       y       z     vdW  Elec       q    Type
REMARK                         _______ _______ _______ _____ _____    ______ ____
ROOT
ATOM      1  C   UNL     1       3.793   5.030  17.867  0.00  0.00    +0.000 A 
ATOM      2  C   UNL     1       4.502   5.886  16.988  0.00  0.00    +0.000 A 
ATOM      3  C   UNL     1       4.239   7.259  16.992  0.00  0.00    +0.000 A 
ATOM      4  C   UNL     1       3.224   7.764  17.796  0.00  0.00    +0.000 A 
ATOM      5  C   UNL     1       2.469   6.903  18.596  0.00  0.00    +0.000 A 
ATOM      6  C   UNL     1       2.721   5.518  18.665  0.00  0.00    +0.000 A 
ENDROOT
BRANCH   6   7
ATOM      7  N   UNL     1       1.943   4.730  19.494  0.00  0.00    +0.000 N 
ATOM      8  C   UNL     1       1.909   4.906  20.962  0.00  0.00    +0.000 C 
ATOM      9  C   UNL     1       2.158   3.553  21.646  0.00  0.00    +0.000 C 
ATOM     10  O   UNL     1       1.172   2.591  21.242  0.00  0.00    +0.000 OA
ATOM     11  C   UNL     1       1.252   2.367  19.820  0.00  0.00    +0.000 C 
ATOM     12  C   UNL     1       1.012   3.670  19.034  0.00  0.00    +0.000 C 
ENDBRANCH   6   7
BRANCH   2  13
ATOM     13  N   UNL     1       5.479   5.413  16.083  0.00  0.00    +0.000 N 
ATOM     14  C   UNL     1       6.840   5.305  16.386  0.00  0.00    +0.000 C 
ATOM     15  O   UNL     1       7.618   4.726  15.629  0.00  0.00    +0.000 OA
ATOM     16  H   UNL     1       5.212   4.810  15.315  0.00  0.00    +0.000 HD
BRANCH  14  17
ATOM     17  C   UNL     1       7.413   5.694  17.768  0.00  0.00    +0.000 C 
ATOM     18  O   UNL     1       7.735   6.935  17.886  0.00  0.00    +0.000 OA
ATOM     19  O   UNL     1       7.714   4.783  18.589  0.00  0.00    +0.000 OA
ENDBRANCH  14  17
ENDBRANCH   2  13
BRANCH   1  21
ATOM     20  N   UNL     1       4.658   2.621  18.321  0.00  0.00    +0.000 NA
ATOM     21  C   UNL     1       4.306   3.712  18.094  0.00  0.00    +0.000 C 
ENDBRANCH   1  21
TORSDOF 4
ENDMDL
MODEL 4
REMARK VINA RESULT:      -6.7      1.699      5.828
REMARK  Name = 
REMARK  4 active torsions:
REMARK  status: ('A' for Active; 'I' for Inactive)
REMARK    1  A    between atoms: C_2  and  C_3
REMARK    2  A    between atoms: C_4  and  N_5
REMARK    3  A    between atoms: C_6  and  C_8
REMARK    4  A    between atoms: C_14  and  N_15
REMARK                            x       y       z     vdW  Elec       q    Type
REMARK                         _______ _______ _______ _____ _____    ______ ____
ROOT
ATOM      1  C   UNL     1       3.950   4.775  19.483  0.00  0.00    +0.000 A 
ATOM      2  C   UNL     1       2.782   5.064  20.230  0.00  0.00    +0.000 A 
ATOM      3  C   UNL     1       1.969   6.141  19.862  0.00  0.00    +0.000 A 
ATOM      4  C   UNL     1       2.357   6.972  18.817  0.00  0.00    +0.000 A 
ATOM      5  C   UNL     1       3.555   6.733  18.140  0.00  0.00    +0.000 A 
ATOM      6  C   UNL     1       4.389   5.637  18.440  0.00  0.00    +0.000 A 
ENDROOT
BRANCH   6   7
ATOM      7  N   UNL     1       5.552   5.454  17.713  0.00  0.00    +0.000 N 
ATOM      8  C   UNL     1       6.846   6.045  18.115  0.00  0.00    +0.000 C 
ATOM      9  C   UNL     1       7.457   6.797  16.922  0.00  0.00    +0.000 C 
ATOM     10  O   UNL     1       7.645   5.913  15.806  0.00  0.00    +0.000 OA
ATOM     11  C   UNL     1       6.374   5.390  15.370  0.00  0.00    +0.000 C 
ATOM     12  C   UNL     1       5.672   4.609  16.498  0.00  0.00    +0.000 C 
ENDBRANCH   6   7
BRANCH   2  13
ATOM     13  N   UNL     1       2.388   4.309  21.359  0.00  0.00    +0.000 N 
ATOM     14  C   UNL     1       1.594   3.160  21.293  0.00  0.00    +0.000 C 
ATOM     15  O   UNL     1       1.427   2.443  22.279  0.00  0.00    +0.000 OA
ATOM     16  H   UNL     1       2.935   4.345  22.211  0.00  0.00    +0.000 HD
BRANCH  14  17
ATOM     17  C   UNL     1       1.066   2.595  19.955  0.00  0.00    +0.000 C 
ATOM     18  O   UNL     1       1.781   1.650  19.452  0.00  0.00    +0.000 OA
ATOM     19  O   UNL     1       0.132   3.198  19.357  0.00  0.00    +0.000 OA
ENDBRANCH  14  17
ENDBRANCH   2  13
BRANCH   1  21
ATOM     20  N   UNL     1       5.013   2.431  19.848  0.00  0.00    +0.000 NA
ATOM     21  C   UNL     1       4.567   3.494  19.654  0.00  0.00    +0.000 C 
ENDBRANCH   1  21
TORSDOF 4
ENDMDL
MODEL 5
REMARK VINA RESULT:      -6.7      1.394      1.983
REMARK  Name = 
REMARK  4 active torsions:
REMARK  status: ('A' for Active; 'I' for Inactive)
REMARK    1  A    between atoms: C_2  and  C_3
REMARK    2  A    between atoms: C_4  and  N_5
REMARK    3  A    between atoms: C_6  and  C_8
REMARK    4  A    between atoms: C_14  and  N_15
REMARK                            x       y       z     vdW  Elec       q    Type
REMARK                         _______ _______ _______ _____ _____    ______ ____
ROOT
ATOM      1  C   UNL     1       4.345   4.625  18.780  0.00  0.00    +0.000 A 
ATOM      2  C   UNL     1       5.485   5.354  18.361  0.00  0.00    +0.000 A 
ATOM      3  C   UNL     1       5.338   6.654  17.870  0.00  0.00    +0.000 A 
ATOM      4  C   UNL     1       4.065   7.192  17.715  0.00  0.00    +0.000 A 
ATOM      5  C   UNL     1       2.939   6.435  18.048  0.00  0.00    +0.000 A 
ATOM      6  C   UNL     1       3.032   5.137  18.590  0.00  0.00    +0.000 A 
ENDROOT
BRANCH   6   7
ATOM      7  N   UNL     1       1.873   4.455  18.912  0.00  0.00    +0.000 N 
ATOM      8  C   UNL     1       1.231   4.555  20.241  0.00  0.00    +0.000 C 
ATOM      9  C   UNL     1       0.973   3.143  20.792  0.00  0.00    +0.000 C 
ATOM     10  O   UNL     1       0.138   2.394  19.896  0.00  0.00    +0.000 OA
ATOM     11  C   UNL     1       0.794   2.237  18.622  0.00  0.00    +0.000 C 
ATOM     12  C   UNL     1       1.098   3.602  17.976  0.00  0.00    +0.000 C 
ENDBRANCH   6   7
BRANCH   2  13
ATOM     13  N   UNL     1       6.794   4.822  18.409  0.00  0.00    +0.000 N 
ATOM     14  C   UNL     1       7.518   4.422  17.281  0.00  0.00    +0.000 C 
ATOM     15  O   UNL     1       8.712   4.133  17.359  0.00  0.00    +0.000 OA
ATOM     16  H   UNL     1       7.398   5.027  19.195  0.00  0.00    +0.000 HD
BRANCH  14  17
ATOM     17  C   UNL     1       6.947   4.531  15.850  0.00  0.00    +0.000 C 
ATOM     18  O   UNL     1       6.168   3.565  15.507  0.00  0.00    +0.000 OA
ATOM     19  O   UNL     1       7.414   5.402  15.064  0.00  0.00    +0.000 OA
ENDBRANCH  14  17
ENDBRANCH   2  13
BRANCH   1  21
ATOM     20  N   UNL     1       4.666   2.462  20.186  0.00  0.00    +0.000 NA
ATOM     21  C   UNL     1       4.543   3.457  19.585  0.00  0.00    +0.000 C 
ENDBRANCH   1  21
TORSDOF 4
ENDMDL
MODEL 6
REMARK VINA RESULT:      -6.6      1.622      2.281
REMARK  Name = 
REMARK  4 active torsions:
REMARK  status: ('A' for Active; 'I' for Inactive)
REMARK    1  A    between atoms: C_2  and  C_3
REMARK    2  A    between atoms: C_4  and  N_5
REMARK    3  A    between atoms: C_6  and  C_8
REMARK    4  A    between atoms: C_14  and  N_15
REMARK                            x       y       z     vdW  Elec       q    Type
REMARK                         _______ _______ _______ _____ _____    ______ ____
ROOT
ATOM      1  C   UNL     1       4.264   5.222  18.435  0.00  0.00    +0.000 A 
ATOM      2  C   UNL     1       5.098   6.075  17.672  0.00  0.00    +0.000 A 
ATOM      3  C   UNL     1       4.624   7.322  17.256  0.00  0.00    +0.000 A 
ATOM      4  C   UNL     1       3.307   7.682  17.520  0.00  0.00    +0.000 A 
ATOM      5  C   UNL     1       2.462   6.799  18.197  0.00  0.00    +0.000 A 
ATOM      6  C   UNL     1       2.901   5.549  18.679  0.00  0.00    +0.000 A 
ENDROOT
BRANCH   6   7
ATOM      7  N   UNL     1       2.011   4.736  19.357  0.00  0.00    +0.000 N 
ATOM      8  C   UNL     1       1.711   4.906  20.795  0.00  0.00    +0.000 C 
ATOM      9  C   UNL     1       1.873   3.557  21.514  0.00  0.00    +0.000 C 
ATOM     10  O   UNL     1       1.003   2.569  20.942  0.00  0.00    +0.000 OA
ATOM     11  C   UNL     1       1.341   2.353  19.558  0.00  0.00    +0.000 C 
ATOM     12  C   UNL     1       1.208   3.652  18.739  0.00  0.00    +0.000 C 
ENDBRANCH   6   7
BRANCH   2  13
ATOM     13  N   UNL     1       6.414   5.721  17.295  0.00  0.00    +0.000 N 
ATOM     14  C   UNL     1       6.719   4.835  16.257  0.00  0.00    +0.000 C 
ATOM     15  O   UNL     1       7.874   4.697  15.855  0.00  0.00    +0.000 OA
ATOM     16  H   UNL     1       7.188   6.339  17.507  0.00  0.00    +0.000 HD
BRANCH  14  17
ATOM     17  C   UNL     1       5.627   4.152  15.404  0.00  0.00    +0.000 C 
ATOM     18  O   UNL     1       5.191   3.039  15.882  0.00  0.00    +0.000 OA
ATOM     19  O   UNL     1       5.385   4.589  14.245  0.00  0.00    +0.000 OA
ENDBRANCH  14  17
ENDBRANCH   2  13
BRANCH   1  21
ATOM     20  N   UNL     1       5.286   3.199  19.709  0.00  0.00    +0.000 NA
ATOM     21  C   UNL     1       4.867   4.126  19.132  0.00  0.00    +0.000 C 
ENDBRANCH   1  21
TORSDOF 4
ENDMDL
MODEL 7
REMARK VINA RESULT:      -6.4      1.918      2.912
REMARK  Name = 
REMARK  4 active torsions:
REMARK  status: ('A' for Active; 'I' for Inactive)
REMARK    1  A    between atoms: C_2  and  C_3
REMARK    2  A    between atoms: C_4  and  N_5
REMARK    3  A    between atoms: C_6  and  C_8
REMARK    4  A    between atoms: C_14  and  N_15
REMARK                            x       y       z     vdW  Elec       q    Type
REMARK                         _______ _______ _______ _____ _____    ______ ____
ROOT
ATOM      1  C   UNL     1       4.973   5.150  17.178  0.00  0.00    +0.000 A 
ATOM      2  C   UNL     1       6.075   5.741  16.511  0.00  0.00    +0.000 A 
ATOM      3  C   UNL     1       6.525   5.205  15.301  0.00  0.00    +0.000 A 
ATOM      4  C   UNL     1       5.944   4.044  14.803  0.00  0.00    +0.000 A 
ATOM      5  C   UNL     1       4.916   3.416  15.510  0.00  0.00    +0.000 A 
ATOM      6  C   UNL     1       4.393   3.939  16.710  0.00  0.00    +0.000 A 
ENDROOT
BRANCH   6   7
ATOM      7  N   UNL     1       3.361   3.271  17.345  0.00  0.00    +0.000 N 
ATOM      8  C   UNL     1       1.956   3.727  17.281  0.00  0.00    +0.000 C 
ATOM      9  C   UNL     1       1.380   3.812  18.704  0.00  0.00    +0.000 C 
ATOM     10  O   UNL     1       1.455   2.537  19.359  0.00  0.00    +0.000 OA
ATOM     11  C   UNL     1       2.831   2.124  19.483  0.00  0.00    +0.000 C 
ATOM     12  C   UNL     1       3.507   2.003  18.104  0.00  0.00    +0.000 C 
ENDBRANCH   6   7
BRANCH   2  13
ATOM     13  N   UNL     1       6.763   6.867  17.019  0.00  0.00    +0.000 N 
ATOM     14  C   UNL     1       7.604   6.832  18.136  0.00  0.00    +0.000 C 
ATOM     15  O   UNL     1       8.313   7.793  18.430  0.00  0.00    +0.000 OA
ATOM     16  H   UNL     1       6.965   7.655  16.416  0.00  0.00    +0.000 HD
BRANCH  14  17
ATOM     17  C   UNL     1       7.870   5.534  18.930  0.00  0.00    +0.000 C 
ATOM     18  O   UNL     1       8.335   4.559  18.228  0.00  0.00    +0.000 OA
ATOM     19  O   UNL     1       7.444   5.437  20.115  0.00  0.00    +0.000 OA
ENDBRANCH  14  17
ENDBRANCH   2  13
BRANCH   1  21
ATOM     20  N   UNL     1       3.847   6.490  19.099  0.00  0.00    +0.000 NA
ATOM     21  C   UNL     1       4.320   5.900  18.208  0.00  0.00    +0.000 C 
ENDBRANCH   1  21
TORSDOF 4
ENDMDL
MODEL 8
REMARK VINA RESULT:      -6.3      1.553      1.824
REMARK  Name = 
REMARK  4 active torsions:
REMARK  status: ('A' for Active; 'I' for Inactive)
REMARK    1  A    between atoms: C_2  and  C_3
REMARK    2  A    between atoms: C_4  and  N_5
REMARK    3  A    between atoms: C_6  and  C_8
REMARK    4  A    between atoms: C_14  and  N_15
REMARK                            x       y       z     vdW  Elec       q    Type
REMARK                         _______ _______ _______ _____ _____    ______ ____
ROOT
ATOM      1  C   UNL     1       3.562   4.324  17.862  0.00  0.00    +0.000 A 
ATOM      2  C   UNL     1       4.247   4.984  16.813  0.00  0.00    +0.000 A 
ATOM      3  C   UNL     1       4.402   6.373  16.848  0.00  0.00    +0.000 A 
ATOM      4  C   UNL     1       3.807   7.107  17.869  0.00  0.00    +0.000 A 
ATOM      5  C   UNL     1       3.058   6.458  18.853  0.00  0.00    +0.000 A 
ATOM      6  C   UNL     1       2.909   5.057  18.891  0.00  0.00    +0.000 A 
ENDROOT
BRANCH   6   7
ATOM      7  N   UNL     1       2.167   4.484  19.908  0.00  0.00    +0.000 N 
ATOM      8  C   UNL     1       2.685   4.329  21.285  0.00  0.00    +0.000 C 
ATOM      9  C   UNL     1       2.495   2.874  21.742  0.00  0.00    +0.000 C 
ATOM     10  O   UNL     1       1.109   2.503  21.693  0.00  0.00    +0.000 OA
ATOM     11  C   UNL     1       0.622   2.587  20.338  0.00  0.00    +0.000 C 
ATOM     12  C   UNL     1       0.764   4.016  19.779  0.00  0.00    +0.000 C 
ENDBRANCH   6   7
BRANCH   2  13
ATOM     13  N   UNL     1       4.791   4.298  15.703  0.00  0.00    +0.000 N 
ATOM     14  C   UNL     1       6.154   4.271  15.391  0.00  0.00    +0.000 C 
ATOM     15  O   UNL     1       6.594   3.519  14.521  0.00  0.00    +0.000 OA
ATOM     16  H   UNL     1       4.292   3.519  15.291  0.00  0.00    +0.000 HD
BRANCH  14  17
ATOM     17  C   UNL     1       7.214   4.997  16.249  0.00  0.00    +0.000 C 
ATOM     18  O   UNL     1       7.620   6.119  15.764  0.00  0.00    +0.000 OA
ATOM     19  O   UNL     1       7.748   4.387  17.216  0.00  0.00    +0.000 OA
ENDBRANCH  14  17
ENDBRANCH   2  13
BRANCH   1  21
ATOM     20  N   UNL     1       3.774   1.748  18.139  0.00  0.00    +0.000 NA
ATOM     21  C   UNL     1       3.712   2.905  17.985  0.00  0.00    +0.000 C 
ENDBRANCH   1  21
TORSDOF 4
ENDMDL
MODEL 9
REMARK VINA RESULT:      -6.2      1.471      2.517
REMARK  Name = 
REMARK  4 active torsions:
REMARK  status: ('A' for Active; 'I' for Inactive)
REMARK    1  A    between atoms: C_2  and  C_3
REMARK    2  A    between atoms: C_4  and  N_5
REMARK    3  A    between atoms: C_6  and  C_8
REMARK    4  A    between atoms: C_14  and  N_15
REMARK                            x       y       z     vdW  Elec       q    Type
REMARK                         _______ _______ _______ _____ _____    ______ ____
ROOT
ATOM      1  C   UNL     1       4.267   4.918  18.080  0.00  0.00    +0.000 A 
ATOM      2  C   UNL     1       5.223   5.326  17.118  0.00  0.00    +0.000 A 
ATOM      3  C   UNL     1       5.493   4.510  16.015  0.00  0.00    +0.000 A 
ATOM      4  C   UNL     1       4.885   3.263  15.916  0.00  0.00    +0.000 A 
ATOM      5  C   UNL     1       4.009   2.829  16.913  0.00  0.00    +0.000 A 
ATOM      6  C   UNL     1       3.666   3.631  18.021  0.00  0.00    +0.000 A 
ENDROOT
BRANCH   6   7
ATOM      7  N   UNL     1       2.776   3.140  18.960  0.00  0.00    +0.000 N 
ATOM      8  C   UNL     1       1.312   3.301  18.833  0.00  0.00    +0.000 C 
ATOM      9  C   UNL     1       0.747   3.886  20.138  0.00  0.00    +0.000 C 
ATOM     10  O   UNL     1       1.054   3.034  21.251  0.00  0.00    +0.000 OA
ATOM     11  C   UNL     1       2.483   2.932  21.418  0.00  0.00    +0.000 C 
ATOM     12  C   UNL     1       3.153   2.349  20.159  0.00  0.00    +0.000 C 
ENDBRANCH   6   7
BRANCH   2  13
ATOM     13  N   UNL     1       5.940   6.541  17.218  0.00  0.00    +0.000 N 
ATOM     14  C   UNL     1       7.095   6.706  17.987  0.00  0.00    +0.000 C 
ATOM     15  O   UNL     1       7.778   7.727  17.903  0.00  0.00    +0.000 OA
ATOM     16  H   UNL     1       5.869   7.236  16.484  0.00  0.00    +0.000 HD
BRANCH  14  17
ATOM     17  C   UNL     1       7.713   5.554  18.811  0.00  0.00    +0.000 C 
ATOM     18  O   UNL     1       8.236   4.611  18.108  0.00  0.00    +0.000 OA
ATOM     19  O   UNL     1       7.496   5.499  20.054  0.00  0.00    +0.000 OA
ENDBRANCH  14  17
ENDBRANCH   2  13
BRANCH   1  21
ATOM     20  N   UNL     1       3.272   6.666  19.727  0.00  0.00    +0.000 NA
ATOM     21  C   UNL     1       3.759   5.899  18.992  0.00  0.00    +0.000 C 
ENDBRANCH   1  21
TORSDOF 4
ENDMDL
