MODEL 1
REMARK VINA RESULT:      -8.0      0.000      0.000
REMARK  Name = 
REMARK  4 active torsions:
REMARK  status: ('A' for Active; 'I' for Inactive)
REMARK    1  A    between atoms: C_7  and  C_8
REMARK    2  A    between atoms: N_13  and  C_14
REMARK    3  A    between atoms: N_19  and  C_20
REMARK    4  A    between atoms: C_20  and  C_21
REMARK                            x       y       z     vdW  Elec       q    Type
REMARK                         _______ _______ _______ _____ _____    ______ ____
ROOT
ATOM      1  C   UNL     1       3.948   5.179  17.814  0.00  0.00    +0.000 A 
ATOM      2  C   UNL     1       3.611   4.021  17.083  0.00  0.00    +0.000 A 
ATOM      3  N   UNL     1       4.507   3.730  16.132  0.00  0.00    +0.000 NA
ATOM      4  N   UNL     1       5.419   4.727  16.249  0.00  0.00    +0.000 N 
ATOM      5  C   UNL     1       6.547   4.941  15.433  0.00  0.00    +0.000 A 
ATOM      6  N   UNL     1       6.876   4.106  14.382  0.00  0.00    +0.000 N 
ATOM      7  N   UNL     1       7.321   5.965  15.706  0.00  0.00    +0.000 NA
ATOM      8  C   UNL     1       7.028   6.768  16.783  0.00  0.00    +0.000 A 
ATOM      9  N   UNL     1       7.853   7.820  17.031  0.00  0.00    +0.000 N 
ATOM     10  N   UNL     1       6.007   6.590  17.576  0.00  0.00    +0.000 NA
ATOM     11  C   UNL     1       5.157   5.577  17.289  0.00  0.00    +0.000 A 
ATOM     12  H   UNL     1       7.748   4.357  13.927  0.00  0.00    +0.000 HD
ATOM     13  H   UNL     1       8.510   8.072  16.305  0.00  0.00    +0.000 HD
ENDROOT
BRANCH   1  20
ATOM     14  O   UNL     1       1.853  10.074  17.493  0.00  0.00    +0.000 OA
ATOM     15  C   UNL     1       1.978   9.061  18.172  0.00  0.00    +0.000 C 
ATOM     16  N   UNL     1       1.521   8.882  19.447  0.00  0.00    +0.000 N 
ATOM     17  C   UNL     1       1.907   7.670  19.949  0.00  0.00    +0.000 C 
ATOM     18  O   UNL     1       1.713   7.226  21.063  0.00  0.00    +0.000 OA
ATOM     19  C   UNL     1       2.652   7.020  18.831  0.00  0.00    +0.000 C 
ATOM     20  C   UNL     1       3.224   5.805  18.871  0.00  0.00    +0.000 C 
ATOM     21  N   UNL     1       2.630   7.904  17.792  0.00  0.00    +0.000 N 
ATOM     22  H   UNL     1       1.037   9.588  19.973  0.00  0.00    +0.000 HD
ATOM     23  H   UNL     1       3.136   7.795  16.922  0.00  0.00    +0.000 HD
ENDBRANCH   1  20
BRANCH   6  24
ATOM     24  C   UNL     1       5.874   3.376  13.613  0.00  0.00    +0.000 C 
ATOM     25  C   UNL     1       5.140   4.003  12.458  0.00  0.00    +0.000 C 
ATOM     26  C   UNL     1       6.167   2.940  12.203  0.00  0.00    +0.000 C 
ENDBRANCH   6  24
BRANCH   9  27
ATOM     27  C   UNL     1       8.052   8.389  18.362  0.00  0.00    +0.000 C 
BRANCH  27  28
ATOM     28  C   UNL     1       8.842   9.702  18.365  0.00  0.00    +0.000 C 
ATOM     29  F   UNL     1       8.112  10.684  17.771  0.00  0.00    +0.000 F 
ATOM     30  F   UNL     1       9.041  10.107  19.648  0.00  0.00    +0.000 F 
ENDBRANCH  27  28
ENDBRANCH   9  27
TORSDOF 4
ENDMDL
MODEL 2
REMARK VINA RESULT:      -8.0      3.850      6.077
REMARK  Name = 
REMARK  4 active torsions:
REMARK  status: ('A' for Active; 'I' for Inactive)
REMARK    1  A    between atoms: C_7  and  C_8
REMARK    2  A    between atoms: N_13  and  C_14
REMARK    3  A    between atoms: N_19  and  C_20
REMARK    4  A    between atoms: C_20  and  C_21
REMARK                            x       y       z     vdW  Elec       q    Type
REMARK                         _______ _______ _______ _____ _____    ______ ____
ROOT
ATOM      1  C   UNL     1       3.462   5.237  17.677  0.00  0.00    +0.000 A 
ATOM      2  C   UNL     1       3.668   6.426  18.408  0.00  0.00    +0.000 A 
ATOM      3  N   UNL     1       4.770   7.083  18.028  0.00  0.00    +0.000 NA
ATOM      4  N   UNL     1       5.282   6.292  17.052  0.00  0.00    +0.000 N 
ATOM      5  C   UNL     1       6.490   6.485  16.353  0.00  0.00    +0.000 A 
ATOM      6  N   UNL     1       7.319   7.566  16.583  0.00  0.00    +0.000 N 
ATOM      7  N   UNL     1       6.818   5.609  15.433  0.00  0.00    +0.000 NA
ATOM      8  C   UNL     1       5.971   4.560  15.163  0.00  0.00    +0.000 A 
ATOM      9  N   UNL     1       6.348   3.672  14.206  0.00  0.00    +0.000 N 
ATOM     10  N   UNL     1       4.834   4.359  15.771  0.00  0.00    +0.000 NA
ATOM     11  C   UNL     1       4.492   5.212  16.765  0.00  0.00    +0.000 A 
ATOM     12  H   UNL     1       8.120   7.598  15.960  0.00  0.00    +0.000 HD
ATOM     13  H   UNL     1       7.308   3.714  13.890  0.00  0.00    +0.000 HD
ENDROOT
BRANCH   1  20
ATOM     14  O   UNL     1       2.034   3.087  22.345  0.00  0.00    +0.000 OA
ATOM     15  C   UNL     1       1.801   3.163  21.144  0.00  0.00    +0.000 C 
ATOM     16  N   UNL     1       0.858   2.452  20.458  0.00  0.00    +0.000 N 
ATOM     17  C   UNL     1       0.920   2.707  19.116  0.00  0.00    +0.000 C 
ATOM     18  O   UNL     1       0.262   2.204  18.227  0.00  0.00    +0.000 OA
ATOM     19  C   UNL     1       2.003   3.725  18.977  0.00  0.00    +0.000 C 
ATOM     20  C   UNL     1       2.421   4.274  17.823  0.00  0.00    +0.000 C 
ATOM     21  N   UNL     1       2.465   3.966  20.237  0.00  0.00    +0.000 N 
ATOM     22  H   UNL     1       0.256   1.768  20.879  0.00  0.00    +0.000 HD
ATOM     23  H   UNL     1       3.270   4.537  20.465  0.00  0.00    +0.000 HD
ENDBRANCH   1  20
BRANCH   6  24
ATOM     24  C   UNL     1       7.422   8.216  17.885  0.00  0.00    +0.000 C 
ATOM     25  C   UNL     1       8.633   8.055  18.765  0.00  0.00    +0.000 C 
ATOM     26  C   UNL     1       8.371   9.367  18.087  0.00  0.00    +0.000 C 
ENDBRANCH   6  24
BRANCH   9  27
ATOM     27  C   UNL     1       5.399   2.896  13.410  0.00  0.00    +0.000 C 
BRANCH  27  28
ATOM     28  C   UNL     1       5.587   3.047  11.896  0.00  0.00    +0.000 C 
ATOM     29  F   UNL     1       5.721   1.821  11.322  0.00  0.00    +0.000 F 
ATOM     30  F   UNL     1       4.467   3.595  11.354  0.00  0.00    +0.000 F 
ENDBRANCH  27  28
ENDBRANCH   9  27
TORSDOF 4
ENDMDL
MODEL 3
REMARK VINA RESULT:      -7.7      4.067      7.639
REMARK  Name = 
REMARK  4 active torsions:
REMARK  status: ('A' for Active; 'I' for Inactive)
REMARK    1  A    between atoms: C_7  and  C_8
REMARK    2  A    between atoms: N_13  and  C_14
REMARK    3  A    between atoms: N_19  and  C_20
REMARK    4  A    between atoms: C_20  and  C_21
REMARK                            x       y       z     vdW  Elec       q    Type
REMARK                         _______ _______ _______ _____ _____    ______ ____
ROOT
ATOM      1  C   UNL     1       3.663   7.115  17.525  0.00  0.00    +0.000 A 
ATOM      2  C   UNL     1       3.260   8.458  17.689  0.00  0.00    +0.000 A 
ATOM      3  N   UNL     1       2.503   8.642  18.776  0.00  0.00    +0.000 NA
ATOM      4  N   UNL     1       2.408   7.395  19.304  0.00  0.00    +0.000 N 
ATOM      5  C   UNL     1       1.657   7.009  20.431  0.00  0.00    +0.000 A 
ATOM      6  N   UNL     1       0.910   7.905  21.172  0.00  0.00    +0.000 N 
ATOM      7  N   UNL     1       1.693   5.749  20.795  0.00  0.00    +0.000 NA
ATOM      8  C   UNL     1       2.476   4.863  20.093  0.00  0.00    +0.000 A 
ATOM      9  N   UNL     1       2.484   3.566  20.499  0.00  0.00    +0.000 N 
ATOM     10  N   UNL     1       3.204   5.185  19.059  0.00  0.00    +0.000 NA
ATOM     11  C   UNL     1       3.145   6.466  18.622  0.00  0.00    +0.000 A 
ATOM     12  H   UNL     1       0.474   7.487  21.988  0.00  0.00    +0.000 HD
ATOM     13  H   UNL     1       1.771   3.285  21.158  0.00  0.00    +0.000 HD
ENDROOT
BRANCH   1  20
ATOM     14  O   UNL     1       8.170   4.377  18.328  0.00  0.00    +0.000 OA
ATOM     15  C   UNL     1       7.346   4.767  17.508  0.00  0.00    +0.000 C 
ATOM     16  N   UNL     1       7.415   4.604  16.154  0.00  0.00    +0.000 N 
ATOM     17  C   UNL     1       6.381   5.237  15.522  0.00  0.00    +0.000 C 
ATOM     18  O   UNL     1       6.179   5.331  14.327  0.00  0.00    +0.000 OA
ATOM     19  C   UNL     1       5.566   5.821  16.627  0.00  0.00    +0.000 C 
ATOM     20  C   UNL     1       4.443   6.543  16.477  0.00  0.00    +0.000 C 
ATOM     21  N   UNL     1       6.193   5.475  17.788  0.00  0.00    +0.000 N 
ATOM     22  H   UNL     1       8.176   4.147  15.682  0.00  0.00    +0.000 HD
ATOM     23  H   UNL     1       5.939   5.806  18.711  0.00  0.00    +0.000 HD
ENDBRANCH   1  20
BRANCH   6  24
ATOM     24  C   UNL     1       0.300   9.094  20.587  0.00  0.00    +0.000 C 
ATOM     25  C   UNL     1      -0.606   9.999  21.379  0.00  0.00    +0.000 C 
ATOM     26  C   UNL     1       0.766  10.466  20.995  0.00  0.00    +0.000 C 
ENDBRANCH   6  24
BRANCH   9  27
ATOM     27  C   UNL     1       3.615   2.664  20.287  0.00  0.00    +0.000 C 
BRANCH  27  28
ATOM     28  C   UNL     1       3.503   1.814  19.017  0.00  0.00    +0.000 C 
ATOM     29  F   UNL     1       2.205   1.747  18.617  0.00  0.00    +0.000 F 
ATOM     30  F   UNL     1       4.176   2.424  18.004  0.00  0.00    +0.000 F 
ENDBRANCH  27  28
ENDBRANCH   9  27
TORSDOF 4
ENDMDL
MODEL 4
REMARK VINA RESULT:      -7.6      1.921      2.741
REMARK  Name = 
REMARK  4 active torsions:
REMARK  status: ('A' for Active; 'I' for Inactive)
REMARK    1  A    between atoms: C_7  and  C_8
REMARK    2  A    between atoms: N_13  and  C_14
REMARK    3  A    between atoms: N_19  and  C_20
REMARK    4  A    between atoms: C_20  and  C_21
REMARK                            x       y       z     vdW  Elec       q    Type
REMARK                         _______ _______ _______ _____ _____    ______ ____
ROOT
ATOM      1  C   UNL     1       3.890   4.784  17.453  0.00  0.00    +0.000 A 
ATOM      2  C   UNL     1       3.553   3.661  16.669  0.00  0.00    +0.000 A 
ATOM      3  N   UNL     1       4.450   3.412  15.709  0.00  0.00    +0.000 NA
ATOM      4  N   UNL     1       5.363   4.401  15.872  0.00  0.00    +0.000 N 
ATOM      5  C   UNL     1       6.493   4.650  15.069  0.00  0.00    +0.000 A 
ATOM      6  N   UNL     1       6.824   3.863  13.981  0.00  0.00    +0.000 N 
ATOM      7  N   UNL     1       7.269   5.659  15.389  0.00  0.00    +0.000 NA
ATOM      8  C   UNL     1       6.975   6.414  16.501  0.00  0.00    +0.000 A 
ATOM      9  N   UNL     1       7.800   7.452  16.797  0.00  0.00    +0.000 N 
ATOM     10  N   UNL     1       5.952   6.201  17.283  0.00  0.00    +0.000 NA
ATOM     11  C   UNL     1       5.100   5.203  16.948  0.00  0.00    +0.000 A 
ATOM     12  H   UNL     1       7.697   4.133  13.540  0.00  0.00    +0.000 HD
ATOM     13  H   UNL     1       8.459   7.736  16.085  0.00  0.00    +0.000 HD
ENDROOT
BRANCH   1  20
ATOM     14  O   UNL     1       2.732   2.198  21.971  0.00  0.00    +0.000 OA
ATOM     15  C   UNL     1       2.676   3.260  21.361  0.00  0.00    +0.000 C 
ATOM     16  N   UNL     1       2.058   4.402  21.784  0.00  0.00    +0.000 N 
ATOM     17  C   UNL     1       2.102   5.377  20.826  0.00  0.00    +0.000 C 
ATOM     18  O   UNL     1       1.604   6.485  20.862  0.00  0.00    +0.000 OA
ATOM     19  C   UNL     1       2.873   4.766  19.704  0.00  0.00    +0.000 C 
ATOM     20  C   UNL     1       3.165   5.363  18.536  0.00  0.00    +0.000 C 
ATOM     21  N   UNL     1       3.205   3.506  20.110  0.00  0.00    +0.000 N 
ATOM     22  H   UNL     1       1.563   4.482  22.655  0.00  0.00    +0.000 HD
ATOM     23  H   UNL     1       3.646   2.803  19.529  0.00  0.00    +0.000 HD
ENDBRANCH   1  20
BRANCH   6  24
ATOM     24  C   UNL     1       5.822   3.170  13.179  0.00  0.00    +0.000 C 
ATOM     25  C   UNL     1       5.241   3.775  11.929  0.00  0.00    +0.000 C 
ATOM     26  C   UNL     1       6.183   2.614  11.828  0.00  0.00    +0.000 C 
ENDBRANCH   6  24
BRANCH   9  27
ATOM     27  C   UNL     1       7.997   7.960  18.153  0.00  0.00    +0.000 C 
BRANCH  27  28
ATOM     28  C   UNL     1       8.699   9.322  18.212  0.00  0.00    +0.000 C 
ATOM     29  F   UNL     1       7.847  10.300  17.805  0.00  0.00    +0.000 F 
ATOM     30  F   UNL     1       9.015   9.612  19.502  0.00  0.00    +0.000 F 
ENDBRANCH  27  28
ENDBRANCH   9  27
TORSDOF 4
ENDMDL
MODEL 5
REMARK VINA RESULT:      -7.6      3.661      6.703
REMARK  Name = 
REMARK  4 active torsions:
REMARK  status: ('A' for Active; 'I' for Inactive)
REMARK    1  A    between atoms: C_7  and  C_8
REMARK    2  A    between atoms: N_13  and  C_14
REMARK    3  A    between atoms: N_19  and  C_20
REMARK    4  A    between atoms: C_20  and  C_21
REMARK                            x       y       z     vdW  Elec       q    Type
REMARK                         _______ _______ _______ _____ _____    ______ ____
ROOT
ATOM      1  C   UNL     1       1.803   6.733  20.449  0.00  0.00    +0.000 A 
ATOM      2  C   UNL     1       0.949   7.778  20.859  0.00  0.00    +0.000 A 
ATOM      3  N   UNL     1       1.000   8.838  20.044  0.00  0.00    +0.000 NA
ATOM      4  N   UNL     1       1.913   8.469  19.111  0.00  0.00    +0.000 N 
ATOM      5  C   UNL     1       2.398   9.253  18.046  0.00  0.00    +0.000 A 
ATOM      6  N   UNL     1       1.963  10.544  17.812  0.00  0.00    +0.000 N 
ATOM      7  N   UNL     1       3.282   8.718  17.238  0.00  0.00    +0.000 NA
ATOM      8  C   UNL     1       3.679   7.415  17.434  0.00  0.00    +0.000 A 
ATOM      9  N   UNL     1       4.598   6.898  16.577  0.00  0.00    +0.000 N 
ATOM     10  N   UNL     1       3.236   6.649  18.393  0.00  0.00    +0.000 NA
ATOM     11  C   UNL     1       2.366   7.189  19.279  0.00  0.00    +0.000 A 
ATOM     12  H   UNL     1       2.360  10.957  16.975  0.00  0.00    +0.000 HD
ATOM     13  H   UNL     1       5.084   7.549  15.974  0.00  0.00    +0.000 HD
ENDROOT
BRANCH   1  20
ATOM     14  O   UNL     1       0.349   2.047  18.357  0.00  0.00    +0.000 OA
ATOM     15  C   UNL     1       0.924   2.618  19.275  0.00  0.00    +0.000 C 
ATOM     16  N   UNL     1       1.463   2.027  20.383  0.00  0.00    +0.000 N 
ATOM     17  C   UNL     1       1.951   2.957  21.258  0.00  0.00    +0.000 C 
ATOM     18  O   UNL     1       2.443   2.769  22.353  0.00  0.00    +0.000 OA
ATOM     19  C   UNL     1       1.715   4.267  20.583  0.00  0.00    +0.000 C 
ATOM     20  C   UNL     1       2.034   5.475  21.079  0.00  0.00    +0.000 C 
ATOM     21  N   UNL     1       1.121   3.981  19.389  0.00  0.00    +0.000 N 
ATOM     22  H   UNL     1       1.427   1.040  20.564  0.00  0.00    +0.000 HD
ATOM     23  H   UNL     1       0.746   4.666  18.744  0.00  0.00    +0.000 HD
ENDBRANCH   1  20
BRANCH   6  24
ATOM     24  C   UNL     1       1.518  11.430  18.882  0.00  0.00    +0.000 C 
ATOM     25  C   UNL     1       1.971  12.863  18.973  0.00  0.00    +0.000 C 
ATOM     26  C   UNL     1       0.555  12.550  18.590  0.00  0.00    +0.000 C 
ENDBRANCH   6  24
BRANCH   9  27
ATOM     27  C   UNL     1       4.695   5.473  16.267  0.00  0.00    +0.000 C 
BRANCH  27  28
ATOM     28  C   UNL     1       5.716   5.143  15.171  0.00  0.00    +0.000 C 
ATOM     29  F   UNL     1       6.763   4.458  15.705  0.00  0.00    +0.000 F 
ATOM     30  F   UNL     1       5.147   4.309  14.260  0.00  0.00    +0.000 F 
ENDBRANCH  27  28
ENDBRANCH   9  27
TORSDOF 4
ENDMDL
MODEL 6
REMARK VINA RESULT:      -7.5      3.644      5.107
REMARK  Name = 
REMARK  4 active torsions:
REMARK  status: ('A' for Active; 'I' for Inactive)
REMARK    1  A    between atoms: C_7  and  C_8
REMARK    2  A    between atoms: N_13  and  C_14
REMARK    3  A    between atoms: N_19  and  C_20
REMARK    4  A    between atoms: C_20  and  C_21
REMARK                            x       y       z     vdW  Elec       q    Type
REMARK                         _______ _______ _______ _____ _____    ______ ____
ROOT
ATOM      1  C   UNL     1       2.880   6.948  18.739  0.00  0.00    +0.000 A 
ATOM      2  C   UNL     1       3.528   7.599  17.668  0.00  0.00    +0.000 A 
ATOM      3  N   UNL     1       4.084   6.743  16.803  0.00  0.00    +0.000 NA
ATOM      4  N   UNL     1       3.801   5.531  17.340  0.00  0.00    +0.000 N 
ATOM      5  C   UNL     1       4.219   4.274  16.859  0.00  0.00    +0.000 A 
ATOM      6  N   UNL     1       4.987   4.130  15.719  0.00  0.00    +0.000 N 
ATOM      7  N   UNL     1       3.839   3.204  17.516  0.00  0.00    +0.000 NA
ATOM      8  C   UNL     1       3.030   3.338  18.620  0.00  0.00    +0.000 A 
ATOM      9  N   UNL     1       2.661   2.206  19.275  0.00  0.00    +0.000 N 
ATOM     10  N   UNL     1       2.603   4.481  19.083  0.00  0.00    +0.000 NA
ATOM     11  C   UNL     1       3.023   5.608  18.463  0.00  0.00    +0.000 A 
ATOM     12  H   UNL     1       5.157   3.161  15.468  0.00  0.00    +0.000 HD
ATOM     13  H   UNL     1       3.155   1.355  19.041  0.00  0.00    +0.000 HD
ENDROOT
BRANCH   1  20
ATOM     14  O   UNL     1      -0.085  11.373  18.459  0.00  0.00    +0.000 OA
ATOM     15  C   UNL     1       0.314  10.456  19.168  0.00  0.00    +0.000 C 
ATOM     16  N   UNL     1       0.079  10.310  20.506  0.00  0.00    +0.000 N 
ATOM     17  C   UNL     1       0.743   9.227  21.013  0.00  0.00    +0.000 C 
ATOM     18  O   UNL     1       0.789   8.851  22.167  0.00  0.00    +0.000 OA
ATOM     19  C   UNL     1       1.429   8.622  19.834  0.00  0.00    +0.000 C 
ATOM     20  C   UNL     1       2.210   7.528  19.856  0.00  0.00    +0.000 C 
ATOM     21  N   UNL     1       1.103   9.399  18.761  0.00  0.00    +0.000 N 
ATOM     22  H   UNL     1      -0.445  10.965  21.058  0.00  0.00    +0.000 HD
ATOM     23  H   UNL     1       1.495   9.305  17.832  0.00  0.00    +0.000 HD
ENDBRANCH   1  20
BRANCH   6  24
ATOM     24  C   UNL     1       5.943   5.141  15.281  0.00  0.00    +0.000 C 
ATOM     25  C   UNL     1       7.410   5.048  15.609  0.00  0.00    +0.000 C 
ATOM     26  C   UNL     1       6.942   4.825  14.202  0.00  0.00    +0.000 C 
ENDBRANCH   6  24
BRANCH   9  27
ATOM     27  C   UNL     1       1.423   2.088  20.043  0.00  0.00    +0.000 C 
BRANCH  27  28
ATOM     28  C   UNL     1       1.552   2.533  21.504  0.00  0.00    +0.000 C 
ATOM     29  F   UNL     1       2.848   2.437  21.905  0.00  0.00    +0.000 F 
ATOM     30  F   UNL     1       1.224   3.849  21.606  0.00  0.00    +0.000 F 
ENDBRANCH  27  28
ENDBRANCH   9  27
TORSDOF 4
ENDMDL
MODEL 7
REMARK VINA RESULT:      -7.4      4.204      7.768
REMARK  Name = 
REMARK  4 active torsions:
REMARK  status: ('A' for Active; 'I' for Inactive)
REMARK    1  A    between atoms: C_7  and  C_8
REMARK    2  A    between atoms: N_13  and  C_14
REMARK    3  A    between atoms: N_19  and  C_20
REMARK    4  A    between atoms: C_20  and  C_21
REMARK                            x       y       z     vdW  Elec       q    Type
REMARK                         _______ _______ _______ _____ _____    ______ ____
ROOT
ATOM      1  C   UNL     1       3.509   6.913  17.619  0.00  0.00    +0.000 A 
ATOM      2  C   UNL     1       3.350   8.309  17.487  0.00  0.00    +0.000 A 
ATOM      3  N   UNL     1       2.605   8.840  18.464  0.00  0.00    +0.000 NA
ATOM      4  N   UNL     1       2.270   7.764  19.218  0.00  0.00    +0.000 N 
ATOM      5  C   UNL     1       1.426   7.752  20.346  0.00  0.00    +0.000 A 
ATOM      6  N   UNL     1       0.830   8.895  20.844  0.00  0.00    +0.000 N 
ATOM      7  N   UNL     1       1.222   6.606  20.953  0.00  0.00    +0.000 NA
ATOM      8  C   UNL     1       1.854   5.474  20.493  0.00  0.00    +0.000 A 
ATOM      9  N   UNL     1       1.615   4.307  21.147  0.00  0.00    +0.000 N 
ATOM     10  N   UNL     1       2.661   5.448  19.468  0.00  0.00    +0.000 NA
ATOM     11  C   UNL     1       2.848   6.602  18.785  0.00  0.00    +0.000 A 
ATOM     12  H   UNL     1       0.300   8.734  21.694  0.00  0.00    +0.000 HD
ATOM     13  H   UNL     1       0.842   4.293  21.799  0.00  0.00    +0.000 HD
ENDROOT
BRANCH   1  20
ATOM     14  O   UNL     1       8.259   4.778  18.770  0.00  0.00    +0.000 OA
ATOM     15  C   UNL     1       7.323   4.816  17.979  0.00  0.00    +0.000 C 
ATOM     16  N   UNL     1       7.252   4.165  16.780  0.00  0.00    +0.000 N 
ATOM     17  C   UNL     1       6.112   4.495  16.101  0.00  0.00    +0.000 C 
ATOM     18  O   UNL     1       5.771   4.135  14.992  0.00  0.00    +0.000 OA
ATOM     19  C   UNL     1       5.386   5.426  17.014  0.00  0.00    +0.000 C 
ATOM     20  C   UNL     1       4.205   6.013  16.759  0.00  0.00    +0.000 C 
ATOM     21  N   UNL     1       6.162   5.549  18.130  0.00  0.00    +0.000 N 
ATOM     22  H   UNL     1       7.985   3.586  16.413  0.00  0.00    +0.000 HD
ATOM     23  H   UNL     1       5.989   6.192  18.893  0.00  0.00    +0.000 HD
ENDBRANCH   1  20
BRANCH   6  24
ATOM     24  C   UNL     1       0.464  10.024  19.997  0.00  0.00    +0.000 C 
ATOM     25  C   UNL     1      -0.893  10.132  19.353  0.00  0.00    +0.000 C 
ATOM     26  C   UNL     1      -0.526  11.048  20.482  0.00  0.00    +0.000 C 
ENDBRANCH   6  24
BRANCH   9  27
ATOM     27  C   UNL     1       2.570   3.201  21.194  0.00  0.00    +0.000 C 
BRANCH  27  28
ATOM     28  C   UNL     1       2.322   2.119  20.137  0.00  0.00    +0.000 C 
ATOM     29  F   UNL     1       1.083   2.274  19.597  0.00  0.00    +0.000 F 
ATOM     30  F   UNL     1       3.201   2.278  19.112  0.00  0.00    +0.000 F 
ENDBRANCH  27  28
ENDBRANCH   9  27
TORSDOF 4
ENDMDL
MODEL 8
REMARK VINA RESULT:      -7.4      4.606      7.678
REMARK  Name = 
REMARK  4 active torsions:
REMARK  status: ('A' for Active; 'I' for Inactive)
REMARK    1  A    between atoms: C_7  and  C_8
REMARK    2  A    between atoms: N_13  and  C_14
REMARK    3  A    between atoms: N_19  and  C_20
REMARK    4  A    between atoms: C_20  and  C_21
REMARK                            x       y       z     vdW  Elec       q    Type
REMARK                         _______ _______ _______ _____ _____    ______ ____
ROOT
ATOM      1  C   UNL     1       5.779   4.739  14.691  0.00  0.00    +0.000 A 
ATOM      2  C   UNL     1       7.054   5.342  14.637  0.00  0.00    +0.000 A 
ATOM      3  N   UNL     1       7.472   5.777  15.831  0.00  0.00    +0.000 NA
ATOM      4  N   UNL     1       6.442   5.461  16.655  0.00  0.00    +0.000 N 
ATOM      5  C   UNL     1       6.333   5.763  18.027  0.00  0.00    +0.000 A 
ATOM      6  N   UNL     1       7.321   6.432  18.724  0.00  0.00    +0.000 N 
ATOM      7  N   UNL     1       5.254   5.368  18.662  0.00  0.00    +0.000 NA
ATOM      8  C   UNL     1       4.292   4.656  17.986  0.00  0.00    +0.000 A 
ATOM      9  N   UNL     1       3.189   4.268  18.678  0.00  0.00    +0.000 N 
ATOM     10  N   UNL     1       4.366   4.336  16.723  0.00  0.00    +0.000 NA
ATOM     11  C   UNL     1       5.439   4.777  16.024  0.00  0.00    +0.000 A 
ATOM     12  H   UNL     1       7.123   6.522  19.715  0.00  0.00    +0.000 HD
ATOM     13  H   UNL     1       3.042   4.689  19.586  0.00  0.00    +0.000 HD
ENDROOT
BRANCH   1  20
ATOM     14  O   UNL     1       7.772   1.531  10.924  0.00  0.00    +0.000 OA
ATOM     15  C   UNL     1       6.769   2.068  11.380  0.00  0.00    +0.000 C 
ATOM     16  N   UNL     1       5.514   2.021  10.843  0.00  0.00    +0.000 N 
ATOM     17  C   UNL     1       4.640   2.803  11.547  0.00  0.00    +0.000 C 
ATOM     18  O   UNL     1       3.470   3.022  11.306  0.00  0.00    +0.000 OA
ATOM     19  C   UNL     1       5.454   3.358  12.668  0.00  0.00    +0.000 C 
ATOM     20  C   UNL     1       5.008   4.193  13.623  0.00  0.00    +0.000 C 
ATOM     21  N   UNL     1       6.712   2.852  12.515  0.00  0.00    +0.000 N 
ATOM     22  H   UNL     1       5.286   1.540   9.991  0.00  0.00    +0.000 HD
ATOM     23  H   UNL     1       7.520   3.122  13.063  0.00  0.00    +0.000 HD
ENDBRANCH   1  20
BRANCH   6  24
ATOM     24  C   UNL     1       8.200   7.413  18.097  0.00  0.00    +0.000 C 
ATOM     25  C   UNL     1       7.711   8.777  17.688  0.00  0.00    +0.000 C 
ATOM     26  C   UNL     1       8.639   8.634  18.857  0.00  0.00    +0.000 C 
ENDBRANCH   6  24
BRANCH   9  27
ATOM     27  C   UNL     1       2.399   3.086  18.336  0.00  0.00    +0.000 C 
BRANCH  27  28
ATOM     28  C   UNL     1       1.233   2.818  19.294  0.00  0.00    +0.000 C 
ATOM     29  F   UNL     1       0.733   3.996  19.757  0.00  0.00    +0.000 F 
ATOM     30  F   UNL     1       0.218   2.221  18.615  0.00  0.00    +0.000 F 
ENDBRANCH  27  28
ENDBRANCH   9  27
TORSDOF 4
ENDMDL
MODEL 9
REMARK VINA RESULT:      -7.3      5.560      9.914
REMARK  Name = 
REMARK  4 active torsions:
REMARK  status: ('A' for Active; 'I' for Inactive)
REMARK    1  A    between atoms: C_7  and  C_8
REMARK    2  A    between atoms: N_13  and  C_14
REMARK    3  A    between atoms: N_19  and  C_20
REMARK    4  A    between atoms: C_20  and  C_21
REMARK                            x       y       z     vdW  Elec       q    Type
REMARK                         _______ _______ _______ _____ _____    ______ ____
ROOT
ATOM      1  C   UNL     1       1.104   9.290  20.019  0.00  0.00    +0.000 A 
ATOM      2  C   UNL     1       1.241   9.637  21.380  0.00  0.00    +0.000 A 
ATOM      3  N   UNL     1       0.358  10.564  21.769  0.00  0.00    +0.000 NA
ATOM      4  N   UNL     1      -0.340  10.824  20.636  0.00  0.00    +0.000 N 
ATOM      5  C   UNL     1      -1.356  11.785  20.470  0.00  0.00    +0.000 A 
ATOM      6  N   UNL     1      -1.788  12.599  21.500  0.00  0.00    +0.000 N 
ATOM      7  N   UNL     1      -1.923  11.888  19.291  0.00  0.00    +0.000 NA
ATOM      8  C   UNL     1      -1.534  11.045  18.276  0.00  0.00    +0.000 A 
ATOM      9  N   UNL     1      -2.143  11.185  17.069  0.00  0.00    +0.000 N 
ATOM     10  N   UNL     1      -0.614  10.127  18.396  0.00  0.00    +0.000 NA
ATOM     11  C   UNL     1       0.030  10.033  19.583  0.00  0.00    +0.000 A 
ATOM     12  H   UNL     1      -2.565  13.197  21.241  0.00  0.00    +0.000 HD
ATOM     13  H   UNL     1      -2.695  12.020  16.925  0.00  0.00    +0.000 HD
ENDROOT
BRANCH   1  20
ATOM     14  O   UNL     1       2.219   4.316  21.587  0.00  0.00    +0.000 OA
ATOM     15  C   UNL     1       2.317   5.149  20.694  0.00  0.00    +0.000 C 
ATOM     16  N   UNL     1       3.002   4.999  19.521  0.00  0.00    +0.000 N 
ATOM     17  C   UNL     1       2.989   6.151  18.785  0.00  0.00    +0.000 C 
ATOM     18  O   UNL     1       3.543   6.369  17.726  0.00  0.00    +0.000 OA
ATOM     19  C   UNL     1       2.164   7.101  19.589  0.00  0.00    +0.000 C 
ATOM     20  C   UNL     1       1.880   8.371  19.254  0.00  0.00    +0.000 C 
ATOM     21  N   UNL     1       1.776   6.420  20.705  0.00  0.00    +0.000 N 
ATOM     22  H   UNL     1       3.518   4.173  19.275  0.00  0.00    +0.000 HD
ATOM     23  H   UNL     1       1.288   6.824  21.495  0.00  0.00    +0.000 HD
ENDBRANCH   1  20
BRANCH   6  24
ATOM     24  C   UNL     1      -0.912  13.025  22.587  0.00  0.00    +0.000 C 
ATOM     25  C   UNL     1      -0.458  14.452  22.733  0.00  0.00    +0.000 C 
ATOM     26  C   UNL     1      -1.448  13.879  23.703  0.00  0.00    +0.000 C 
ENDBRANCH   6  24
BRANCH   9  27
ATOM     27  C   UNL     1      -2.296  10.089  16.114  0.00  0.00    +0.000 C 
BRANCH  27  28
ATOM     28  C   UNL     1      -3.025  10.485  14.825  0.00  0.00    +0.000 C 
ATOM     29  F   UNL     1      -2.499   9.807  13.769  0.00  0.00    +0.000 F 
ATOM     30  F   UNL     1      -4.327  10.101  14.906  0.00  0.00    +0.000 F 
ENDBRANCH  27  28
ENDBRANCH   9  27
TORSDOF 4
ENDMDL
