MODEL 1
REMARK VINA RESULT:     -10.3      0.000      0.000
REMARK  Name = 
REMARK  5 active torsions:
REMARK  status: ('A' for Active; 'I' for Inactive)
REMARK    1  A    between atoms: C_5  and  C_6
REMARK    2  A    between atoms: C_11  and  O_12
REMARK    3  A    between atoms: O_12  and  C_13
REMARK    4  A    between atoms: C_16  and  C_17
REMARK    5  A    between atoms: C_17  and  C_19
REMARK                            x       y       z     vdW  Elec       q    Type
REMARK                         _______ _______ _______ _____ _____    ______ ____
ROOT
ATOM      1  C   UNL     1       2.208   7.302  19.558  0.00  0.00    +0.000 A 
ATOM      2  C   UNL     1       1.464   7.977  20.529  0.00  0.00    +0.000 A 
ATOM      3  C   UNL     1       0.854   9.213  20.238  0.00  0.00    +0.000 A 
ATOM      4  C   UNL     1       0.980   9.811  18.970  0.00  0.00    +0.000 A 
ATOM      5  C   UNL     1       1.674   9.089  17.989  0.00  0.00    +0.000 A 
ATOM      6  C   UNL     1       2.291   7.862  18.283  0.00  0.00    +0.000 A 
ENDROOT
BRANCH   4   7
ATOM      7  C   UNL     1       0.436  11.214  18.773  0.00  0.00    +0.000 C 
ATOM      8  O   UNL     1       1.242  12.145  18.751  0.00  0.00    +0.000 OA
BRANCH   7   9
ATOM      9  C   UNL     1      -0.984  11.463  18.541  0.00  0.00    +0.000 A 
ATOM     10  N   UNL     1      -1.853  11.925  19.419  0.00  0.00    +0.000 NA
ATOM     11  C   UNL     1      -3.076  11.906  18.812  0.00  0.00    +0.000 A 
ATOM     12  C   UNL     1      -4.328  12.254  19.335  0.00  0.00    +0.000 A 
ATOM     13  C   UNL     1      -5.457  12.094  18.527  0.00  0.00    +0.000 A 
ATOM     14  C   UNL     1      -5.336  11.608  17.222  0.00  0.00    +0.000 A 
ATOM     15  C   UNL     1      -4.085  11.280  16.675  0.00  0.00    +0.000 A 
ATOM     16  C   UNL     1      -2.973  11.441  17.509  0.00  0.00    +0.000 A 
ATOM     17  N   UNL     1      -1.625  11.229  17.337  0.00  0.00    +0.000 N 
ATOM     18  H   UNL     1      -1.164  10.895  16.501  0.00  0.00    +0.000 HD
ENDBRANCH   7   9
ENDBRANCH   4   7
BRANCH   1  19
ATOM     19  O   UNL     1       2.921   6.181  19.954  0.00  0.00    +0.000 OA
BRANCH  19  25
ATOM     20  C   UNL     1       3.335   4.330  18.450  0.00  0.00    +0.000 A 
ATOM     21  C   UNL     1       2.887   3.081  17.975  0.00  0.00    +0.000 A 
ATOM     22  C   UNL     1       1.752   2.481  18.502  0.00  0.00    +0.000 A 
ATOM     23  C   UNL     1       1.085   3.142  19.509  0.00  0.00    +0.000 A 
ATOM     24  N   UNL     1       1.463   4.343  19.991  0.00  0.00    +0.000 NA
ATOM     25  C   UNL     1       2.555   4.940  19.444  0.00  0.00    +0.000 A 
BRANCH  20  30
ATOM     26  O   UNL     1       7.463   4.984  14.440  0.00  0.00    +0.000 OA
ATOM     27  C   UNL     1       6.952   5.169  15.542  0.00  0.00    +0.000 C 
ATOM     28  C   UNL     1       5.634   5.887  15.708  0.00  0.00    +0.000 C 
ATOM     29  C   UNL     1       4.541   4.988  16.297  0.00  0.00    +0.000 C 
ATOM     30  C   UNL     1       4.619   4.868  17.827  0.00  0.00    +0.000 C 
ATOM     31  C   UNL     1       5.873   4.149  18.352  0.00  0.00    +0.000 C 
ATOM     32  C   UNL     1       7.159   4.916  18.031  0.00  0.00    +0.000 C 
ATOM     33  N   UNL     1       7.586   4.730  16.665  0.00  0.00    +0.000 N 
ATOM     34  H   UNL     1       8.471   4.270  16.483  0.00  0.00    +0.000 HD
ENDBRANCH  20  30
ENDBRANCH  19  25
ENDBRANCH   1  19
TORSDOF 5
ENDMDL
MODEL 2
REMARK VINA RESULT:     -10.2      0.979      1.095
REMARK  Name = 
REMARK  5 active torsions:
REMARK  status: ('A' for Active; 'I' for Inactive)
REMARK    1  A    between atoms: C_5  and  C_6
REMARK    2  A    between atoms: C_11  and  O_12
REMARK    3  A    between atoms: O_12  and  C_13
REMARK    4  A    between atoms: C_16  and  C_17
REMARK    5  A    between atoms: C_17  and  C_19
REMARK                            x       y       z     vdW  Elec       q    Type
REMARK                         _______ _______ _______ _____ _____    ______ ____
ROOT
ATOM      1  C   UNL     1       2.611   6.671  19.751  0.00  0.00    +0.000 A 
ATOM      2  C   UNL     1       1.831   7.129  20.816  0.00  0.00    +0.000 A 
ATOM      3  C   UNL     1       1.114   8.337  20.715  0.00  0.00    +0.000 A 
ATOM      4  C   UNL     1       1.164   9.123  19.548  0.00  0.00    +0.000 A 
ATOM      5  C   UNL     1       1.898   8.616  18.467  0.00  0.00    +0.000 A 
ATOM      6  C   UNL     1       2.622   7.417  18.572  0.00  0.00    +0.000 A 
ENDROOT
BRANCH   4   7
ATOM      7  C   UNL     1       0.501  10.487  19.566  0.00  0.00    +0.000 C 
ATOM      8  O   UNL     1       1.047  11.385  20.208  0.00  0.00    +0.000 OA
BRANCH   7   9
ATOM      9  C   UNL     1      -0.705  10.766  18.789  0.00  0.00    +0.000 A 
ATOM     10  N   UNL     1      -1.823  11.298  19.242  0.00  0.00    +0.000 NA
ATOM     11  C   UNL     1      -2.714  11.284  18.207  0.00  0.00    +0.000 A 
ATOM     12  C   UNL     1      -4.053  11.695  18.188  0.00  0.00    +0.000 A 
ATOM     13  C   UNL     1      -4.786  11.528  17.010  0.00  0.00    +0.000 A 
ATOM     14  C   UNL     1      -4.191  10.974  15.873  0.00  0.00    +0.000 A 
ATOM     15  C   UNL     1      -2.843  10.581  15.869  0.00  0.00    +0.000 A 
ATOM     16  C   UNL     1      -2.136  10.752  17.064  0.00  0.00    +0.000 A 
ATOM     17  N   UNL     1      -0.838  10.491  17.439  0.00  0.00    +0.000 N 
ATOM     18  H   UNL     1      -0.105  10.102  16.862  0.00  0.00    +0.000 HD
ENDBRANCH   7   9
ENDBRANCH   4   7
BRANCH   1  19
ATOM     19  O   UNL     1       3.423   5.569  19.972  0.00  0.00    +0.000 OA
BRANCH  19  25
ATOM     20  C   UNL     1       3.639   4.054  18.096  0.00  0.00    +0.000 A 
ATOM     21  C   UNL     1       3.250   2.821  17.533  0.00  0.00    +0.000 A 
ATOM     22  C   UNL     1       2.410   1.955  18.218  0.00  0.00    +0.000 A 
ATOM     23  C   UNL     1       1.976   2.335  19.468  0.00  0.00    +0.000 A 
ATOM     24  N   UNL     1       2.307   3.507  20.048  0.00  0.00    +0.000 NA
ATOM     25  C   UNL     1       3.102   4.364  19.355  0.00  0.00    +0.000 A 
BRANCH  20  30
ATOM     26  O   UNL     1       7.848   5.168  14.278  0.00  0.00    +0.000 OA
ATOM     27  C   UNL     1       7.020   5.474  15.132  0.00  0.00    +0.000 C 
ATOM     28  C   UNL     1       5.537   5.287  14.919  0.00  0.00    +0.000 C 
ATOM     29  C   UNL     1       4.920   4.284  15.900  0.00  0.00    +0.000 C 
ATOM     30  C   UNL     1       4.601   4.900  17.271  0.00  0.00    +0.000 C 
ATOM     31  C   UNL     1       5.832   5.347  18.077  0.00  0.00    +0.000 C 
ATOM     32  C   UNL     1       6.595   6.483  17.391  0.00  0.00    +0.000 C 
ATOM     33  N   UNL     1       7.432   6.014  16.312  0.00  0.00    +0.000 N 
ATOM     34  H   UNL     1       8.437   6.125  16.384  0.00  0.00    +0.000 HD
ENDBRANCH  20  30
ENDBRANCH  19  25
ENDBRANCH   1  19
TORSDOF 5
ENDMDL
MODEL 3
REMARK VINA RESULT:     -10.0      1.171      1.877
REMARK  Name = 
REMARK  5 active torsions:
REMARK  status: ('A' for Active; 'I' for Inactive)
REMARK    1  A    between atoms: C_5  and  C_6
REMARK    2  A    between atoms: C_11  and  O_12
REMARK    3  A    between atoms: O_12  and  C_13
REMARK    4  A    between atoms: C_16  and  C_17
REMARK    5  A    between atoms: C_17  and  C_19
REMARK                            x       y       z     vdW  Elec       q    Type
REMARK                         _______ _______ _______ _____ _____    ______ ____
ROOT
ATOM      1  C   UNL     1       2.415   7.078  19.375  0.00  0.00    +0.000 A 
ATOM      2  C   UNL     1       1.704   7.716  20.394  0.00  0.00    +0.000 A 
ATOM      3  C   UNL     1       1.041   8.935  20.156  0.00  0.00    +0.000 A 
ATOM      4  C   UNL     1       1.078   9.554  18.891  0.00  0.00    +0.000 A 
ATOM      5  C   UNL     1       1.740   8.868  17.864  0.00  0.00    +0.000 A 
ATOM      6  C   UNL     1       2.411   7.658  18.105  0.00  0.00    +0.000 A 
ENDROOT
BRANCH   4   7
ATOM      7  C   UNL     1       0.481  10.941  18.746  0.00  0.00    +0.000 C 
ATOM      8  O   UNL     1       1.254  11.899  18.715  0.00  0.00    +0.000 OA
BRANCH   7   9
ATOM      9  C   UNL     1      -0.955  11.145  18.571  0.00  0.00    +0.000 A 
ATOM     10  N   UNL     1      -1.650  10.913  17.474  0.00  0.00    +0.000 NA
ATOM     11  C   UNL     1      -2.925  11.336  17.721  0.00  0.00    +0.000 A 
ATOM     12  C   UNL     1      -4.033  11.350  16.863  0.00  0.00    +0.000 A 
ATOM     13  C   UNL     1      -5.234  11.890  17.331  0.00  0.00    +0.000 A 
ATOM     14  C   UNL     1      -5.328  12.395  18.631  0.00  0.00    +0.000 A 
ATOM     15  C   UNL     1      -4.235  12.364  19.511  0.00  0.00    +0.000 A 
ATOM     16  C   UNL     1      -3.043  11.826  19.013  0.00  0.00    +0.000 A 
ATOM     17  N   UNL     1      -1.795  11.632  19.556  0.00  0.00    +0.000 N 
ATOM     18  H   UNL     1      -1.498  11.862  20.495  0.00  0.00    +0.000 HD
ENDBRANCH   7   9
ENDBRANCH   4   7
BRANCH   1  19
ATOM     19  O   UNL     1       3.183   5.975  19.714  0.00  0.00    +0.000 OA
BRANCH  19  25
ATOM     20  C   UNL     1       3.882   4.167  18.265  0.00  0.00    +0.000 A 
ATOM     21  C   UNL     1       3.529   2.941  17.663  0.00  0.00    +0.000 A 
ATOM     22  C   UNL     1       2.303   2.345  17.922  0.00  0.00    +0.000 A 
ATOM     23  C   UNL     1       1.448   2.986  18.790  0.00  0.00    +0.000 A 
ATOM     24  N   UNL     1       1.731   4.163  19.382  0.00  0.00    +0.000 NA
ATOM     25  C   UNL     1       2.918   4.758  19.096  0.00  0.00    +0.000 A 
BRANCH  20  30
ATOM     26  O   UNL     1       8.460   7.698  18.600  0.00  0.00    +0.000 OA
ATOM     27  C   UNL     1       7.822   6.756  18.138  0.00  0.00    +0.000 C 
ATOM     28  C   UNL     1       7.466   5.542  18.963  0.00  0.00    +0.000 C 
ATOM     29  C   UNL     1       5.953   5.373  19.144  0.00  0.00    +0.000 C 
ATOM     30  C   UNL     1       5.273   4.701  17.942  0.00  0.00    +0.000 C 
ATOM     31  C   UNL     1       5.300   5.526  16.644  0.00  0.00    +0.000 C 
ATOM     32  C   UNL     1       6.723   5.741  16.121  0.00  0.00    +0.000 C 
ATOM     33  N   UNL     1       7.423   6.782  16.836  0.00  0.00    +0.000 N 
ATOM     34  H   UNL     1       7.706   7.618  16.337  0.00  0.00    +0.000 HD
ENDBRANCH  20  30
ENDBRANCH  19  25
ENDBRANCH   1  19
TORSDOF 5
ENDMDL
MODEL 4
REMARK VINA RESULT:     -10.0      0.249      1.055
REMARK  Name = 
REMARK  5 active torsions:
REMARK  status: ('A' for Active; 'I' for Inactive)
REMARK    1  A    between atoms: C_5  and  C_6
REMARK    2  A    between atoms: C_11  and  O_12
REMARK    3  A    between atoms: O_12  and  C_13
REMARK    4  A    between atoms: C_16  and  C_17
REMARK    5  A    between atoms: C_17  and  C_19
REMARK                            x       y       z     vdW  Elec       q    Type
REMARK                         _______ _______ _______ _____ _____    ______ ____
ROOT
ATOM      1  C   UNL     1       2.188   7.319  19.590  0.00  0.00    +0.000 A 
ATOM      2  C   UNL     1       1.438   7.967  20.575  0.00  0.00    +0.000 A 
ATOM      3  C   UNL     1       0.766   9.171  20.292  0.00  0.00    +0.000 A 
ATOM      4  C   UNL     1       0.833   9.764  19.017  0.00  0.00    +0.000 A 
ATOM      5  C   UNL     1       1.535   9.068  18.024  0.00  0.00    +0.000 A 
ATOM      6  C   UNL     1       2.214   7.872  18.310  0.00  0.00    +0.000 A 
ENDROOT
BRANCH   4   7
ATOM      7  C   UNL     1       0.222  11.140  18.826  0.00  0.00    +0.000 C 
ATOM      8  O   UNL     1       0.982  12.107  18.785  0.00  0.00    +0.000 OA
BRANCH   7   9
ATOM      9  C   UNL     1      -1.213  11.322  18.618  0.00  0.00    +0.000 A 
ATOM     10  N   UNL     1      -1.880  11.076  17.506  0.00  0.00    +0.000 NA
ATOM     11  C   UNL     1      -3.167  11.480  17.723  0.00  0.00    +0.000 A 
ATOM     12  C   UNL     1      -4.255  11.475  16.841  0.00  0.00    +0.000 A 
ATOM     13  C   UNL     1      -5.475  11.997  17.281  0.00  0.00    +0.000 A 
ATOM     14  C   UNL     1      -5.606  12.502  18.577  0.00  0.00    +0.000 A 
ATOM     15  C   UNL     1      -4.532  12.491  19.481  0.00  0.00    +0.000 A 
ATOM     16  C   UNL     1      -3.321  11.970  19.011  0.00  0.00    +0.000 A 
ATOM     17  N   UNL     1      -2.082  11.798  19.583  0.00  0.00    +0.000 N 
ATOM     18  H   UNL     1      -1.811  12.033  20.528  0.00  0.00    +0.000 HD
ENDBRANCH   7   9
ENDBRANCH   4   7
BRANCH   1  19
ATOM     19  O   UNL     1       2.960   6.233  19.976  0.00  0.00    +0.000 OA
BRANCH  19  25
ATOM     20  C   UNL     1       3.369   4.355  18.504  0.00  0.00    +0.000 A 
ATOM     21  C   UNL     1       2.941   3.079  18.085  0.00  0.00    +0.000 A 
ATOM     22  C   UNL     1       1.852   2.458  18.679  0.00  0.00    +0.000 A 
ATOM     23  C   UNL     1       1.209   3.126  19.697  0.00  0.00    +0.000 A 
ATOM     24  N   UNL     1       1.568   4.352  20.128  0.00  0.00    +0.000 NA
ATOM     25  C   UNL     1       2.614   4.967  19.517  0.00  0.00    +0.000 A 
BRANCH  20  30
ATOM     26  O   UNL     1       7.543   4.730  14.508  0.00  0.00    +0.000 OA
ATOM     27  C   UNL     1       6.973   5.057  15.545  0.00  0.00    +0.000 C 
ATOM     28  C   UNL     1       5.576   5.629  15.550  0.00  0.00    +0.000 C 
ATOM     29  C   UNL     1       4.572   4.733  16.285  0.00  0.00    +0.000 C 
ATOM     30  C   UNL     1       4.605   4.916  17.809  0.00  0.00    +0.000 C 
ATOM     31  C   UNL     1       5.912   4.466  18.483  0.00  0.00    +0.000 C 
ATOM     32  C   UNL     1       7.112   5.307  18.040  0.00  0.00    +0.000 C 
ATOM     33  N   UNL     1       7.610   4.918  16.741  0.00  0.00    +0.000 N 
ATOM     34  H   UNL     1       8.548   4.542  16.665  0.00  0.00    +0.000 HD
ENDBRANCH  20  30
ENDBRANCH  19  25
ENDBRANCH   1  19
TORSDOF 5
ENDMDL
MODEL 5
REMARK VINA RESULT:     -10.0      0.854      1.233
REMARK  Name = 
REMARK  5 active torsions:
REMARK  status: ('A' for Active; 'I' for Inactive)
REMARK    1  A    between atoms: C_5  and  C_6
REMARK    2  A    between atoms: C_11  and  O_12
REMARK    3  A    between atoms: O_12  and  C_13
REMARK    4  A    between atoms: C_16  and  C_17
REMARK    5  A    between atoms: C_17  and  C_19
REMARK                            x       y       z     vdW  Elec       q    Type
REMARK                         _______ _______ _______ _____ _____    ______ ____
ROOT
ATOM      1  C   UNL     1       2.379   6.997  19.447  0.00  0.00    +0.000 A 
ATOM      2  C   UNL     1       1.745   7.710  20.468  0.00  0.00    +0.000 A 
ATOM      3  C   UNL     1       1.163   8.967  20.214  0.00  0.00    +0.000 A 
ATOM      4  C   UNL     1       1.206   9.548  18.932  0.00  0.00    +0.000 A 
ATOM      5  C   UNL     1       1.786   8.790  17.906  0.00  0.00    +0.000 A 
ATOM      6  C   UNL     1       2.377   7.541  18.163  0.00  0.00    +0.000 A 
ENDROOT
BRANCH   4   7
ATOM      7  C   UNL     1       0.704  10.970  18.764  0.00  0.00    +0.000 C 
ATOM      8  O   UNL     1       1.537  11.877  18.762  0.00  0.00    +0.000 OA
BRANCH   7   9
ATOM      9  C   UNL     1      -0.708  11.265  18.535  0.00  0.00    +0.000 A 
ATOM     10  N   UNL     1      -1.553  11.779  19.408  0.00  0.00    +0.000 NA
ATOM     11  C   UNL     1      -2.780  11.790  18.809  0.00  0.00    +0.000 A 
ATOM     12  C   UNL     1      -4.015  12.195  19.332  0.00  0.00    +0.000 A 
ATOM     13  C   UNL     1      -5.155  12.059  18.534  0.00  0.00    +0.000 A 
ATOM     14  C   UNL     1      -5.060  11.539  17.240  0.00  0.00    +0.000 A 
ATOM     15  C   UNL     1      -3.827  11.154  16.693  0.00  0.00    +0.000 A 
ATOM     16  C   UNL     1      -2.704  11.293  17.516  0.00  0.00    +0.000 A 
ATOM     17  N   UNL     1      -1.366  11.028  17.340  0.00  0.00    +0.000 N 
ATOM     18  H   UNL     1      -0.923  10.659  16.510  0.00  0.00    +0.000 HD
ENDBRANCH   7   9
ENDBRANCH   4   7
BRANCH   1  19
ATOM     19  O   UNL     1       3.076   5.851  19.797  0.00  0.00    +0.000 OA
BRANCH  19  25
ATOM     20  C   UNL     1       3.250   3.835  18.468  0.00  0.00    +0.000 A 
ATOM     21  C   UNL     1       2.660   2.601  18.125  0.00  0.00    +0.000 A 
ATOM     22  C   UNL     1       1.485   2.178  18.730  0.00  0.00    +0.000 A 
ATOM     23  C   UNL     1       0.921   2.998  19.681  0.00  0.00    +0.000 A 
ATOM     24  N   UNL     1       1.437   4.191  20.038  0.00  0.00    +0.000 NA
ATOM     25  C   UNL     1       2.568   4.614  19.416  0.00  0.00    +0.000 A 
BRANCH  20  30
ATOM     26  O   UNL     1       7.776   7.079  16.878  0.00  0.00    +0.000 OA
ATOM     27  C   UNL     1       7.083   6.065  16.865  0.00  0.00    +0.000 C 
ATOM     28  C   UNL     1       6.882   5.211  18.094  0.00  0.00    +0.000 C 
ATOM     29  C   UNL     1       5.420   5.176  18.556  0.00  0.00    +0.000 C 
ATOM     30  C   UNL     1       4.564   4.172  17.771  0.00  0.00    +0.000 C 
ATOM     31  C   UNL     1       4.369   4.516  16.285  0.00  0.00    +0.000 C 
ATOM     32  C   UNL     1       5.686   4.483  15.504  0.00  0.00    +0.000 C 
ATOM     33  N   UNL     1       6.479   5.673  15.709  0.00  0.00    +0.000 N 
ATOM     34  H   UNL     1       6.666   6.282  14.921  0.00  0.00    +0.000 HD
ENDBRANCH  20  30
ENDBRANCH  19  25
ENDBRANCH   1  19
TORSDOF 5
ENDMDL
MODEL 6
REMARK VINA RESULT:     -10.0      2.524      3.954
REMARK  Name = 
REMARK  5 active torsions:
REMARK  status: ('A' for Active; 'I' for Inactive)
REMARK    1  A    between atoms: C_5  and  C_6
REMARK    2  A    between atoms: C_11  and  O_12
REMARK    3  A    between atoms: O_12  and  C_13
REMARK    4  A    between atoms: C_16  and  C_17
REMARK    5  A    between atoms: C_17  and  C_19
REMARK                            x       y       z     vdW  Elec       q    Type
REMARK                         _______ _______ _______ _____ _____    ______ ____
ROOT
ATOM      1  C   UNL     1       2.192   7.297  19.590  0.00  0.00    +0.000 A 
ATOM      2  C   UNL     1       1.472   8.032  20.536  0.00  0.00    +0.000 A 
ATOM      3  C   UNL     1       0.955   9.303  20.219  0.00  0.00    +0.000 A 
ATOM      4  C   UNL     1       1.153   9.878  18.949  0.00  0.00    +0.000 A 
ATOM      5  C   UNL     1       1.820   9.100  17.992  0.00  0.00    +0.000 A 
ATOM      6  C   UNL     1       2.344   7.837  18.312  0.00  0.00    +0.000 A 
ENDROOT
BRANCH   4   7
ATOM      7  C   UNL     1       0.712  11.312  18.727  0.00  0.00    +0.000 C 
ATOM      8  O   UNL     1      -0.485  11.523  18.531  0.00  0.00    +0.000 OA
BRANCH   7   9
ATOM      9  C   UNL     1       1.651  12.428  18.816  0.00  0.00    +0.000 A 
ATOM     10  N   UNL     1       2.113  12.976  19.923  0.00  0.00    +0.000 NA
ATOM     11  C   UNL     1       2.877  14.043  19.545  0.00  0.00    +0.000 A 
ATOM     12  C   UNL     1       3.550  14.977  20.344  0.00  0.00    +0.000 A 
ATOM     13  C   UNL     1       4.229  16.026  19.719  0.00  0.00    +0.000 A 
ATOM     14  C   UNL     1       4.244  16.134  18.326  0.00  0.00    +0.000 A 
ATOM     15  C   UNL     1       3.597  15.192  17.511  0.00  0.00    +0.000 A 
ATOM     16  C   UNL     1       2.918  14.157  18.163  0.00  0.00    +0.000 A 
ATOM     17  N   UNL     1       2.187  13.080  17.719  0.00  0.00    +0.000 N 
ATOM     18  H   UNL     1       2.002  12.825  16.759  0.00  0.00    +0.000 HD
ENDBRANCH   7   9
ENDBRANCH   4   7
BRANCH   1  19
ATOM     19  O   UNL     1       2.815   6.134  20.013  0.00  0.00    +0.000 OA
BRANCH  19  25
ATOM     20  C   UNL     1       3.207   4.350  18.425  0.00  0.00    +0.000 A 
ATOM     21  C   UNL     1       2.741   3.130  17.892  0.00  0.00    +0.000 A 
ATOM     22  C   UNL     1       1.597   2.523  18.389  0.00  0.00    +0.000 A 
ATOM     23  C   UNL     1       0.937   3.146  19.425  0.00  0.00    +0.000 A 
ATOM     24  N   UNL     1       1.332   4.318  19.962  0.00  0.00    +0.000 NA
ATOM     25  C   UNL     1       2.433   4.923  19.446  0.00  0.00    +0.000 A 
BRANCH  20  30
ATOM     26  O   UNL     1       7.616   4.763  14.694  0.00  0.00    +0.000 OA
ATOM     27  C   UNL     1       6.998   5.061  15.712  0.00  0.00    +0.000 C 
ATOM     28  C   UNL     1       5.623   5.683  15.667  0.00  0.00    +0.000 C 
ATOM     29  C   UNL     1       4.549   4.790  16.298  0.00  0.00    +0.000 C 
ATOM     30  C   UNL     1       4.499   4.897  17.830  0.00  0.00    +0.000 C 
ATOM     31  C   UNL     1       5.750   4.368  18.552  0.00  0.00    +0.000 C 
ATOM     32  C   UNL     1       7.001   5.185  18.220  0.00  0.00    +0.000 C 
ATOM     33  N   UNL     1       7.560   4.842  16.934  0.00  0.00    +0.000 N 
ATOM     34  H   UNL     1       8.487   4.435  16.892  0.00  0.00    +0.000 HD
ENDBRANCH  20  30
ENDBRANCH  19  25
ENDBRANCH   1  19
TORSDOF 5
ENDMDL
MODEL 7
REMARK VINA RESULT:      -9.7      2.108      3.147
REMARK  Name = 
REMARK  5 active torsions:
REMARK  status: ('A' for Active; 'I' for Inactive)
REMARK    1  A    between atoms: C_5  and  C_6
REMARK    2  A    between atoms: C_11  and  O_12
REMARK    3  A    between atoms: O_12  and  C_13
REMARK    4  A    between atoms: C_16  and  C_17
REMARK    5  A    between atoms: C_17  and  C_19
REMARK                            x       y       z     vdW  Elec       q    Type
REMARK                         _______ _______ _______ _____ _____    ______ ____
ROOT
ATOM      1  C   UNL     1       2.273   7.336  19.859  0.00  0.00    +0.000 A 
ATOM      2  C   UNL     1       2.342   7.804  18.545  0.00  0.00    +0.000 A 
ATOM      3  C   UNL     1       1.593   8.926  18.140  0.00  0.00    +0.000 A 
ATOM      4  C   UNL     1       0.748   9.605  19.038  0.00  0.00    +0.000 A 
ATOM      5  C   UNL     1       0.741   9.162  20.368  0.00  0.00    +0.000 A 
ATOM      6  C   UNL     1       1.479   8.037  20.769  0.00  0.00    +0.000 A 
ENDROOT
BRANCH   4   7
ATOM      7  C   UNL     1      -0.150  10.702  18.498  0.00  0.00    +0.000 C 
ATOM      8  O   UNL     1      -1.233  10.372  18.012  0.00  0.00    +0.000 OA
BRANCH   7   9
ATOM      9  C   UNL     1       0.207  12.114  18.612  0.00  0.00    +0.000 A 
ATOM     10  N   UNL     1      -0.623  13.116  18.830  0.00  0.00    +0.000 NA
ATOM     11  C   UNL     1       0.117  14.262  18.761  0.00  0.00    +0.000 A 
ATOM     12  C   UNL     1      -0.302  15.593  18.876  0.00  0.00    +0.000 A 
ATOM     13  C   UNL     1       0.644  16.609  18.712  0.00  0.00    +0.000 A 
ATOM     14  C   UNL     1       1.981  16.299  18.449  0.00  0.00    +0.000 A 
ATOM     15  C   UNL     1       2.422  14.970  18.357  0.00  0.00    +0.000 A 
ATOM     16  C   UNL     1       1.452  13.974  18.517  0.00  0.00    +0.000 A 
ATOM     17  N   UNL     1       1.497  12.600  18.493  0.00  0.00    +0.000 N 
ATOM     18  H   UNL     1       2.312  12.021  18.347  0.00  0.00    +0.000 HD
ENDBRANCH   7   9
ENDBRANCH   4   7
BRANCH   1  19
ATOM     19  O   UNL     1       2.898   6.133  20.151  0.00  0.00    +0.000 OA
BRANCH  19  25
ATOM     20  C   UNL     1       3.166   4.417  18.465  0.00  0.00    +0.000 A 
ATOM     21  C   UNL     1       2.630   3.251  17.882  0.00  0.00    +0.000 A 
ATOM     22  C   UNL     1       1.467   2.675  18.374  0.00  0.00    +0.000 A 
ATOM     23  C   UNL     1       0.861   3.275  19.455  0.00  0.00    +0.000 A 
ATOM     24  N   UNL     1       1.325   4.396  20.042  0.00  0.00    +0.000 NA
ATOM     25  C   UNL     1       2.444   4.974  19.532  0.00  0.00    +0.000 A 
BRANCH  20  30
ATOM     26  O   UNL     1       7.589   4.707  14.737  0.00  0.00    +0.000 OA
ATOM     27  C   UNL     1       6.976   5.024  15.753  0.00  0.00    +0.000 C 
ATOM     28  C   UNL     1       5.616   5.678  15.703  0.00  0.00    +0.000 C 
ATOM     29  C   UNL     1       4.521   4.814  16.338  0.00  0.00    +0.000 C 
ATOM     30  C   UNL     1       4.472   4.931  17.868  0.00  0.00    +0.000 C 
ATOM     31  C   UNL     1       5.709   4.378  18.595  0.00  0.00    +0.000 C 
ATOM     32  C   UNL     1       6.979   5.163  18.261  0.00  0.00    +0.000 C 
ATOM     33  N   UNL     1       7.531   4.800  16.977  0.00  0.00    +0.000 N 
ATOM     34  H   UNL     1       8.449   4.371  16.938  0.00  0.00    +0.000 HD
ENDBRANCH  20  30
ENDBRANCH  19  25
ENDBRANCH   1  19
TORSDOF 5
ENDMDL
MODEL 8
REMARK VINA RESULT:      -9.6      2.098      3.170
REMARK  Name = 
REMARK  5 active torsions:
REMARK  status: ('A' for Active; 'I' for Inactive)
REMARK    1  A    between atoms: C_5  and  C_6
REMARK    2  A    between atoms: C_11  and  O_12
REMARK    3  A    between atoms: O_12  and  C_13
REMARK    4  A    between atoms: C_16  and  C_17
REMARK    5  A    between atoms: C_17  and  C_19
REMARK                            x       y       z     vdW  Elec       q    Type
REMARK                         _______ _______ _______ _____ _____    ______ ____
ROOT
ATOM      1  C   UNL     1       2.240   7.421  19.881  0.00  0.00    +0.000 A 
ATOM      2  C   UNL     1       2.281   7.912  18.574  0.00  0.00    +0.000 A 
ATOM      3  C   UNL     1       1.506   9.026  18.198  0.00  0.00    +0.000 A 
ATOM      4  C   UNL     1       0.662   9.675  19.120  0.00  0.00    +0.000 A 
ATOM      5  C   UNL     1       0.683   9.211  20.443  0.00  0.00    +0.000 A 
ATOM      6  C   UNL     1       1.448   8.093  20.813  0.00  0.00    +0.000 A 
ENDROOT
BRANCH   4   7
ATOM      7  C   UNL     1      -0.265  10.763  18.611  0.00  0.00    +0.000 C 
ATOM      8  O   UNL     1      -1.398  10.436  18.259  0.00  0.00    +0.000 OA
BRANCH   7   9
ATOM      9  C   UNL     1       0.131  12.169  18.606  0.00  0.00    +0.000 A 
ATOM     10  N   UNL     1       1.363  12.637  18.683  0.00  0.00    +0.000 NA
ATOM     11  C   UNL     1       1.264  13.997  18.746  0.00  0.00    +0.000 A 
ATOM     12  C   UNL     1       2.280  14.952  18.883  0.00  0.00    +0.000 A 
ATOM     13  C   UNL     1       1.922  16.299  18.982  0.00  0.00    +0.000 A 
ATOM     14  C   UNL     1       0.580  16.684  18.934  0.00  0.00    +0.000 A 
ATOM     15  C   UNL     1      -0.448  15.742  18.771  0.00  0.00    +0.000 A 
ATOM     16  C   UNL     1      -0.062  14.400  18.683  0.00  0.00    +0.000 A 
ATOM     17  N   UNL     1      -0.759  13.225  18.527  0.00  0.00    +0.000 N 
ATOM     18  H   UNL     1      -1.760  13.120  18.435  0.00  0.00    +0.000 HD
ENDBRANCH   7   9
ENDBRANCH   4   7
BRANCH   1  19
ATOM     19  O   UNL     1       2.892   6.226  20.144  0.00  0.00    +0.000 OA
BRANCH  19  25
ATOM     20  C   UNL     1       3.157   4.491  18.477  0.00  0.00    +0.000 A 
ATOM     21  C   UNL     1       2.616   3.323  17.901  0.00  0.00    +0.000 A 
ATOM     22  C   UNL     1       1.446   2.761  18.393  0.00  0.00    +0.000 A 
ATOM     23  C   UNL     1       0.838   3.376  19.464  0.00  0.00    +0.000 A 
ATOM     24  N   UNL     1       1.306   4.500  20.043  0.00  0.00    +0.000 NA
ATOM     25  C   UNL     1       2.433   5.064  19.534  0.00  0.00    +0.000 A 
BRANCH  20  30
ATOM     26  O   UNL     1       7.583   4.739  14.750  0.00  0.00    +0.000 OA
ATOM     27  C   UNL     1       6.976   5.059  15.768  0.00  0.00    +0.000 C 
ATOM     28  C   UNL     1       5.625   5.733  15.722  0.00  0.00    +0.000 C 
ATOM     29  C   UNL     1       4.517   4.881  16.351  0.00  0.00    +0.000 C 
ATOM     30  C   UNL     1       4.470   4.990  17.883  0.00  0.00    +0.000 C 
ATOM     31  C   UNL     1       5.699   4.413  18.606  0.00  0.00    +0.000 C 
ATOM     32  C   UNL     1       6.981   5.182  18.276  0.00  0.00    +0.000 C 
ATOM     33  N   UNL     1       7.527   4.818  16.990  0.00  0.00    +0.000 N 
ATOM     34  H   UNL     1       8.439   4.377  16.948  0.00  0.00    +0.000 HD
ENDBRANCH  20  30
ENDBRANCH  19  25
ENDBRANCH   1  19
TORSDOF 5
ENDMDL
MODEL 9
REMARK VINA RESULT:      -9.6      2.698      4.062
REMARK  Name = 
REMARK  5 active torsions:
REMARK  status: ('A' for Active; 'I' for Inactive)
REMARK    1  A    between atoms: C_5  and  C_6
REMARK    2  A    between atoms: C_11  and  O_12
REMARK    3  A    between atoms: O_12  and  C_13
REMARK    4  A    between atoms: C_16  and  C_17
REMARK    5  A    between atoms: C_17  and  C_19
REMARK                            x       y       z     vdW  Elec       q    Type
REMARK                         _______ _______ _______ _____ _____    ______ ____
ROOT
ATOM      1  C   UNL     1       2.450   6.995  19.363  0.00  0.00    +0.000 A 
ATOM      2  C   UNL     1       1.774   7.692  20.369  0.00  0.00    +0.000 A 
ATOM      3  C   UNL     1       1.186   8.944  20.105  0.00  0.00    +0.000 A 
ATOM      4  C   UNL     1       1.265   9.536  18.831  0.00  0.00    +0.000 A 
ATOM      5  C   UNL     1       1.888   8.794  17.818  0.00  0.00    +0.000 A 
ATOM      6  C   UNL     1       2.485   7.551  18.084  0.00  0.00    +0.000 A 
ENDROOT
BRANCH   4   7
ATOM      7  C   UNL     1       0.752  10.954  18.658  0.00  0.00    +0.000 C 
ATOM      8  O   UNL     1      -0.450  11.108  18.441  0.00  0.00    +0.000 OA
BRANCH   7   9
ATOM      9  C   UNL     1       1.627  12.113  18.819  0.00  0.00    +0.000 A 
ATOM     10  N   UNL     1       1.909  12.730  19.949  0.00  0.00    +0.000 NA
ATOM     11  C   UNL     1       2.678  13.812  19.626  0.00  0.00    +0.000 A 
ATOM     12  C   UNL     1       3.197  14.809  20.462  0.00  0.00    +0.000 A 
ATOM     13  C   UNL     1       3.915  15.859  19.883  0.00  0.00    +0.000 A 
ATOM     14  C   UNL     1       4.120  15.904  18.501  0.00  0.00    +0.000 A 
ATOM     15  C   UNL     1       3.628  14.899  17.654  0.00  0.00    +0.000 A 
ATOM     16  C   UNL     1       2.906  13.865  18.259  0.00  0.00    +0.000 A 
ATOM     17  N   UNL     1       2.284  12.738  17.774  0.00  0.00    +0.000 N 
ATOM     18  H   UNL     1       2.244  12.433  16.811  0.00  0.00    +0.000 HD
ENDBRANCH   7   9
ENDBRANCH   4   7
BRANCH   1  19
ATOM     19  O   UNL     1       3.149   5.854  19.726  0.00  0.00    +0.000 OA
BRANCH  19  25
ATOM     20  C   UNL     1       3.654   3.997  18.257  0.00  0.00    +0.000 A 
ATOM     21  C   UNL     1       3.207   2.776  17.714  0.00  0.00    +0.000 A 
ATOM     22  C   UNL     1       1.988   2.230  18.090  0.00  0.00    +0.000 A 
ATOM     23  C   UNL     1       1.235   2.916  19.017  0.00  0.00    +0.000 A 
ATOM     24  N   UNL     1       1.610   4.092  19.558  0.00  0.00    +0.000 NA
ATOM     25  C   UNL     1       2.789   4.637  19.158  0.00  0.00    +0.000 A 
BRANCH  20  30
ATOM     26  O   UNL     1       7.944   7.758  17.258  0.00  0.00    +0.000 OA
ATOM     27  C   UNL     1       7.410   6.652  17.217  0.00  0.00    +0.000 C 
ATOM     28  C   UNL     1       7.067   5.877  18.466  0.00  0.00    +0.000 C 
ATOM     29  C   UNL     1       5.558   5.657  18.630  0.00  0.00    +0.000 C 
ATOM     30  C   UNL     1       5.029   4.475  17.804  0.00  0.00    +0.000 C 
ATOM     31  C   UNL     1       5.112   4.667  16.280  0.00  0.00    +0.000 C 
ATOM     32  C   UNL     1       6.557   4.774  15.785  0.00  0.00    +0.000 C 
ATOM     33  N   UNL     1       7.123   6.083  16.014  0.00  0.00    +0.000 N 
ATOM     34  H   UNL     1       7.392   6.649  15.217  0.00  0.00    +0.000 HD
ENDBRANCH  20  30
ENDBRANCH  19  25
ENDBRANCH   1  19
TORSDOF 5
ENDMDL
