MODEL 1
REMARK VINA RESULT:      -8.4      0.000      0.000
REMARK  Name = 
REMARK  4 active torsions:
REMARK  status: ('A' for Active; 'I' for Inactive)
REMARK    1  A    between atoms: C_1  and  N_2
REMARK    2  A    between atoms: C_6  and  C_7
REMARK    3  A    between atoms: C_11  and  C_12
REMARK    4  A    between atoms: C_12  and  O_14
REMARK                            x       y       z     vdW  Elec       q    Type
REMARK                         _______ _______ _______ _____ _____    ______ ____
ROOT
ATOM      1  C   UNL     1       1.052   3.001  20.102  0.00  0.00    +0.000 C 
ATOM      2  N   UNL     1       2.136   3.791  19.553  0.00  0.00    +0.000 N 
ATOM      3  C   UNL     1       2.746   3.328  18.322  0.00  0.00    +0.000 C 
ATOM      4  C   UNL     1       3.802   4.236  17.778  0.00  0.00    +0.000 A 
ATOM      5  C   UNL     1       4.370   4.006  16.518  0.00  0.00    +0.000 A 
ATOM      6  C   UNL     1       5.384   4.833  15.994  0.00  0.00    +0.000 A 
ATOM      7  C   UNL     1       5.812   5.905  16.800  0.00  0.00    +0.000 A 
ATOM      8  C   UNL     1       5.269   6.126  18.072  0.00  0.00    +0.000 A 
ATOM      9  C   UNL     1       4.265   5.290  18.549  0.00  0.00    +0.000 A 
ATOM     10  N   UNL     1       3.713   5.498  19.808  0.00  0.00    +0.000 N 
ATOM     11  C   UNL     1       2.671   4.792  20.330  0.00  0.00    +0.000 C 
ATOM     12  O   UNL     1       2.241   5.081  21.447  0.00  0.00    +0.000 OA
ATOM     13  H   UNL     1       4.051   6.246  20.397  0.00  0.00    +0.000 HD
ENDROOT
BRANCH   6  14
ATOM     14  C   UNL     1       5.986   4.546  14.671  0.00  0.00    +0.000 A 
ATOM     15  C   UNL     1       7.163   5.196  14.250  0.00  0.00    +0.000 A 
ATOM     16  C   UNL     1       7.704   4.991  12.978  0.00  0.00    +0.000 A 
ATOM     17  C   UNL     1       7.083   4.114  12.096  0.00  0.00    +0.000 A 
ATOM     18  C   UNL     1       5.925   3.435  12.485  0.00  0.00    +0.000 A 
ATOM     19  C   UNL     1       5.391   3.643  13.768  0.00  0.00    +0.000 A 
BRANCH  18  20
ATOM     20  C   UNL     1       5.326   2.478  11.519  0.00  0.00    +0.000 C 
ATOM     21  O   UNL     1       4.269   2.693  10.952  0.00  0.00    +0.000 OA
BRANCH  20  22
ATOM     22  O   UNL     1       6.033   1.341  11.347  0.00  0.00    +0.000 OA
ATOM     23  H   UNL     1       5.718   0.571  11.852  0.00  0.00    +0.000 HD
ENDBRANCH  20  22
ENDBRANCH  18  20
ENDBRANCH   6  14
TORSDOF 3
ENDMDL
MODEL 2
REMARK VINA RESULT:      -8.4      4.427      5.781
REMARK  Name = 
REMARK  4 active torsions:
REMARK  status: ('A' for Active; 'I' for Inactive)
REMARK    1  A    between atoms: C_1  and  N_2
REMARK    2  A    between atoms: C_6  and  C_7
REMARK    3  A    between atoms: C_11  and  C_12
REMARK    4  A    between atoms: C_12  and  O_14
REMARK                            x       y       z     vdW  Elec       q    Type
REMARK                         _______ _______ _______ _____ _____    ______ ____
ROOT
ATOM      1  C   UNL     1      -0.275   9.644  23.318  0.00  0.00    +0.000 C 
ATOM      2  N   UNL     1       0.236   9.582  21.964  0.00  0.00    +0.000 N 
ATOM      3  C   UNL     1       1.108   8.474  21.626  0.00  0.00    +0.000 C 
ATOM      4  C   UNL     1       1.530   8.437  20.193  0.00  0.00    +0.000 A 
ATOM      5  C   UNL     1       2.241   7.344  19.679  0.00  0.00    +0.000 A 
ATOM      6  C   UNL     1       2.671   7.296  18.339  0.00  0.00    +0.000 A 
ATOM      7  C   UNL     1       2.361   8.407  17.530  0.00  0.00    +0.000 A 
ATOM      8  C   UNL     1       1.675   9.515  18.041  0.00  0.00    +0.000 A 
ATOM      9  C   UNL     1       1.262   9.519  19.370  0.00  0.00    +0.000 A 
ATOM     10  N   UNL     1       0.576  10.610  19.892  0.00  0.00    +0.000 N 
ATOM     11  C   UNL     1       0.056  10.676  21.150  0.00  0.00    +0.000 C 
ATOM     12  O   UNL     1      -0.560  11.682  21.500  0.00  0.00    +0.000 OA
ATOM     13  H   UNL     1       0.391  11.419  19.317  0.00  0.00    +0.000 HD
ENDROOT
BRANCH   6  14
ATOM     14  C   UNL     1       3.448   6.140  17.833  0.00  0.00    +0.000 A 
ATOM     15  C   UNL     1       2.870   4.858  17.741  0.00  0.00    +0.000 A 
ATOM     16  C   UNL     1       3.610   3.744  17.335  0.00  0.00    +0.000 A 
ATOM     17  C   UNL     1       4.950   3.890  16.995  0.00  0.00    +0.000 A 
ATOM     18  C   UNL     1       5.552   5.150  17.054  0.00  0.00    +0.000 A 
ATOM     19  C   UNL     1       4.800   6.266  17.458  0.00  0.00    +0.000 A 
BRANCH  18  20
ATOM     20  C   UNL     1       6.975   5.257  16.639  0.00  0.00    +0.000 C 
ATOM     21  O   UNL     1       7.338   5.964  15.715  0.00  0.00    +0.000 OA
BRANCH  20  22
ATOM     22  O   UNL     1       7.824   4.483  17.348  0.00  0.00    +0.000 OA
ATOM     23  H   UNL     1       8.228   3.746  16.857  0.00  0.00    +0.000 HD
ENDBRANCH  20  22
ENDBRANCH  18  20
ENDBRANCH   6  14
TORSDOF 3
ENDMDL
MODEL 3
REMARK VINA RESULT:      -8.1      2.963      7.516
REMARK  Name = 
REMARK  4 active torsions:
REMARK  status: ('A' for Active; 'I' for Inactive)
REMARK    1  A    between atoms: C_1  and  N_2
REMARK    2  A    between atoms: C_6  and  C_7
REMARK    3  A    between atoms: C_11  and  C_12
REMARK    4  A    between atoms: C_12  and  O_14
REMARK                            x       y       z     vdW  Elec       q    Type
REMARK                         _______ _______ _______ _____ _____    ______ ____
ROOT
ATOM      1  C   UNL     1       7.138   4.184  11.885  0.00  0.00    +0.000 C 
ATOM      2  N   UNL     1       6.930   4.512  13.281  0.00  0.00    +0.000 N 
ATOM      3  C   UNL     1       5.665   4.131  13.878  0.00  0.00    +0.000 C 
ATOM      4  C   UNL     1       5.557   4.433  15.338  0.00  0.00    +0.000 A 
ATOM      5  C   UNL     1       4.461   3.982  16.088  0.00  0.00    +0.000 A 
ATOM      6  C   UNL     1       4.324   4.273  17.459  0.00  0.00    +0.000 A 
ATOM      7  C   UNL     1       5.339   5.052  18.050  0.00  0.00    +0.000 A 
ATOM      8  C   UNL     1       6.423   5.529  17.303  0.00  0.00    +0.000 A 
ATOM      9  C   UNL     1       6.524   5.212  15.951  0.00  0.00    +0.000 A 
ATOM     10  N   UNL     1       7.596   5.675  15.197  0.00  0.00    +0.000 N 
ATOM     11  C   UNL     1       7.830   5.352  13.894  0.00  0.00    +0.000 C 
ATOM     12  O   UNL     1       8.830   5.796  13.329  0.00  0.00    +0.000 OA
ATOM     13  H   UNL     1       8.300   6.264  15.617  0.00  0.00    +0.000 HD
ENDROOT
BRANCH   6  14
ATOM     14  C   UNL     1       3.139   3.808  18.217  0.00  0.00    +0.000 A 
ATOM     15  C   UNL     1       1.856   3.809  17.637  0.00  0.00    +0.000 A 
ATOM     16  C   UNL     1       0.719   3.442  18.362  0.00  0.00    +0.000 A 
ATOM     17  C   UNL     1       0.842   3.050  19.690  0.00  0.00    +0.000 A 
ATOM     18  C   UNL     1       2.102   3.017  20.294  0.00  0.00    +0.000 A 
ATOM     19  C   UNL     1       3.241   3.382  19.557  0.00  0.00    +0.000 A 
BRANCH  18  20
ATOM     20  C   UNL     1       2.182   2.549  21.702  0.00  0.00    +0.000 C 
ATOM     21  O   UNL     1       3.216   2.135  22.199  0.00  0.00    +0.000 OA
BRANCH  20  22
ATOM     22  O   UNL     1       1.012   2.591  22.373  0.00  0.00    +0.000 OA
ATOM     23  H   UNL     1       0.214   2.448  21.834  0.00  0.00    +0.000 HD
ENDBRANCH  20  22
ENDBRANCH  18  20
ENDBRANCH   6  14
TORSDOF 3
ENDMDL
MODEL 4
REMARK VINA RESULT:      -8.1      4.275      6.070
REMARK  Name = 
REMARK  4 active torsions:
REMARK  status: ('A' for Active; 'I' for Inactive)
REMARK    1  A    between atoms: C_1  and  N_2
REMARK    2  A    between atoms: C_6  and  C_7
REMARK    3  A    between atoms: C_11  and  C_12
REMARK    4  A    between atoms: C_12  and  O_14
REMARK                            x       y       z     vdW  Elec       q    Type
REMARK                         _______ _______ _______ _____ _____    ______ ____
ROOT
ATOM      1  C   UNL     1      -0.552   9.837  23.246  0.00  0.00    +0.000 C 
ATOM      2  N   UNL     1      -0.001   9.743  21.910  0.00  0.00    +0.000 N 
ATOM      3  C   UNL     1       0.920   8.656  21.640  0.00  0.00    +0.000 C 
ATOM      4  C   UNL     1       1.384   8.579  20.221  0.00  0.00    +0.000 A 
ATOM      5  C   UNL     1       2.149   7.494  19.770  0.00  0.00    +0.000 A 
ATOM      6  C   UNL     1       2.618   7.411  18.445  0.00  0.00    +0.000 A 
ATOM      7  C   UNL     1       2.292   8.477  17.584  0.00  0.00    +0.000 A 
ATOM      8  C   UNL     1       1.551   9.578  18.033  0.00  0.00    +0.000 A 
ATOM      9  C   UNL     1       1.101   9.618  19.349  0.00  0.00    +0.000 A 
ATOM     10  N   UNL     1       0.361  10.701  19.808  0.00  0.00    +0.000 N 
ATOM     11  C   UNL     1      -0.196  10.797  21.049  0.00  0.00    +0.000 C 
ATOM     12  O   UNL     1      -0.859  11.792  21.341  0.00  0.00    +0.000 OA
ATOM     13  H   UNL     1       0.163  11.481  19.197  0.00  0.00    +0.000 HD
ENDROOT
BRANCH   6  14
ATOM     14  C   UNL     1       3.450   6.266  18.006  0.00  0.00    +0.000 A 
ATOM     15  C   UNL     1       4.367   6.396  16.945  0.00  0.00    +0.000 A 
ATOM     16  C   UNL     1       5.107   5.308  16.472  0.00  0.00    +0.000 A 
ATOM     17  C   UNL     1       4.955   4.059  17.064  0.00  0.00    +0.000 A 
ATOM     18  C   UNL     1       4.069   3.896  18.133  0.00  0.00    +0.000 A 
ATOM     19  C   UNL     1       3.334   4.996  18.606  0.00  0.00    +0.000 A 
BRANCH  18  20
ATOM     20  C   UNL     1       3.978   2.550  18.756  0.00  0.00    +0.000 C 
ATOM     21  O   UNL     1       3.121   1.740  18.446  0.00  0.00    +0.000 OA
BRANCH  20  22
ATOM     22  O   UNL     1       4.898   2.313  19.714  0.00  0.00    +0.000 OA
ATOM     23  H   UNL     1       5.826   2.429  19.442  0.00  0.00    +0.000 HD
ENDBRANCH  20  22
ENDBRANCH  18  20
ENDBRANCH   6  14
TORSDOF 3
ENDMDL
MODEL 5
REMARK VINA RESULT:      -8.1      2.803      7.462
REMARK  Name = 
REMARK  4 active torsions:
REMARK  status: ('A' for Active; 'I' for Inactive)
REMARK    1  A    between atoms: C_1  and  N_2
REMARK    2  A    between atoms: C_6  and  C_7
REMARK    3  A    between atoms: C_11  and  C_12
REMARK    4  A    between atoms: C_12  and  O_14
REMARK                            x       y       z     vdW  Elec       q    Type
REMARK                         _______ _______ _______ _____ _____    ______ ____
ROOT
ATOM      1  C   UNL     1       6.201   3.286  12.171  0.00  0.00    +0.000 C 
ATOM      2  N   UNL     1       6.334   4.030  13.407  0.00  0.00    +0.000 N 
ATOM      3  C   UNL     1       5.186   4.070  14.291  0.00  0.00    +0.000 C 
ATOM      4  C   UNL     1       5.425   4.789  15.580  0.00  0.00    +0.000 A 
ATOM      5  C   UNL     1       4.465   4.777  16.601  0.00  0.00    +0.000 A 
ATOM      6  C   UNL     1       4.657   5.466  17.815  0.00  0.00    +0.000 A 
ATOM      7  C   UNL     1       5.861   6.183  17.957  0.00  0.00    +0.000 A 
ATOM      8  C   UNL     1       6.814   6.223  16.932  0.00  0.00    +0.000 A 
ATOM      9  C   UNL     1       6.588   5.522  15.751  0.00  0.00    +0.000 A 
ATOM     10  N   UNL     1       7.526   5.549  14.725  0.00  0.00    +0.000 N 
ATOM     11  C   UNL     1       7.439   4.831  13.569  0.00  0.00    +0.000 C 
ATOM     12  O   UNL     1       8.344   4.908  12.739  0.00  0.00    +0.000 OA
ATOM     13  H   UNL     1       8.370   6.095  14.818  0.00  0.00    +0.000 HD
ENDROOT
BRANCH   6  14
ATOM     14  C   UNL     1       3.610   5.460  18.863  0.00  0.00    +0.000 A 
ATOM     15  C   UNL     1       2.911   6.634  19.203  0.00  0.00    +0.000 A 
ATOM     16  C   UNL     1       1.973   6.661  20.238  0.00  0.00    +0.000 A 
ATOM     17  C   UNL     1       1.701   5.500  20.954  0.00  0.00    +0.000 A 
ATOM     18  C   UNL     1       2.360   4.311  20.633  0.00  0.00    +0.000 A 
ATOM     19  C   UNL     1       3.297   4.291  19.587  0.00  0.00    +0.000 A 
BRANCH  18  20
ATOM     20  C   UNL     1       2.000   3.091  21.401  0.00  0.00    +0.000 C 
ATOM     21  O   UNL     1       2.812   2.469  22.064  0.00  0.00    +0.000 OA
BRANCH  20  22
ATOM     22  O   UNL     1       0.710   2.712  21.279  0.00  0.00    +0.000 OA
ATOM     23  H   UNL     1       0.255   2.499  22.113  0.00  0.00    +0.000 HD
ENDBRANCH  20  22
ENDBRANCH  18  20
ENDBRANCH   6  14
TORSDOF 3
ENDMDL
MODEL 6
REMARK VINA RESULT:      -7.8      4.553      5.987
REMARK  Name = 
REMARK  4 active torsions:
REMARK  status: ('A' for Active; 'I' for Inactive)
REMARK    1  A    between atoms: C_1  and  N_2
REMARK    2  A    between atoms: C_6  and  C_7
REMARK    3  A    between atoms: C_11  and  C_12
REMARK    4  A    between atoms: C_12  and  O_14
REMARK                            x       y       z     vdW  Elec       q    Type
REMARK                         _______ _______ _______ _____ _____    ______ ____
ROOT
ATOM      1  C   UNL     1       0.282  12.677  18.581  0.00  0.00    +0.000 C 
ATOM      2  N   UNL     1       0.622  11.371  19.107  0.00  0.00    +0.000 N 
ATOM      3  C   UNL     1       1.231  10.419  18.199  0.00  0.00    +0.000 C 
ATOM      4  C   UNL     1       1.624   9.124  18.834  0.00  0.00    +0.000 A 
ATOM      5  C   UNL     1       2.365   8.169  18.124  0.00  0.00    +0.000 A 
ATOM      6  C   UNL     1       2.726   6.931  18.692  0.00  0.00    +0.000 A 
ATOM      7  C   UNL     1       2.301   6.687  20.012  0.00  0.00    +0.000 A 
ATOM      8  C   UNL     1       1.537   7.625  20.719  0.00  0.00    +0.000 A 
ATOM      9  C   UNL     1       1.208   8.838  20.124  0.00  0.00    +0.000 A 
ATOM     10  N   UNL     1       0.454   9.781  20.813  0.00  0.00    +0.000 N 
ATOM     11  C   UNL     1       0.152  11.028  20.353  0.00  0.00    +0.000 C 
ATOM     12  O   UNL     1      -0.500  11.795  21.062  0.00  0.00    +0.000 OA
ATOM     13  H   UNL     1       0.120   9.584  21.746  0.00  0.00    +0.000 HD
ENDROOT
BRANCH   6  14
ATOM     14  C   UNL     1       3.483   5.929  17.906  0.00  0.00    +0.000 A 
ATOM     15  C   UNL     1       2.959   4.644  17.665  0.00  0.00    +0.000 A 
ATOM     16  C   UNL     1       3.690   3.665  16.988  0.00  0.00    +0.000 A 
ATOM     17  C   UNL     1       4.967   3.955  16.521  0.00  0.00    +0.000 A 
ATOM     18  C   UNL     1       5.513   5.226  16.723  0.00  0.00    +0.000 A 
ATOM     19  C   UNL     1       4.769   6.206  17.399  0.00  0.00    +0.000 A 
BRANCH  18  20
ATOM     20  C   UNL     1       6.864   5.495  16.166  0.00  0.00    +0.000 C 
ATOM     21  O   UNL     1       7.430   4.720  15.413  0.00  0.00    +0.000 OA
BRANCH  20  22
ATOM     22  O   UNL     1       7.423   6.649  16.586  0.00  0.00    +0.000 OA
ATOM     23  H   UNL     1       7.643   7.288  15.885  0.00  0.00    +0.000 HD
ENDBRANCH  20  22
ENDBRANCH  18  20
ENDBRANCH   6  14
TORSDOF 3
ENDMDL
MODEL 7
REMARK VINA RESULT:      -7.8      4.734      6.467
REMARK  Name = 
REMARK  4 active torsions:
REMARK  status: ('A' for Active; 'I' for Inactive)
REMARK    1  A    between atoms: C_1  and  N_2
REMARK    2  A    between atoms: C_6  and  C_7
REMARK    3  A    between atoms: C_11  and  C_12
REMARK    4  A    between atoms: C_12  and  O_14
REMARK                            x       y       z     vdW  Elec       q    Type
REMARK                         _______ _______ _______ _____ _____    ______ ____
ROOT
ATOM      1  C   UNL     1      -0.972  10.544  23.171  0.00  0.00    +0.000 C 
ATOM      2  N   UNL     1      -0.304  10.428  21.891  0.00  0.00    +0.000 N 
ATOM      3  C   UNL     1       0.453   9.218  21.636  0.00  0.00    +0.000 C 
ATOM      4  C   UNL     1       1.047   9.139  20.267  0.00  0.00    +0.000 A 
ATOM      5  C   UNL     1       1.670   7.966  19.818  0.00  0.00    +0.000 A 
ATOM      6  C   UNL     1       2.259   7.874  18.542  0.00  0.00    +0.000 A 
ATOM      7  C   UNL     1       2.203   9.024  17.730  0.00  0.00    +0.000 A 
ATOM      8  C   UNL     1       1.606  10.208  18.180  0.00  0.00    +0.000 A 
ATOM      9  C   UNL     1       1.030  10.254  19.445  0.00  0.00    +0.000 A 
ATOM     10  N   UNL     1       0.431  11.421  19.905  0.00  0.00    +0.000 N 
ATOM     11  C   UNL     1      -0.233  11.544  21.089  0.00  0.00    +0.000 C 
ATOM     12  O   UNL     1      -0.754  12.619  21.385  0.00  0.00    +0.000 OA
ATOM     13  H   UNL     1       0.427  12.253  19.333  0.00  0.00    +0.000 HD
ENDROOT
BRANCH   6  14
ATOM     14  C   UNL     1       2.937   6.631  18.108  0.00  0.00    +0.000 A 
ATOM     15  C   UNL     1       4.212   6.667  17.508  0.00  0.00    +0.000 A 
ATOM     16  C   UNL     1       4.833   5.511  17.028  0.00  0.00    +0.000 A 
ATOM     17  C   UNL     1       4.196   4.281  17.150  0.00  0.00    +0.000 A 
ATOM     18  C   UNL     1       2.940   4.203  17.758  0.00  0.00    +0.000 A 
ATOM     19  C   UNL     1       2.324   5.369  18.243  0.00  0.00    +0.000 A 
BRANCH  18  20
ATOM     20  C   UNL     1       2.323   2.859  17.901  0.00  0.00    +0.000 C 
ATOM     21  O   UNL     1       2.958   1.828  17.762  0.00  0.00    +0.000 OA
BRANCH  20  22
ATOM     22  O   UNL     1       0.999   2.875  18.165  0.00  0.00    +0.000 OA
ATOM     23  H   UNL     1       0.445   3.325  17.503  0.00  0.00    +0.000 HD
ENDBRANCH  20  22
ENDBRANCH  18  20
ENDBRANCH   6  14
TORSDOF 3
ENDMDL
MODEL 8
REMARK VINA RESULT:      -7.6      4.685      6.599
REMARK  Name = 
REMARK  4 active torsions:
REMARK  status: ('A' for Active; 'I' for Inactive)
REMARK    1  A    between atoms: C_1  and  N_2
REMARK    2  A    between atoms: C_6  and  C_7
REMARK    3  A    between atoms: C_11  and  C_12
REMARK    4  A    between atoms: C_12  and  O_14
REMARK                            x       y       z     vdW  Elec       q    Type
REMARK                         _______ _______ _______ _____ _____    ______ ____
ROOT
ATOM      1  C   UNL     1      -0.884  11.161  22.549  0.00  0.00    +0.000 C 
ATOM      2  N   UNL     1      -0.169  10.775  21.350  0.00  0.00    +0.000 N 
ATOM      3  C   UNL     1       0.508   9.493  21.356  0.00  0.00    +0.000 C 
ATOM      4  C   UNL     1       1.155   9.131  20.058  0.00  0.00    +0.000 A 
ATOM      5  C   UNL     1       1.710   7.859  19.860  0.00  0.00    +0.000 A 
ATOM      6  C   UNL     1       2.347   7.502  18.655  0.00  0.00    +0.000 A 
ATOM      7  C   UNL     1       2.412   8.489  17.651  0.00  0.00    +0.000 A 
ATOM      8  C   UNL     1       1.884   9.770  17.851  0.00  0.00    +0.000 A 
ATOM      9  C   UNL     1       1.256  10.080  19.054  0.00  0.00    +0.000 A 
ATOM     10  N   UNL     1       0.724  11.346  19.266  0.00  0.00    +0.000 N 
ATOM     11  C   UNL     1       0.018  11.721  20.370  0.00  0.00    +0.000 C 
ATOM     12  O   UNL     1      -0.435  12.864  20.441  0.00  0.00    +0.000 OA
ATOM     13  H   UNL     1       0.806  12.060  18.557  0.00  0.00    +0.000 HD
ENDROOT
BRANCH   6  14
ATOM     14  C   UNL     1       2.952   6.160  18.487  0.00  0.00    +0.000 A 
ATOM     15  C   UNL     1       4.332   6.007  18.251  0.00  0.00    +0.000 A 
ATOM     16  C   UNL     1       4.906   4.754  18.019  0.00  0.00    +0.000 A 
ATOM     17  C   UNL     1       4.108   3.615  18.030  0.00  0.00    +0.000 A 
ATOM     18  C   UNL     1       2.737   3.726  18.280  0.00  0.00    +0.000 A 
ATOM     19  C   UNL     1       2.169   4.989  18.519  0.00  0.00    +0.000 A 
BRANCH  18  20
ATOM     20  C   UNL     1       1.938   2.474  18.323  0.00  0.00    +0.000 C 
ATOM     21  O   UNL     1       0.725   2.472  18.438  0.00  0.00    +0.000 OA
BRANCH  20  22
ATOM     22  O   UNL     1       2.669   1.341  18.255  0.00  0.00    +0.000 OA
ATOM     23  H   UNL     1       3.615   1.439  18.464  0.00  0.00    +0.000 HD
ENDBRANCH  20  22
ENDBRANCH  18  20
ENDBRANCH   6  14
TORSDOF 3
ENDMDL
MODEL 9
REMARK VINA RESULT:      -7.6      4.772      6.563
REMARK  Name = 
REMARK  4 active torsions:
REMARK  status: ('A' for Active; 'I' for Inactive)
REMARK    1  A    between atoms: C_1  and  N_2
REMARK    2  A    between atoms: C_6  and  C_7
REMARK    3  A    between atoms: C_11  and  C_12
REMARK    4  A    between atoms: C_12  and  O_14
REMARK                            x       y       z     vdW  Elec       q    Type
REMARK                         _______ _______ _______ _____ _____    ______ ____
ROOT
ATOM      1  C   UNL     1      -0.938  11.087  22.744  0.00  0.00    +0.000 C 
ATOM      2  N   UNL     1      -0.271  10.629  21.543  0.00  0.00    +0.000 N 
ATOM      3  C   UNL     1       0.543   9.434  21.642  0.00  0.00    +0.000 C 
ATOM      4  C   UNL     1       1.133   8.981  20.345  0.00  0.00    +0.000 A 
ATOM      5  C   UNL     1       1.812   7.757  20.251  0.00  0.00    +0.000 A 
ATOM      6  C   UNL     1       2.398   7.319  19.047  0.00  0.00    +0.000 A 
ATOM      7  C   UNL     1       2.280   8.174  17.933  0.00  0.00    +0.000 A 
ATOM      8  C   UNL     1       1.628   9.409  18.025  0.00  0.00    +0.000 A 
ATOM      9  C   UNL     1       1.057   9.801  19.232  0.00  0.00    +0.000 A 
ATOM     10  N   UNL     1       0.403  11.023  19.338  0.00  0.00    +0.000 N 
ATOM     11  C   UNL     1      -0.261  11.460  20.447  0.00  0.00    +0.000 C 
ATOM     12  O   UNL     1      -0.832  12.550  20.421  0.00  0.00    +0.000 OA
ATOM     13  H   UNL     1       0.355  11.648  18.547  0.00  0.00    +0.000 HD
ENDROOT
BRANCH   6  14
ATOM     14  C   UNL     1       3.134   6.035  18.986  0.00  0.00    +0.000 A 
ATOM     15  C   UNL     1       2.724   4.923  19.747  0.00  0.00    +0.000 A 
ATOM     16  C   UNL     1       3.449   3.728  19.756  0.00  0.00    +0.000 A 
ATOM     17  C   UNL     1       4.602   3.613  18.987  0.00  0.00    +0.000 A 
ATOM     18  C   UNL     1       5.029   4.689  18.204  0.00  0.00    +0.000 A 
ATOM     19  C   UNL     1       4.292   5.885  18.196  0.00  0.00    +0.000 A 
BRANCH  18  20
ATOM     20  C   UNL     1       6.244   4.498  17.369  0.00  0.00    +0.000 C 
ATOM     21  O   UNL     1       6.217   4.545  16.151  0.00  0.00    +0.000 OA
BRANCH  20  22
ATOM     22  O   UNL     1       7.368   4.237  18.068  0.00  0.00    +0.000 OA
ATOM     23  H   UNL     1       8.203   4.375  17.587  0.00  0.00    +0.000 HD
ENDBRANCH  20  22
ENDBRANCH  18  20
ENDBRANCH   6  14
TORSDOF 3
ENDMDL
