MODEL 1
REMARK VINA RESULT:      -7.4      0.000      0.000
REMARK  Name = 
REMARK  11 active torsions:
REMARK  status: ('A' for Active; 'I' for Inactive)
REMARK    1  A    between atoms: C_1  and  N_2
REMARK    2  A    between atoms: N_2  and  C_3
REMARK    3  A    between atoms: N_2  and  C_4
REMARK    4  A    between atoms: C_4  and  C_5
REMARK    5  A    between atoms: C_5  and  C_6
REMARK    6  A    between atoms: C_6  and  O_7
REMARK    7  A    between atoms: O_7  and  C_8
REMARK    8  A    between atoms: C_11  and  C_12
REMARK    9  A    between atoms: C_17  and  O_18
REMARK   10  A    between atoms: C_19  and  O_20
REMARK   11  A    between atoms: C_21  and  O_22
REMARK                            x       y       z     vdW  Elec       q    Type
REMARK                         _______ _______ _______ _____ _____    ______ ____
ROOT
ATOM      1  C   UNL     1       2.414   7.209  18.044  0.00  0.00    +0.000 A 
ATOM      2  C   UNL     1       3.748   7.053  17.989  0.00  0.00    +0.000 A 
ATOM      3  C   UNL     1       4.241   5.897  17.296  0.00  0.00    +0.000 A 
ATOM      4  O   UNL     1       5.293   5.923  16.642  0.00  0.00    +0.000 OA
ATOM      5  C   UNL     1       3.512   4.703  17.529  0.00  0.00    +0.000 A 
ATOM      6  C   UNL     1       4.194   3.495  17.448  0.00  0.00    +0.000 A 
ATOM      7  C   UNL     1       3.584   2.351  17.882  0.00  0.00    +0.000 A 
ATOM      8  C   UNL     1       2.278   2.418  18.410  0.00  0.00    +0.000 A 
ATOM      9  C   UNL     1       1.566   3.637  18.453  0.00  0.00    +0.000 A 
ATOM     10  C   UNL     1       2.193   4.814  18.028  0.00  0.00    +0.000 A 
ATOM     11  O   UNL     1       1.576   6.067  18.097  0.00  0.00    +0.000 OA
ENDROOT
BRANCH   1  15
ATOM     12  C   UNL     1       0.770  10.947  19.515  0.00  0.00    +0.000 A 
ATOM     13  C   UNL     1       0.732   9.799  20.292  0.00  0.00    +0.000 A 
ATOM     14  C   UNL     1       1.376   8.636  19.848  0.00  0.00    +0.000 A 
ATOM     15  C   UNL     1       2.006   8.548  18.575  0.00  0.00    +0.000 A 
ATOM     16  C   UNL     1       2.111   9.726  17.844  0.00  0.00    +0.000 A 
ATOM     17  C   UNL     1       1.465  10.902  18.295  0.00  0.00    +0.000 A 
BRANCH  12  18
ATOM     18  O   UNL     1       0.155  12.129  19.858  0.00  0.00    +0.000 OA
BRANCH  18  19
ATOM     19  C   UNL     1      -0.682  12.712  18.834  0.00  0.00    +0.000 C 
BRANCH  19  20
ATOM     20  C   UNL     1      -2.040  12.002  18.798  0.00  0.00    +0.000 C 
BRANCH  20  21
ATOM     21  C   UNL     1      -2.200  11.030  17.608  0.00  0.00    +0.000 C 
BRANCH  21  23
ATOM     22  C   UNL     1      -3.046  10.691  15.351  0.00  0.00    +0.000 C 
ATOM     23  N   UNL     1      -3.205  11.435  16.604  0.00  0.00    +0.000 NA
ATOM     24  C   UNL     1      -4.569  11.229  17.110  0.00  0.00    +0.000 C 
ENDBRANCH  21  23
ENDBRANCH  20  21
ENDBRANCH  19  20
ENDBRANCH  18  19
ENDBRANCH  12  18
ENDBRANCH   1  15
BRANCH   6  25
ATOM     25  O   UNL     1       5.486   3.356  16.986  0.00  0.00    +0.000 OA
ATOM     26  H   UNL     1       5.762   2.423  17.205  0.00  0.00    +0.000 HD
ENDBRANCH   6  25
BRANCH   7  27
ATOM     27  O   UNL     1       4.242   1.156  17.892  0.00  0.00    +0.000 OA
ATOM     28  H   UNL     1       5.110   1.376  18.327  0.00  0.00    +0.000 HD
ENDBRANCH   7  27
BRANCH   8  29
ATOM     29  O   UNL     1       1.713   1.261  18.886  0.00  0.00    +0.000 OA
ATOM     30  H   UNL     1       1.805   0.624  18.162  0.00  0.00    +0.000 HD
ENDBRANCH   8  29
TORSDOF 9
ENDMDL
MODEL 2
REMARK VINA RESULT:      -7.4      1.741      3.023
REMARK  Name = 
REMARK  11 active torsions:
REMARK  status: ('A' for Active; 'I' for Inactive)
REMARK    1  A    between atoms: C_1  and  N_2
REMARK    2  A    between atoms: N_2  and  C_3
REMARK    3  A    between atoms: N_2  and  C_4
REMARK    4  A    between atoms: C_4  and  C_5
REMARK    5  A    between atoms: C_5  and  C_6
REMARK    6  A    between atoms: C_6  and  O_7
REMARK    7  A    between atoms: O_7  and  C_8
REMARK    8  A    between atoms: C_11  and  C_12
REMARK    9  A    between atoms: C_17  and  O_18
REMARK   10  A    between atoms: C_19  and  O_20
REMARK   11  A    between atoms: C_21  and  O_22
REMARK                            x       y       z     vdW  Elec       q    Type
REMARK                         _______ _______ _______ _____ _____    ______ ____
ROOT
ATOM      1  C   UNL     1       2.814   7.417  18.552  0.00  0.00    +0.000 A 
ATOM      2  C   UNL     1       2.285   6.190  18.694  0.00  0.00    +0.000 A 
ATOM      3  C   UNL     1       3.195   5.081  18.659  0.00  0.00    +0.000 A 
ATOM      4  O   UNL     1       3.020   4.067  19.349  0.00  0.00    +0.000 OA
ATOM      5  C   UNL     1       4.219   5.177  17.683  0.00  0.00    +0.000 A 
ATOM      6  C   UNL     1       4.728   3.999  17.151  0.00  0.00    +0.000 A 
ATOM      7  C   UNL     1       5.547   4.055  16.057  0.00  0.00    +0.000 A 
ATOM      8  C   UNL     1       5.856   5.307  15.486  0.00  0.00    +0.000 A 
ATOM      9  C   UNL     1       5.377   6.510  16.051  0.00  0.00    +0.000 A 
ATOM     10  C   UNL     1       4.522   6.455  17.157  0.00  0.00    +0.000 A 
ATOM     11  O   UNL     1       3.958   7.597  17.735  0.00  0.00    +0.000 OA
ENDROOT
BRANCH   1  15
ATOM     12  C   UNL     1      -0.371  10.235  19.421  0.00  0.00    +0.000 A 
ATOM     13  C   UNL     1       0.193   9.467  20.429  0.00  0.00    +0.000 A 
ATOM     14  C   UNL     1       1.300   8.655  20.148  0.00  0.00    +0.000 A 
ATOM     15  C   UNL     1       1.831   8.510  18.835  0.00  0.00    +0.000 A 
ATOM     16  C   UNL     1       1.312   9.347  17.853  0.00  0.00    +0.000 A 
ATOM     17  C   UNL     1       0.198  10.172  18.138  0.00  0.00    +0.000 A 
BRANCH  12  18
ATOM     18  O   UNL     1      -1.466  11.049  19.596  0.00  0.00    +0.000 OA
BRANCH  18  19
ATOM     19  C   UNL     1      -2.037  11.589  18.383  0.00  0.00    +0.000 C 
BRANCH  19  20
ATOM     20  C   UNL     1      -3.386  10.921  18.092  0.00  0.00    +0.000 C 
BRANCH  20  21
ATOM     21  C   UNL     1      -4.603  11.809  18.432  0.00  0.00    +0.000 C 
BRANCH  21  23
ATOM     22  C   UNL     1      -6.799  10.766  18.546  0.00  0.00    +0.000 C 
ATOM     23  N   UNL     1      -5.840  11.477  17.696  0.00  0.00    +0.000 NA
ATOM     24  C   UNL     1      -6.479  12.689  17.166  0.00  0.00    +0.000 C 
ENDBRANCH  21  23
ENDBRANCH  20  21
ENDBRANCH  19  20
ENDBRANCH  18  19
ENDBRANCH  12  18
ENDBRANCH   1  15
BRANCH   6  25
ATOM     25  O   UNL     1       4.436   2.736  17.625  0.00  0.00    +0.000 OA
ATOM     26  H   UNL     1       3.535   2.798  18.047  0.00  0.00    +0.000 HD
ENDBRANCH   6  25
BRANCH   7  27
ATOM     27  O   UNL     1       6.008   2.920  15.456  0.00  0.00    +0.000 OA
ATOM     28  H   UNL     1       6.733   2.616  16.066  0.00  0.00    +0.000 HD
ENDBRANCH   7  27
BRANCH   8  29
ATOM     29  O   UNL     1       6.639   5.327  14.359  0.00  0.00    +0.000 OA
ATOM     30  H   UNL     1       6.875   4.400  14.204  0.00  0.00    +0.000 HD
ENDBRANCH   8  29
TORSDOF 9
ENDMDL
MODEL 3
REMARK VINA RESULT:      -7.4      1.402      1.544
REMARK  Name = 
REMARK  11 active torsions:
REMARK  status: ('A' for Active; 'I' for Inactive)
REMARK    1  A    between atoms: C_1  and  N_2
REMARK    2  A    between atoms: N_2  and  C_3
REMARK    3  A    between atoms: N_2  and  C_4
REMARK    4  A    between atoms: C_4  and  C_5
REMARK    5  A    between atoms: C_5  and  C_6
REMARK    6  A    between atoms: C_6  and  O_7
REMARK    7  A    between atoms: O_7  and  C_8
REMARK    8  A    between atoms: C_11  and  C_12
REMARK    9  A    between atoms: C_17  and  O_18
REMARK   10  A    between atoms: C_19  and  O_20
REMARK   11  A    between atoms: C_21  and  O_22
REMARK                            x       y       z     vdW  Elec       q    Type
REMARK                         _______ _______ _______ _____ _____    ______ ____
ROOT
ATOM      1  C   UNL     1       2.140   7.091  18.893  0.00  0.00    +0.000 A 
ATOM      2  C   UNL     1       3.321   6.983  18.261  0.00  0.00    +0.000 A 
ATOM      3  C   UNL     1       3.726   5.666  17.858  0.00  0.00    +0.000 A 
ATOM      4  O   UNL     1       4.365   5.467  16.816  0.00  0.00    +0.000 OA
ATOM      5  C   UNL     1       3.462   4.643  18.803  0.00  0.00    +0.000 A 
ATOM      6  C   UNL     1       4.303   3.537  18.821  0.00  0.00    +0.000 A 
ATOM      7  C   UNL     1       4.217   2.646  19.855  0.00  0.00    +0.000 A 
ATOM      8  C   UNL     1       3.280   2.868  20.886  0.00  0.00    +0.000 A 
ATOM      9  C   UNL     1       2.394   3.966  20.848  0.00  0.00    +0.000 A 
ATOM     10  C   UNL     1       2.492   4.892  19.803  0.00  0.00    +0.000 A 
ATOM     11  O   UNL     1       1.692   6.036  19.727  0.00  0.00    +0.000 OA
ENDROOT
BRANCH   1  15
ATOM     12  C   UNL     1       0.403  11.039  19.374  0.00  0.00    +0.000 A 
ATOM     13  C   UNL     1       0.432  10.142  20.431  0.00  0.00    +0.000 A 
ATOM     14  C   UNL     1       1.106   8.921  20.289  0.00  0.00    +0.000 A 
ATOM     15  C   UNL     1       1.699   8.511  19.062  0.00  0.00    +0.000 A 
ATOM     16  C   UNL     1       1.735   9.452  18.039  0.00  0.00    +0.000 A 
ATOM     17  C   UNL     1       1.060  10.687  18.184  0.00  0.00    +0.000 A 
BRANCH  12  18
ATOM     18  O   UNL     1      -0.245  12.252  19.413  0.00  0.00    +0.000 OA
BRANCH  18  19
ATOM     19  C   UNL     1      -1.112  12.528  18.290  0.00  0.00    +0.000 C 
BRANCH  19  20
ATOM     20  C   UNL     1      -2.489  11.895  18.520  0.00  0.00    +0.000 C 
BRANCH  20  21
ATOM     21  C   UNL     1      -2.687  10.555  17.778  0.00  0.00    +0.000 C 
BRANCH  21  23
ATOM     22  C   UNL     1      -4.713  11.611  16.939  0.00  0.00    +0.000 C 
ATOM     23  N   UNL     1      -3.695  10.584  16.698  0.00  0.00    +0.000 NA
ATOM     24  C   UNL     1      -3.065  10.835  15.395  0.00  0.00    +0.000 C 
ENDBRANCH  21  23
ENDBRANCH  20  21
ENDBRANCH  19  20
ENDBRANCH  18  19
ENDBRANCH  12  18
ENDBRANCH   1  15
BRANCH   6  25
ATOM     25  O   UNL     1       5.272   3.276  17.875  0.00  0.00    +0.000 OA
ATOM     26  H   UNL     1       6.024   2.837  18.360  0.00  0.00    +0.000 HD
ENDBRANCH   6  25
BRANCH   7  27
ATOM     27  O   UNL     1       5.073   1.588  19.954  0.00  0.00    +0.000 OA
ATOM     28  H   UNL     1       4.849   1.194  20.840  0.00  0.00    +0.000 HD
ENDBRANCH   7  27
BRANCH   8  29
ATOM     29  O   UNL     1       3.254   1.984  21.936  0.00  0.00    +0.000 OA
ATOM     30  H   UNL     1       3.018   1.133  21.538  0.00  0.00    +0.000 HD
ENDBRANCH   8  29
TORSDOF 9
ENDMDL
MODEL 4
REMARK VINA RESULT:      -7.3      1.337      2.862
REMARK  Name = 
REMARK  11 active torsions:
REMARK  status: ('A' for Active; 'I' for Inactive)
REMARK    1  A    between atoms: C_1  and  N_2
REMARK    2  A    between atoms: N_2  and  C_3
REMARK    3  A    between atoms: N_2  and  C_4
REMARK    4  A    between atoms: C_4  and  C_5
REMARK    5  A    between atoms: C_5  and  C_6
REMARK    6  A    between atoms: C_6  and  O_7
REMARK    7  A    between atoms: O_7  and  C_8
REMARK    8  A    between atoms: C_11  and  C_12
REMARK    9  A    between atoms: C_17  and  O_18
REMARK   10  A    between atoms: C_19  and  O_20
REMARK   11  A    between atoms: C_21  and  O_22
REMARK                            x       y       z     vdW  Elec       q    Type
REMARK                         _______ _______ _______ _____ _____    ______ ____
ROOT
ATOM      1  C   UNL     1       2.851   7.187  18.617  0.00  0.00    +0.000 A 
ATOM      2  C   UNL     1       2.235   6.005  18.448  0.00  0.00    +0.000 A 
ATOM      3  C   UNL     1       3.069   4.840  18.373  0.00  0.00    +0.000 A 
ATOM      4  O   UNL     1       2.713   3.747  18.833  0.00  0.00    +0.000 OA
ATOM      5  C   UNL     1       4.259   5.003  17.619  0.00  0.00    +0.000 A 
ATOM      6  C   UNL     1       4.787   3.887  16.982  0.00  0.00    +0.000 A 
ATOM      7  C   UNL     1       5.795   4.048  16.072  0.00  0.00    +0.000 A 
ATOM      8  C   UNL     1       6.277   5.345  15.793  0.00  0.00    +0.000 A 
ATOM      9  C   UNL     1       5.773   6.476  16.471  0.00  0.00    +0.000 A 
ATOM     10  C   UNL     1       4.727   6.318  17.387  0.00  0.00    +0.000 A 
ATOM     11  O   UNL     1       4.134   7.396  18.052  0.00  0.00    +0.000 OA
ENDROOT
BRANCH   1  15
ATOM     12  C   UNL     1       0.476  10.717  19.473  0.00  0.00    +0.000 A 
ATOM     13  C   UNL     1       0.957  10.478  18.195  0.00  0.00    +0.000 A 
ATOM     14  C   UNL     1       1.617   9.273  17.914  0.00  0.00    +0.000 A 
ATOM     15  C   UNL     1       1.898   8.302  18.916  0.00  0.00    +0.000 A 
ATOM     16  C   UNL     1       1.338   8.516  20.170  0.00  0.00    +0.000 A 
ATOM     17  C   UNL     1       0.667   9.729  20.453  0.00  0.00    +0.000 A 
BRANCH  12  18
ATOM     18  O   UNL     1      -0.168  11.874  19.848  0.00  0.00    +0.000 OA
BRANCH  18  19
ATOM     19  C   UNL     1      -1.141  12.375  18.904  0.00  0.00    +0.000 C 
BRANCH  19  20
ATOM     20  C   UNL     1      -2.481  11.654  19.095  0.00  0.00    +0.000 C 
BRANCH  20  21
ATOM     21  C   UNL     1      -2.850  10.712  17.928  0.00  0.00    +0.000 C 
BRANCH  21  23
ATOM     22  C   UNL     1      -2.985  10.626  15.500  0.00  0.00    +0.000 C 
ATOM     23  N   UNL     1      -3.318  11.392  16.703  0.00  0.00    +0.000 NA
ATOM     24  C   UNL     1      -4.771  11.609  16.743  0.00  0.00    +0.000 C 
ENDBRANCH  21  23
ENDBRANCH  20  21
ENDBRANCH  19  20
ENDBRANCH  18  19
ENDBRANCH  12  18
ENDBRANCH   1  15
BRANCH   6  25
ATOM     25  O   UNL     1       4.341   2.595  17.169  0.00  0.00    +0.000 OA
ATOM     26  H   UNL     1       3.890   2.330  16.320  0.00  0.00    +0.000 HD
ENDBRANCH   6  25
BRANCH   7  27
ATOM     27  O   UNL     1       6.292   2.990  15.368  0.00  0.00    +0.000 OA
ATOM     28  H   UNL     1       6.923   3.418  14.727  0.00  0.00    +0.000 HD
ENDBRANCH   7  27
BRANCH   8  29
ATOM     29  O   UNL     1       7.253   5.478  14.837  0.00  0.00    +0.000 OA
ATOM     30  H   UNL     1       8.078   5.569  15.335  0.00  0.00    +0.000 HD
ENDBRANCH   8  29
TORSDOF 9
ENDMDL
MODEL 5
REMARK VINA RESULT:      -7.2      2.653      3.988
REMARK  Name = 
REMARK  11 active torsions:
REMARK  status: ('A' for Active; 'I' for Inactive)
REMARK    1  A    between atoms: C_1  and  N_2
REMARK    2  A    between atoms: N_2  and  C_3
REMARK    3  A    between atoms: N_2  and  C_4
REMARK    4  A    between atoms: C_4  and  C_5
REMARK    5  A    between atoms: C_5  and  C_6
REMARK    6  A    between atoms: C_6  and  O_7
REMARK    7  A    between atoms: O_7  and  C_8
REMARK    8  A    between atoms: C_11  and  C_12
REMARK    9  A    between atoms: C_17  and  O_18
REMARK   10  A    between atoms: C_19  and  O_20
REMARK   11  A    between atoms: C_21  and  O_22
REMARK                            x       y       z     vdW  Elec       q    Type
REMARK                         _______ _______ _______ _____ _____    ______ ____
ROOT
ATOM      1  C   UNL     1       2.793   7.226  18.836  0.00  0.00    +0.000 A 
ATOM      2  C   UNL     1       2.368   5.962  18.998  0.00  0.00    +0.000 A 
ATOM      3  C   UNL     1       3.349   4.923  18.875  0.00  0.00    +0.000 A 
ATOM      4  O   UNL     1       3.303   3.892  19.560  0.00  0.00    +0.000 OA
ATOM      5  C   UNL     1       4.285   5.104  17.825  0.00  0.00    +0.000 A 
ATOM      6  C   UNL     1       4.835   3.972  17.237  0.00  0.00    +0.000 A 
ATOM      7  C   UNL     1       5.561   4.100  16.085  0.00  0.00    +0.000 A 
ATOM      8  C   UNL     1       5.734   5.378  15.513  0.00  0.00    +0.000 A 
ATOM      9  C   UNL     1       5.214   6.535  16.132  0.00  0.00    +0.000 A 
ATOM     10  C   UNL     1       4.454   6.407  17.299  0.00  0.00    +0.000 A 
ATOM     11  O   UNL     1       3.855   7.498  17.937  0.00  0.00    +0.000 OA
ENDROOT
BRANCH   1  15
ATOM     12  C   UNL     1       0.151  10.502  19.896  0.00  0.00    +0.000 A 
ATOM     13  C   UNL     1       0.577  10.328  18.588  0.00  0.00    +0.000 A 
ATOM     14  C   UNL     1       1.330   9.196  18.246  0.00  0.00    +0.000 A 
ATOM     15  C   UNL     1       1.759   8.241  19.211  0.00  0.00    +0.000 A 
ATOM     16  C   UNL     1       1.256   8.382  20.499  0.00  0.00    +0.000 A 
ATOM     17  C   UNL     1       0.491   9.522  20.843  0.00  0.00    +0.000 A 
BRANCH  12  18
ATOM     18  O   UNL     1      -0.576  11.586  20.330  0.00  0.00    +0.000 OA
BRANCH  18  19
ATOM     19  C   UNL     1      -0.194  12.112  21.621  0.00  0.00    +0.000 C 
BRANCH  19  20
ATOM     20  C   UNL     1      -1.383  12.827  22.272  0.00  0.00    +0.000 C 
BRANCH  20  21
ATOM     21  C   UNL     1      -2.255  11.904  23.152  0.00  0.00    +0.000 C 
BRANCH  21  23
ATOM     22  C   UNL     1      -4.198  12.438  24.516  0.00  0.00    +0.000 C 
ATOM     23  N   UNL     1      -3.696  12.229  23.155  0.00  0.00    +0.000 NA
ATOM     24  C   UNL     1      -3.969  13.432  22.357  0.00  0.00    +0.000 C 
ENDBRANCH  21  23
ENDBRANCH  20  21
ENDBRANCH  19  20
ENDBRANCH  18  19
ENDBRANCH  12  18
ENDBRANCH   1  15
BRANCH   6  25
ATOM     25  O   UNL     1       4.673   2.687  17.712  0.00  0.00    +0.000 OA
ATOM     26  H   UNL     1       4.291   2.774  18.628  0.00  0.00    +0.000 HD
ENDBRANCH   6  25
BRANCH   7  27
ATOM     27  O   UNL     1       6.054   3.008  15.432  0.00  0.00    +0.000 OA
ATOM     28  H   UNL     1       5.394   2.295  15.647  0.00  0.00    +0.000 HD
ENDBRANCH   7  27
BRANCH   8  29
ATOM     29  O   UNL     1       6.423   5.466  14.329  0.00  0.00    +0.000 OA
ATOM     30  H   UNL     1       6.901   4.627  14.256  0.00  0.00    +0.000 HD
ENDBRANCH   8  29
TORSDOF 9
ENDMDL
MODEL 6
REMARK VINA RESULT:      -7.2      2.409      3.796
REMARK  Name = 
REMARK  11 active torsions:
REMARK  status: ('A' for Active; 'I' for Inactive)
REMARK    1  A    between atoms: C_1  and  N_2
REMARK    2  A    between atoms: N_2  and  C_3
REMARK    3  A    between atoms: N_2  and  C_4
REMARK    4  A    between atoms: C_4  and  C_5
REMARK    5  A    between atoms: C_5  and  C_6
REMARK    6  A    between atoms: C_6  and  O_7
REMARK    7  A    between atoms: O_7  and  C_8
REMARK    8  A    between atoms: C_11  and  C_12
REMARK    9  A    between atoms: C_17  and  O_18
REMARK   10  A    between atoms: C_19  and  O_20
REMARK   11  A    between atoms: C_21  and  O_22
REMARK                            x       y       z     vdW  Elec       q    Type
REMARK                         _______ _______ _______ _____ _____    ______ ____
ROOT
ATOM      1  C   UNL     1       2.772   7.418  18.560  0.00  0.00    +0.000 A 
ATOM      2  C   UNL     1       2.250   6.186  18.692  0.00  0.00    +0.000 A 
ATOM      3  C   UNL     1       3.168   5.084  18.668  0.00  0.00    +0.000 A 
ATOM      4  O   UNL     1       2.991   4.067  19.354  0.00  0.00    +0.000 OA
ATOM      5  C   UNL     1       4.206   5.189  17.707  0.00  0.00    +0.000 A 
ATOM      6  C   UNL     1       4.731   4.015  17.181  0.00  0.00    +0.000 A 
ATOM      7  C   UNL     1       5.565   4.080  16.099  0.00  0.00    +0.000 A 
ATOM      8  C   UNL     1       5.874   5.336  15.535  0.00  0.00    +0.000 A 
ATOM      9  C   UNL     1       5.378   6.533  16.096  0.00  0.00    +0.000 A 
ATOM     10  C   UNL     1       4.507   6.471  17.189  0.00  0.00    +0.000 A 
ATOM     11  O   UNL     1       3.926   7.608  17.760  0.00  0.00    +0.000 OA
ENDROOT
BRANCH   1  15
ATOM     12  C   UNL     1      -0.435  10.209  19.433  0.00  0.00    +0.000 A 
ATOM     13  C   UNL     1       0.204   9.519  20.453  0.00  0.00    +0.000 A 
ATOM     14  C   UNL     1       1.315   8.717  20.160  0.00  0.00    +0.000 A 
ATOM     15  C   UNL     1       1.777   8.503  18.830  0.00  0.00    +0.000 A 
ATOM     16  C   UNL     1       1.183   9.264  17.831  0.00  0.00    +0.000 A 
ATOM     17  C   UNL     1       0.064  10.079  18.127  0.00  0.00    +0.000 A 
BRANCH  12  18
ATOM     18  O   UNL     1      -1.541  11.006  19.620  0.00  0.00    +0.000 OA
BRANCH  18  19
ATOM     19  C   UNL     1      -1.309  12.427  19.486  0.00  0.00    +0.000 C 
BRANCH  19  20
ATOM     20  C   UNL     1      -1.156  13.068  20.870  0.00  0.00    +0.000 C 
BRANCH  20  21
ATOM     21  C   UNL     1      -2.441  13.013  21.725  0.00  0.00    +0.000 C 
BRANCH  21  23
ATOM     22  C   UNL     1      -3.524  12.384  23.811  0.00  0.00    +0.000 C 
ATOM     23  N   UNL     1      -2.246  12.548  23.113  0.00  0.00    +0.000 NA
ATOM     24  C   UNL     1      -1.519  11.272  23.144  0.00  0.00    +0.000 C 
ENDBRANCH  21  23
ENDBRANCH  20  21
ENDBRANCH  19  20
ENDBRANCH  18  19
ENDBRANCH  12  18
ENDBRANCH   1  15
BRANCH   6  25
ATOM     25  O   UNL     1       4.441   2.750  17.648  0.00  0.00    +0.000 OA
ATOM     26  H   UNL     1       5.245   2.192  17.459  0.00  0.00    +0.000 HD
ENDBRANCH   6  25
BRANCH   7  27
ATOM     27  O   UNL     1       6.043   2.950  15.503  0.00  0.00    +0.000 OA
ATOM     28  H   UNL     1       6.198   2.334  16.270  0.00  0.00    +0.000 HD
ENDBRANCH   7  27
BRANCH   8  29
ATOM     29  O   UNL     1       6.673   5.363  14.419  0.00  0.00    +0.000 OA
ATOM     30  H   UNL     1       6.965   4.447  14.300  0.00  0.00    +0.000 HD
ENDBRANCH   8  29
TORSDOF 9
ENDMDL
MODEL 7
REMARK VINA RESULT:      -7.2      1.505      2.614
REMARK  Name = 
REMARK  11 active torsions:
REMARK  status: ('A' for Active; 'I' for Inactive)
REMARK    1  A    between atoms: C_1  and  N_2
REMARK    2  A    between atoms: N_2  and  C_3
REMARK    3  A    between atoms: N_2  and  C_4
REMARK    4  A    between atoms: C_4  and  C_5
REMARK    5  A    between atoms: C_5  and  C_6
REMARK    6  A    between atoms: C_6  and  O_7
REMARK    7  A    between atoms: O_7  and  C_8
REMARK    8  A    between atoms: C_11  and  C_12
REMARK    9  A    between atoms: C_17  and  O_18
REMARK   10  A    between atoms: C_19  and  O_20
REMARK   11  A    between atoms: C_21  and  O_22
REMARK                            x       y       z     vdW  Elec       q    Type
REMARK                         _______ _______ _______ _____ _____    ______ ____
ROOT
ATOM      1  C   UNL     1       2.221   6.918  20.104  0.00  0.00    +0.000 A 
ATOM      2  C   UNL     1       1.444   5.881  20.462  0.00  0.00    +0.000 A 
ATOM      3  C   UNL     1       2.086   4.607  20.613  0.00  0.00    +0.000 A 
ATOM      4  O   UNL     1       1.726   3.789  21.470  0.00  0.00    +0.000 OA
ATOM      5  C   UNL     1       3.061   4.307  19.628  0.00  0.00    +0.000 A 
ATOM      6  C   UNL     1       3.275   2.973  19.305  0.00  0.00    +0.000 A 
ATOM      7  C   UNL     1       4.036   2.660  18.213  0.00  0.00    +0.000 A 
ATOM      8  C   UNL     1       4.586   3.698  17.431  0.00  0.00    +0.000 A 
ATOM      9  C   UNL     1       4.408   5.054  17.782  0.00  0.00    +0.000 A 
ATOM     10  C   UNL     1       3.613   5.379  18.887  0.00  0.00    +0.000 A 
ATOM     11  O   UNL     1       3.339   6.698  19.261  0.00  0.00    +0.000 OA
ENDROOT
BRANCH   1  15
ATOM     12  C   UNL     1      -0.241  10.485  20.335  0.00  0.00    +0.000 A 
ATOM     13  C   UNL     1      -0.150   9.614  21.410  0.00  0.00    +0.000 A 
ATOM     14  C   UNL     1       0.744   8.535  21.358  0.00  0.00    +0.000 A 
ATOM     15  C   UNL     1       1.516   8.235  20.200  0.00  0.00    +0.000 A 
ATOM     16  C   UNL     1       1.478   9.161  19.164  0.00  0.00    +0.000 A 
ATOM     17  C   UNL     1       0.580  10.253  19.219  0.00  0.00    +0.000 A 
BRANCH  12  18
ATOM     18  O   UNL     1      -1.099  11.560  20.287  0.00  0.00    +0.000 OA
BRANCH  18  19
ATOM     19  C   UNL     1      -1.245  12.177  18.988  0.00  0.00    +0.000 C 
BRANCH  19  20
ATOM     20  C   UNL     1      -2.545  11.708  18.325  0.00  0.00    +0.000 C 
BRANCH  20  21
ATOM     21  C   UNL     1      -2.321  10.820  17.082  0.00  0.00    +0.000 C 
BRANCH  21  23
ATOM     22  C   UNL     1      -4.631  11.420  16.608  0.00  0.00    +0.000 C 
ATOM     23  N   UNL     1      -3.549  10.471  16.338  0.00  0.00    +0.000 NA
ATOM     24  C   UNL     1      -3.296  10.435  14.891  0.00  0.00    +0.000 C 
ENDBRANCH  21  23
ENDBRANCH  20  21
ENDBRANCH  19  20
ENDBRANCH  18  19
ENDBRANCH  12  18
ENDBRANCH   1  15
BRANCH   6  25
ATOM     25  O   UNL     1       2.735   1.905  19.994  0.00  0.00    +0.000 OA
ATOM     26  H   UNL     1       2.055   1.499  19.390  0.00  0.00    +0.000 HD
ENDBRANCH   6  25
BRANCH   7  27
ATOM     27  O   UNL     1       4.209   1.367  17.815  0.00  0.00    +0.000 OA
ATOM     28  H   UNL     1       3.286   1.073  17.585  0.00  0.00    +0.000 HD
ENDBRANCH   7  27
BRANCH   8  29
ATOM     29  O   UNL     1       5.301   3.352  16.312  0.00  0.00    +0.000 OA
ATOM     30  H   UNL     1       6.027   3.992  16.274  0.00  0.00    +0.000 HD
ENDBRANCH   8  29
TORSDOF 9
ENDMDL
MODEL 8
REMARK VINA RESULT:      -7.2      2.228      3.692
REMARK  Name = 
REMARK  11 active torsions:
REMARK  status: ('A' for Active; 'I' for Inactive)
REMARK    1  A    between atoms: C_1  and  N_2
REMARK    2  A    between atoms: N_2  and  C_3
REMARK    3  A    between atoms: N_2  and  C_4
REMARK    4  A    between atoms: C_4  and  C_5
REMARK    5  A    between atoms: C_5  and  C_6
REMARK    6  A    between atoms: C_6  and  O_7
REMARK    7  A    between atoms: O_7  and  C_8
REMARK    8  A    between atoms: C_11  and  C_12
REMARK    9  A    between atoms: C_17  and  O_18
REMARK   10  A    between atoms: C_19  and  O_20
REMARK   11  A    between atoms: C_21  and  O_22
REMARK                            x       y       z     vdW  Elec       q    Type
REMARK                         _______ _______ _______ _____ _____    ______ ____
ROOT
ATOM      1  C   UNL     1       2.793   7.418  18.498  0.00  0.00    +0.000 A 
ATOM      2  C   UNL     1       2.270   6.187  18.633  0.00  0.00    +0.000 A 
ATOM      3  C   UNL     1       3.188   5.085  18.612  0.00  0.00    +0.000 A 
ATOM      4  O   UNL     1       3.010   4.070  19.299  0.00  0.00    +0.000 OA
ATOM      5  C   UNL     1       4.226   5.188  17.651  0.00  0.00    +0.000 A 
ATOM      6  C   UNL     1       4.751   4.012  17.127  0.00  0.00    +0.000 A 
ATOM      7  C   UNL     1       5.586   4.074  16.046  0.00  0.00    +0.000 A 
ATOM      8  C   UNL     1       5.896   5.328  15.480  0.00  0.00    +0.000 A 
ATOM      9  C   UNL     1       5.400   6.527  16.037  0.00  0.00    +0.000 A 
ATOM     10  C   UNL     1       4.529   6.468  17.130  0.00  0.00    +0.000 A 
ATOM     11  O   UNL     1       3.948   7.606  17.699  0.00  0.00    +0.000 OA
ENDROOT
BRANCH   1  15
ATOM     12  C   UNL     1      -0.410  10.213  19.374  0.00  0.00    +0.000 A 
ATOM     13  C   UNL     1       0.246   9.543  20.394  0.00  0.00    +0.000 A 
ATOM     14  C   UNL     1       1.356   8.739  20.098  0.00  0.00    +0.000 A 
ATOM     15  C   UNL     1       1.799   8.505  18.766  0.00  0.00    +0.000 A 
ATOM     16  C   UNL     1       1.187   9.248  17.762  0.00  0.00    +0.000 A 
ATOM     17  C   UNL     1       0.070  10.064  18.062  0.00  0.00    +0.000 A 
BRANCH  12  18
ATOM     18  O   UNL     1      -1.516  11.010  19.564  0.00  0.00    +0.000 OA
BRANCH  18  19
ATOM     19  C   UNL     1      -1.476  12.293  18.898  0.00  0.00    +0.000 C 
BRANCH  19  20
ATOM     20  C   UNL     1      -0.636  13.283  19.713  0.00  0.00    +0.000 C 
BRANCH  20  21
ATOM     21  C   UNL     1       0.185  14.261  18.844  0.00  0.00    +0.000 C 
BRANCH  21  23
ATOM     22  C   UNL     1       2.255  13.021  18.530  0.00  0.00    +0.000 C 
ATOM     23  N   UNL     1       1.642  14.232  19.083  0.00  0.00    +0.000 NA
ATOM     24  C   UNL     1       2.297  15.408  18.495  0.00  0.00    +0.000 C 
ENDBRANCH  21  23
ENDBRANCH  20  21
ENDBRANCH  19  20
ENDBRANCH  18  19
ENDBRANCH  12  18
ENDBRANCH   1  15
BRANCH   6  25
ATOM     25  O   UNL     1       4.461   2.748  17.598  0.00  0.00    +0.000 OA
ATOM     26  H   UNL     1       5.066   2.124  17.111  0.00  0.00    +0.000 HD
ENDBRANCH   6  25
BRANCH   7  27
ATOM     27  O   UNL     1       6.064   2.942  15.453  0.00  0.00    +0.000 OA
ATOM     28  H   UNL     1       5.311   2.299  15.549  0.00  0.00    +0.000 HD
ENDBRANCH   7  27
BRANCH   8  29
ATOM     29  O   UNL     1       6.695   5.353  14.364  0.00  0.00    +0.000 OA
ATOM     30  H   UNL     1       6.087   5.239  13.620  0.00  0.00    +0.000 HD
ENDBRANCH   8  29
TORSDOF 9
ENDMDL
MODEL 9
REMARK VINA RESULT:      -7.0      3.208      9.147
REMARK  Name = 
REMARK  11 active torsions:
REMARK  status: ('A' for Active; 'I' for Inactive)
REMARK    1  A    between atoms: C_1  and  N_2
REMARK    2  A    between atoms: N_2  and  C_3
REMARK    3  A    between atoms: N_2  and  C_4
REMARK    4  A    between atoms: C_4  and  C_5
REMARK    5  A    between atoms: C_5  and  C_6
REMARK    6  A    between atoms: C_6  and  O_7
REMARK    7  A    between atoms: O_7  and  C_8
REMARK    8  A    between atoms: C_11  and  C_12
REMARK    9  A    between atoms: C_17  and  O_18
REMARK   10  A    between atoms: C_19  and  O_20
REMARK   11  A    between atoms: C_21  and  O_22
REMARK                            x       y       z     vdW  Elec       q    Type
REMARK                         _______ _______ _______ _____ _____    ______ ____
ROOT
ATOM      1  C   UNL     1       0.693   9.953  19.803  0.00  0.00    +0.000 A 
ATOM      2  C   UNL     1      -0.228  10.195  18.855  0.00  0.00    +0.000 A 
ATOM      3  C   UNL     1      -0.969  11.419  18.962  0.00  0.00    +0.000 A 
ATOM      4  O   UNL     1      -1.332  12.056  17.964  0.00  0.00    +0.000 OA
ATOM      5  C   UNL     1      -1.368  11.764  20.279  0.00  0.00    +0.000 A 
ATOM      6  C   UNL     1      -2.531  12.507  20.436  0.00  0.00    +0.000 A 
ATOM      7  C   UNL     1      -3.062  12.664  21.687  0.00  0.00    +0.000 A 
ATOM      8  C   UNL     1      -2.423  12.065  22.792  0.00  0.00    +0.000 A 
ATOM      9  C   UNL     1      -1.217  11.347  22.642  0.00  0.00    +0.000 A 
ATOM     10  C   UNL     1      -0.680  11.166  21.362  0.00  0.00    +0.000 A 
ATOM     11  O   UNL     1       0.476  10.417  21.125  0.00  0.00    +0.000 OA
ENDROOT
BRANCH   1  15
ATOM     12  C   UNL     1       2.875   6.412  18.564  0.00  0.00    +0.000 A 
ATOM     13  C   UNL     1       2.770   7.512  17.726  0.00  0.00    +0.000 A 
ATOM     14  C   UNL     1       2.167   8.688  18.192  0.00  0.00    +0.000 A 
ATOM     15  C   UNL     1       1.568   8.783  19.480  0.00  0.00    +0.000 A 
ATOM     16  C   UNL     1       1.753   7.705  20.339  0.00  0.00    +0.000 A 
ATOM     17  C   UNL     1       2.368   6.520  19.870  0.00  0.00    +0.000 A 
BRANCH  12  18
ATOM     18  O   UNL     1       3.435   5.212  18.192  0.00  0.00    +0.000 OA
BRANCH  18  19
ATOM     19  C   UNL     1       4.617   4.825  18.928  0.00  0.00    +0.000 C 
BRANCH  19  20
ATOM     20  C   UNL     1       4.454   3.403  19.477  0.00  0.00    +0.000 C 
BRANCH  20  21
ATOM     21  C   UNL     1       3.411   2.559  18.711  0.00  0.00    +0.000 C 
BRANCH  21  23
ATOM     22  C   UNL     1       2.266   2.739  20.851  0.00  0.00    +0.000 C 
ATOM     23  N   UNL     1       2.219   2.180  19.497  0.00  0.00    +0.000 NA
ATOM     24  C   UNL     1       0.987   2.631  18.838  0.00  0.00    +0.000 C 
ENDBRANCH  21  23
ENDBRANCH  20  21
ENDBRANCH  19  20
ENDBRANCH  18  19
ENDBRANCH  12  18
ENDBRANCH   1  15
BRANCH   6  25
ATOM     25  O   UNL     1      -3.236  13.084  19.401  0.00  0.00    +0.000 OA
ATOM     26  H   UNL     1      -3.949  12.434  19.152  0.00  0.00    +0.000 HD
ENDBRANCH   6  25
BRANCH   7  27
ATOM     27  O   UNL     1      -4.243  13.321  21.879  0.00  0.00    +0.000 OA
ATOM     28  H   UNL     1      -4.918  12.590  21.850  0.00  0.00    +0.000 HD
ENDBRANCH   7  27
BRANCH   8  29
ATOM     29  O   UNL     1      -3.010  12.198  24.027  0.00  0.00    +0.000 OA
ATOM     30  H   UNL     1      -3.950  12.020  23.876  0.00  0.00    +0.000 HD
ENDBRANCH   8  29
TORSDOF 9
ENDMDL
