MODEL 1
REMARK VINA RESULT:      -7.0      0.000      0.000
REMARK  Name = 
REMARK  0 active torsions:
REMARK  status: ('A' for Active; 'I' for Inactive)
REMARK                            x       y       z     vdW  Elec       q    Type
REMARK                         _______ _______ _______ _____ _____    ______ ____
ROOT
ATOM      1  O   UNL     1       1.409   2.523  22.165  0.00  0.00    +0.000 OA
ATOM      2  C   UNL     1       1.792   2.806  21.036  0.00  0.00    +0.000 A 
ATOM      3  C   UNL     1       0.854   2.798  19.900  0.00  0.00    +0.000 A 
ATOM      4  C   UNL     1       1.235   3.083  18.651  0.00  0.00    +0.000 A 
ATOM      5  C   UNL     1       2.625   3.423  18.382  0.00  0.00    +0.000 A 
ATOM      6  C   UNL     1       3.064   3.722  17.083  0.00  0.00    +0.000 A 
ATOM      7  C   UNL     1       4.417   4.065  16.888  0.00  0.00    +0.000 A 
ATOM      8  C   UNL     1       5.220   4.430  15.775  0.00  0.00    +0.000 A 
ATOM      9  C   UNL     1       6.487   4.654  16.265  0.00  0.00    +0.000 A 
ATOM     10  O   UNL     1       6.524   4.446  17.606  0.00  0.00    +0.000 OA
ATOM     11  C   UNL     1       5.268   4.088  17.989  0.00  0.00    +0.000 A 
ATOM     12  C   UNL     1       4.876   3.789  19.289  0.00  0.00    +0.000 A 
ATOM     13  C   UNL     1       3.529   3.456  19.446  0.00  0.00    +0.000 A 
ATOM     14  O   UNL     1       3.108   3.147  20.759  0.00  0.00    +0.000 OA
ENDROOT
TORSDOF 0
ENDMDL
MODEL 2
REMARK VINA RESULT:      -7.0      0.802      4.939
REMARK  Name = 
REMARK  0 active torsions:
REMARK  status: ('A' for Active; 'I' for Inactive)
REMARK                            x       y       z     vdW  Elec       q    Type
REMARK                         _______ _______ _______ _____ _____    ______ ____
ROOT
ATOM      1  O   UNL     1       7.993   4.571  16.797  0.00  0.00    +0.000 OA
ATOM      2  C   UNL     1       6.800   4.389  17.003  0.00  0.00    +0.000 A 
ATOM      3  C   UNL     1       5.821   4.508  15.908  0.00  0.00    +0.000 A 
ATOM      4  C   UNL     1       4.509   4.334  16.095  0.00  0.00    +0.000 A 
ATOM      5  C   UNL     1       4.007   4.008  17.423  0.00  0.00    +0.000 A 
ATOM      6  C   UNL     1       2.636   3.824  17.659  0.00  0.00    +0.000 A 
ATOM      7  C   UNL     1       2.212   3.489  18.961  0.00  0.00    +0.000 A 
ATOM      8  C   UNL     1       0.964   3.221  19.583  0.00  0.00    +0.000 A 
ATOM      9  C   UNL     1       1.239   2.943  20.903  0.00  0.00    +0.000 A 
ATOM     10  O   UNL     1       2.573   3.027  21.142  0.00  0.00    +0.000 OA
ATOM     11  C   UNL     1       3.168   3.360  19.964  0.00  0.00    +0.000 A 
ATOM     12  C   UNL     1       4.533   3.543  19.775  0.00  0.00    +0.000 A 
ATOM     13  C   UNL     1       4.918   3.871  18.473  0.00  0.00    +0.000 A 
ATOM     14  O   UNL     1       6.301   4.063  18.256  0.00  0.00    +0.000 OA
ENDROOT
TORSDOF 0
ENDMDL
MODEL 3
REMARK VINA RESULT:      -6.8      1.442      5.161
REMARK  Name = 
REMARK  0 active torsions:
REMARK  status: ('A' for Active; 'I' for Inactive)
REMARK                            x       y       z     vdW  Elec       q    Type
REMARK                         _______ _______ _______ _____ _____    ______ ____
ROOT
ATOM      1  O   UNL     1       7.560   6.611  16.464  0.00  0.00    +0.000 OA
ATOM      2  C   UNL     1       6.553   5.951  16.693  0.00  0.00    +0.000 A 
ATOM      3  C   UNL     1       6.082   4.940  15.731  0.00  0.00    +0.000 A 
ATOM      4  C   UNL     1       4.980   4.212  15.935  0.00  0.00    +0.000 A 
ATOM      5  C   UNL     1       4.203   4.406  17.151  0.00  0.00    +0.000 A 
ATOM      6  C   UNL     1       3.037   3.665  17.398  0.00  0.00    +0.000 A 
ATOM      7  C   UNL     1       2.339   3.882  18.604  0.00  0.00    +0.000 A 
ATOM      8  C   UNL     1       1.170   3.349  19.208  0.00  0.00    +0.000 A 
ATOM      9  C   UNL     1       1.031   3.990  20.418  0.00  0.00    +0.000 A 
ATOM     10  O   UNL     1       2.031   4.889  20.601  0.00  0.00    +0.000 OA
ATOM     11  C   UNL     1       2.829   4.826  19.500  0.00  0.00    +0.000 A 
ATOM     12  C   UNL     1       3.973   5.588  19.290  0.00  0.00    +0.000 A 
ATOM     13  C   UNL     1       4.641   5.345  18.088  0.00  0.00    +0.000 A 
ATOM     14  O   UNL     1       5.807   6.109  17.852  0.00  0.00    +0.000 OA
ENDROOT
TORSDOF 0
ENDMDL
MODEL 4
REMARK VINA RESULT:      -6.8      1.793      5.311
REMARK  Name = 
REMARK  0 active torsions:
REMARK  status: ('A' for Active; 'I' for Inactive)
REMARK                            x       y       z     vdW  Elec       q    Type
REMARK                         _______ _______ _______ _____ _____    ______ ____
ROOT
ATOM      1  O   UNL     1       6.577   5.326  14.796  0.00  0.00    +0.000 OA
ATOM      2  C   UNL     1       5.700   5.380  15.649  0.00  0.00    +0.000 A 
ATOM      3  C   UNL     1       5.254   6.677  16.189  0.00  0.00    +0.000 A 
ATOM      4  C   UNL     1       4.313   6.777  17.133  0.00  0.00    +0.000 A 
ATOM      5  C   UNL     1       3.689   5.572  17.659  0.00  0.00    +0.000 A 
ATOM      6  C   UNL     1       2.702   5.637  18.655  0.00  0.00    +0.000 A 
ATOM      7  C   UNL     1       2.118   4.437  19.109  0.00  0.00    +0.000 A 
ATOM      8  C   UNL     1       1.120   4.091  20.059  0.00  0.00    +0.000 A 
ATOM      9  C   UNL     1       1.004   2.721  20.018  0.00  0.00    +0.000 A 
ATOM     10  O   UNL     1       1.866   2.193  19.112  0.00  0.00    +0.000 OA
ATOM     11  C   UNL     1       2.546   3.233  18.558  0.00  0.00    +0.000 A 
ATOM     12  C   UNL     1       3.526   3.124  17.578  0.00  0.00    +0.000 A 
ATOM     13  C   UNL     1       4.081   4.332  17.149  0.00  0.00    +0.000 A 
ATOM     14  O   UNL     1       5.081   4.246  16.154  0.00  0.00    +0.000 OA
ENDROOT
TORSDOF 0
ENDMDL
MODEL 5
REMARK VINA RESULT:      -6.6      1.589      1.778
REMARK  Name = 
REMARK  0 active torsions:
REMARK  status: ('A' for Active; 'I' for Inactive)
REMARK                            x       y       z     vdW  Elec       q    Type
REMARK                         _______ _______ _______ _____ _____    ______ ____
ROOT
ATOM      1  O   UNL     1       1.451   2.596  21.608  0.00  0.00    +0.000 OA
ATOM      2  C   UNL     1       1.955   3.370  20.804  0.00  0.00    +0.000 A 
ATOM      3  C   UNL     1       1.721   4.821  20.907  0.00  0.00    +0.000 A 
ATOM      4  C   UNL     1       2.239   5.696  20.039  0.00  0.00    +0.000 A 
ATOM      5  C   UNL     1       3.074   5.219  18.946  0.00  0.00    +0.000 A 
ATOM      6  C   UNL     1       3.630   6.106  18.012  0.00  0.00    +0.000 A 
ATOM      7  C   UNL     1       4.448   5.587  16.988  0.00  0.00    +0.000 A 
ATOM      8  C   UNL     1       5.177   6.133  15.898  0.00  0.00    +0.000 A 
ATOM      9  C   UNL     1       5.789   5.072  15.270  0.00  0.00    +0.000 A 
ATOM     10  O   UNL     1       5.483   3.905  15.893  0.00  0.00    +0.000 OA
ATOM     11  C   UNL     1       4.668   4.214  16.938  0.00  0.00    +0.000 A 
ATOM     12  C   UNL     1       4.129   3.300  17.836  0.00  0.00    +0.000 A 
ATOM     13  C   UNL     1       3.327   3.849  18.839  0.00  0.00    +0.000 A 
ATOM     14  O   UNL     1       2.766   2.939  19.764  0.00  0.00    +0.000 OA
ENDROOT
TORSDOF 0
ENDMDL
MODEL 6
REMARK VINA RESULT:      -6.6      1.668      5.348
REMARK  Name = 
REMARK  0 active torsions:
REMARK  status: ('A' for Active; 'I' for Inactive)
REMARK                            x       y       z     vdW  Elec       q    Type
REMARK                         _______ _______ _______ _____ _____    ______ ____
ROOT
ATOM      1  O   UNL     1       7.608   4.755  15.427  0.00  0.00    +0.000 OA
ATOM      2  C   UNL     1       6.808   4.681  16.352  0.00  0.00    +0.000 A 
ATOM      3  C   UNL     1       7.161   5.181  17.693  0.00  0.00    +0.000 A 
ATOM      4  C   UNL     1       6.323   5.104  18.731  0.00  0.00    +0.000 A 
ATOM      5  C   UNL     1       5.005   4.512  18.553  0.00  0.00    +0.000 A 
ATOM      6  C   UNL     1       4.101   4.408  19.621  0.00  0.00    +0.000 A 
ATOM      7  C   UNL     1       2.831   3.845  19.381  0.00  0.00    +0.000 A 
ATOM      8  C   UNL     1       1.675   3.581  20.162  0.00  0.00    +0.000 A 
ATOM      9  C   UNL     1       0.751   3.016  19.313  0.00  0.00    +0.000 A 
ATOM     10  O   UNL     1       1.259   2.906  18.058  0.00  0.00    +0.000 OA
ATOM     11  C   UNL     1       2.524   3.408  18.096  0.00  0.00    +0.000 A 
ATOM     12  C   UNL     1       3.393   3.484  17.013  0.00  0.00    +0.000 A 
ATOM     13  C   UNL     1       4.640   4.049  17.286  0.00  0.00    +0.000 A 
ATOM     14  O   UNL     1       5.542   4.136  16.200  0.00  0.00    +0.000 OA
ENDROOT
TORSDOF 0
ENDMDL
MODEL 7
REMARK VINA RESULT:      -6.6      1.798      5.112
REMARK  Name = 
REMARK  0 active torsions:
REMARK  status: ('A' for Active; 'I' for Inactive)
REMARK                            x       y       z     vdW  Elec       q    Type
REMARK                         _______ _______ _______ _____ _____    ______ ____
ROOT
ATOM      1  O   UNL     1       7.587   6.302  16.405  0.00  0.00    +0.000 OA
ATOM      2  C   UNL     1       6.439   6.086  16.771  0.00  0.00    +0.000 A 
ATOM      3  C   UNL     1       5.478   7.193  16.926  0.00  0.00    +0.000 A 
ATOM      4  C   UNL     1       4.222   7.001  17.339  0.00  0.00    +0.000 A 
ATOM      5  C   UNL     1       3.762   5.655  17.650  0.00  0.00    +0.000 A 
ATOM      6  C   UNL     1       2.452   5.415  18.093  0.00  0.00    +0.000 A 
ATOM      7  C   UNL     1       2.059   4.088  18.357  0.00  0.00    +0.000 A 
ATOM      8  C   UNL     1       0.867   3.451  18.795  0.00  0.00    +0.000 A 
ATOM      9  C   UNL     1       1.141   2.104  18.843  0.00  0.00    +0.000 A 
ATOM     10  O   UNL     1       2.424   1.862  18.471  0.00  0.00    +0.000 OA
ATOM     11  C   UNL     1       2.986   3.066  18.175  0.00  0.00    +0.000 A 
ATOM     12  C   UNL     1       4.295   3.261  17.748  0.00  0.00    +0.000 A 
ATOM     13  C   UNL     1       4.649   4.587  17.493  0.00  0.00    +0.000 A 
ATOM     14  O   UNL     1       5.975   4.810  17.058  0.00  0.00    +0.000 OA
ENDROOT
TORSDOF 0
ENDMDL
MODEL 8
REMARK VINA RESULT:      -6.5      1.649      4.805
REMARK  Name = 
REMARK  0 active torsions:
REMARK  status: ('A' for Active; 'I' for Inactive)
REMARK                            x       y       z     vdW  Elec       q    Type
REMARK                         _______ _______ _______ _____ _____    ______ ____
ROOT
ATOM      1  O   UNL     1       8.208   6.081  18.955  0.00  0.00    +0.000 OA
ATOM      2  C   UNL     1       7.050   5.815  18.659  0.00  0.00    +0.000 A 
ATOM      3  C   UNL     1       6.327   6.614  17.655  0.00  0.00    +0.000 A 
ATOM      4  C   UNL     1       5.058   6.367  17.317  0.00  0.00    +0.000 A 
ATOM      5  C   UNL     1       4.344   5.267  17.951  0.00  0.00    +0.000 A 
ATOM      6  C   UNL     1       3.009   4.981  17.627  0.00  0.00    +0.000 A 
ATOM      7  C   UNL     1       2.379   3.889  18.258  0.00  0.00    +0.000 A 
ATOM      8  C   UNL     1       1.093   3.289  18.199  0.00  0.00    +0.000 A 
ATOM      9  C   UNL     1       1.119   2.227  19.074  0.00  0.00    +0.000 A 
ATOM     10  O   UNL     1       2.333   2.131  19.675  0.00  0.00    +0.000 OA
ATOM     11  C   UNL     1       3.101   3.141  19.182  0.00  0.00    +0.000 A 
ATOM     12  C   UNL     1       4.421   3.396  19.538  0.00  0.00    +0.000 A 
ATOM     13  C   UNL     1       5.015   4.482  18.892  0.00  0.00    +0.000 A 
ATOM     14  O   UNL     1       6.357   4.763  19.239  0.00  0.00    +0.000 OA
ENDROOT
TORSDOF 0
ENDMDL
MODEL 9
REMARK VINA RESULT:      -6.5      1.700      2.255
REMARK  Name = 
REMARK  0 active torsions:
REMARK  status: ('A' for Active; 'I' for Inactive)
REMARK                            x       y       z     vdW  Elec       q    Type
REMARK                         _______ _______ _______ _____ _____    ______ ____
ROOT
ATOM      1  O   UNL     1       0.105   2.166  18.870  0.00  0.00    +0.000 OA
ATOM      2  C   UNL     1       1.111   2.852  18.997  0.00  0.00    +0.000 A 
ATOM      3  C   UNL     1       1.258   3.767  20.143  0.00  0.00    +0.000 A 
ATOM      4  C   UNL     1       2.332   4.545  20.308  0.00  0.00    +0.000 A 
ATOM      5  C   UNL     1       3.413   4.499  19.333  0.00  0.00    +0.000 A 
ATOM      6  C   UNL     1       4.553   5.305  19.470  0.00  0.00    +0.000 A 
ATOM      7  C   UNL     1       5.576   5.200  18.506  0.00  0.00    +0.000 A 
ATOM      8  C   UNL     1       6.842   5.811  18.300  0.00  0.00    +0.000 A 
ATOM      9  C   UNL     1       7.362   5.251  17.156  0.00  0.00    +0.000 A 
ATOM     10  O   UNL     1       6.502   4.339  16.634  0.00  0.00    +0.000 OA
ATOM     11  C   UNL     1       5.415   4.306  17.452  0.00  0.00    +0.000 A 
ATOM     12  C   UNL     1       4.298   3.497  17.275  0.00  0.00    +0.000 A 
ATOM     13  C   UNL     1       3.306   3.625  18.249  0.00  0.00    +0.000 A 
ATOM     14  O   UNL     1       2.160   2.813  18.089  0.00  0.00    +0.000 OA
ENDROOT
TORSDOF 0
ENDMDL
