MODEL 1
REMARK VINA RESULT:      -8.0      0.000      0.000
REMARK  Name = 
REMARK  5 active torsions:
REMARK  status: ('A' for Active; 'I' for Inactive)
REMARK    1  A    between atoms: C_2  and  C_15
REMARK    2  A    between atoms: N_3  and  N_4
REMARK    3  A    between atoms: C_5  and  C_6
REMARK    4  A    between atoms: C_11  and  N_12
REMARK    5  A    between atoms: N_17  and  C_18
REMARK                            x       y       z     vdW  Elec       q    Type
REMARK                         _______ _______ _______ _____ _____    ______ ____
ROOT
ATOM      1  C   UNL     1      -0.768  11.168  21.337  0.00  0.00    +0.000 A 
ATOM      2  C   UNL     1      -0.725  11.567  20.054  0.00  0.00    +0.000 A 
ATOM      3  N   UNL     1      -0.443  10.778  18.941  0.00  0.00    +0.000 N 
ATOM      4  C   UNL     1       0.446   9.699  19.210  0.00  0.00    +0.000 A 
ATOM      5  C   UNL     1       1.319   9.247  18.215  0.00  0.00    +0.000 A 
ATOM      6  C   UNL     1       2.201   8.209  18.501  0.00  0.00    +0.000 A 
ATOM      7 CL   UNL     1       3.307   7.696  17.286  0.00  0.00    +0.000 Cl
ATOM      8  C   UNL     1       2.190   7.612  19.767  0.00  0.00    +0.000 A 
ATOM      9  F   UNL     1       3.042   6.617  20.048  0.00  0.00    +0.000 F 
ATOM     10  C   UNL     1       1.321   8.052  20.764  0.00  0.00    +0.000 A 
ATOM     11  C   UNL     1       0.473   9.124  20.490  0.00  0.00    +0.000 A 
ATOM     12  C   UNL     1      -0.416   9.718  21.529  0.00  0.00    +0.000 A 
ATOM     13  O   UNL     1      -0.823   9.013  22.444  0.00  0.00    +0.000 OA
ENDROOT
BRANCH   1  15
ATOM     14  O   UNL     1      -0.604  12.370  23.392  0.00  0.00    +0.000 OA
ATOM     15  C   UNL     1      -1.288  12.050  22.435  0.00  0.00    +0.000 C 
ATOM     16  N   UNL     1      -2.633  12.403  22.280  0.00  0.00    +0.000 N 
ATOM     17  H   UNL     1      -3.124  12.247  21.412  0.00  0.00    +0.000 HD
BRANCH  16  18
ATOM     18  N   UNL     1      -3.351  13.023  23.250  0.00  0.00    +0.000 NA
ATOM     19  C   UNL     1      -4.588  13.335  22.977  0.00  0.00    +0.000 C 
BRANCH  19  20
ATOM     20  C   UNL     1      -5.435  12.864  21.843  0.00  0.00    +0.000 A 
ATOM     21  C   UNL     1      -4.903  12.831  20.544  0.00  0.00    +0.000 A 
ATOM     22  C   UNL     1      -5.652  12.321  19.476  0.00  0.00    +0.000 A 
ATOM     23  C   UNL     1      -6.925  11.798  19.688  0.00  0.00    +0.000 A 
ATOM     24  C   UNL     1      -7.458  11.784  20.974  0.00  0.00    +0.000 A 
ATOM     25  C   UNL     1      -6.711  12.321  22.035  0.00  0.00    +0.000 A 
BRANCH  25  26
ATOM     26  N   UNL     1      -7.324  12.329  23.341  0.00  0.00    +0.000 N 
ATOM     27  O   UNL     1      -7.916  13.363  23.672  0.00  0.00    +0.000 OA
ATOM     28  O   UNL     1      -7.225  11.299  24.014  0.00  0.00    +0.000 OA
ENDBRANCH  25  26
ENDBRANCH  19  20
ENDBRANCH  16  18
ENDBRANCH   1  15
BRANCH   3  29
ATOM     29  C   UNL     1      -1.741  10.308  18.350  0.00  0.00    +0.000 C 
ATOM     30  C   UNL     1      -2.502  11.166  17.378  0.00  0.00    +0.000 C 
ATOM     31  C   UNL     1      -1.885   9.877  16.921  0.00  0.00    +0.000 C 
ENDBRANCH   3  29
TORSDOF 5
ENDMDL
MODEL 2
REMARK VINA RESULT:      -7.6      1.321      1.564
REMARK  Name = 
REMARK  5 active torsions:
REMARK  status: ('A' for Active; 'I' for Inactive)
REMARK    1  A    between atoms: C_2  and  C_15
REMARK    2  A    between atoms: N_3  and  N_4
REMARK    3  A    between atoms: C_5  and  C_6
REMARK    4  A    between atoms: C_11  and  N_12
REMARK    5  A    between atoms: N_17  and  C_18
REMARK                            x       y       z     vdW  Elec       q    Type
REMARK                         _______ _______ _______ _____ _____    ______ ____
ROOT
ATOM      1  C   UNL     1      -1.008  12.274  21.759  0.00  0.00    +0.000 A 
ATOM      2  C   UNL     1      -0.978  12.594  20.453  0.00  0.00    +0.000 A 
ATOM      3  N   UNL     1      -0.807  11.721  19.381  0.00  0.00    +0.000 N 
ATOM      4  C   UNL     1      -0.006  10.585  19.685  0.00  0.00    +0.000 A 
ATOM      5  C   UNL     1       0.787  10.001  18.691  0.00  0.00    +0.000 A 
ATOM      6  C   UNL     1       1.585   8.907  19.011  0.00  0.00    +0.000 A 
ATOM      7 CL   UNL     1       2.597   8.229  17.794  0.00  0.00    +0.000 Cl
ATOM      8  C   UNL     1       1.569   8.385  20.310  0.00  0.00    +0.000 A 
ATOM      9  F   UNL     1       2.340   7.336  20.622  0.00  0.00    +0.000 F 
ATOM     10  C   UNL     1       0.779   8.957  21.306  0.00  0.00    +0.000 A 
ATOM     11  C   UNL     1       0.018  10.082  20.996  0.00  0.00    +0.000 A 
ATOM     12  C   UNL     1      -0.777  10.811  22.025  0.00  0.00    +0.000 A 
ATOM     13  O   UNL     1      -1.210  10.198  22.993  0.00  0.00    +0.000 OA
ENDROOT
BRANCH   1  15
ATOM     14  O   UNL     1      -0.602  13.992  23.364  0.00  0.00    +0.000 OA
ATOM     15  C   UNL     1      -1.409  13.259  22.818  0.00  0.00    +0.000 C 
ATOM     16  N   UNL     1      -2.766  13.201  23.152  0.00  0.00    +0.000 N 
ATOM     17  H   UNL     1      -3.430  12.693  22.585  0.00  0.00    +0.000 HD
BRANCH  16  18
ATOM     18  N   UNL     1      -3.294  13.859  24.215  0.00  0.00    +0.000 NA
ATOM     19  C   UNL     1      -4.395  14.531  24.020  0.00  0.00    +0.000 C 
BRANCH  19  20
ATOM     20  C   UNL     1      -5.328  14.469  22.858  0.00  0.00    +0.000 A 
ATOM     21  C   UNL     1      -5.022  15.169  21.681  0.00  0.00    +0.000 A 
ATOM     22  C   UNL     1      -5.842  15.063  20.550  0.00  0.00    +0.000 A 
ATOM     23  C   UNL     1      -6.956  14.228  20.558  0.00  0.00    +0.000 A 
ATOM     24  C   UNL     1      -7.257  13.493  21.700  0.00  0.00    +0.000 A 
ATOM     25  C   UNL     1      -6.445  13.625  22.838  0.00  0.00    +0.000 A 
BRANCH  25  26
ATOM     26  N   UNL     1      -6.825  12.881  24.014  0.00  0.00    +0.000 N 
ATOM     27  O   UNL     1      -6.155  11.877  24.280  0.00  0.00    +0.000 OA
ATOM     28  O   UNL     1      -7.777  13.317  24.671  0.00  0.00    +0.000 OA
ENDBRANCH  25  26
ENDBRANCH  19  20
ENDBRANCH  16  18
ENDBRANCH   1  15
BRANCH   3  29
ATOM     29  C   UNL     1      -2.162  11.336  18.860  0.00  0.00    +0.000 C 
ATOM     30  C   UNL     1      -2.491  11.462  17.398  0.00  0.00    +0.000 C 
ATOM     31  C   UNL     1      -2.407  10.107  18.037  0.00  0.00    +0.000 C 
ENDBRANCH   3  29
TORSDOF 5
ENDMDL
MODEL 3
REMARK VINA RESULT:      -7.5      1.849      2.102
REMARK  Name = 
REMARK  5 active torsions:
REMARK  status: ('A' for Active; 'I' for Inactive)
REMARK    1  A    between atoms: C_2  and  C_15
REMARK    2  A    between atoms: N_3  and  N_4
REMARK    3  A    between atoms: C_5  and  C_6
REMARK    4  A    between atoms: C_11  and  N_12
REMARK    5  A    between atoms: N_17  and  C_18
REMARK                            x       y       z     vdW  Elec       q    Type
REMARK                         _______ _______ _______ _____ _____    ______ ____
ROOT
ATOM      1  C   UNL     1      -0.586  11.298  21.312  0.00  0.00    +0.000 A 
ATOM      2  C   UNL     1      -0.534  11.659  20.018  0.00  0.00    +0.000 A 
ATOM      3  N   UNL     1      -0.301  10.828  18.925  0.00  0.00    +0.000 N 
ATOM      4  C   UNL     1       0.536   9.714  19.217  0.00  0.00    +0.000 A 
ATOM      5  C   UNL     1       1.377   9.192  18.229  0.00  0.00    +0.000 A 
ATOM      6  C   UNL     1       2.209   8.120  18.537  0.00  0.00    +0.000 A 
ATOM      7 CL   UNL     1       3.278   7.519  17.329  0.00  0.00    +0.000 Cl
ATOM      8  C   UNL     1       2.179   7.559  19.820  0.00  0.00    +0.000 A 
ATOM      9  F   UNL     1       2.983   6.530  20.122  0.00  0.00    +0.000 F 
ATOM     10  C   UNL     1       1.341   8.068  20.810  0.00  0.00    +0.000 A 
ATOM     11  C   UNL     1       0.545   9.172  20.513  0.00  0.00    +0.000 A 
ATOM     12  C   UNL     1      -0.305   9.838  21.541  0.00  0.00    +0.000 A 
ATOM     13  O   UNL     1      -0.738   9.179  22.478  0.00  0.00    +0.000 OA
ENDROOT
BRANCH   1  15
ATOM     14  O   UNL     1      -0.278  12.912  23.043  0.00  0.00    +0.000 OA
ATOM     15  C   UNL     1      -1.053  12.234  22.389  0.00  0.00    +0.000 C 
ATOM     16  N   UNL     1      -2.435  12.198  22.603  0.00  0.00    +0.000 N 
ATOM     17  H   UNL     1      -3.059  11.742  21.953  0.00  0.00    +0.000 HD
BRANCH  16  18
ATOM     18  N   UNL     1      -3.037  12.810  23.653  0.00  0.00    +0.000 NA
ATOM     19  C   UNL     1      -4.141  13.463  23.416  0.00  0.00    +0.000 C 
BRANCH  19  20
ATOM     20  C   UNL     1      -5.007  13.415  22.202  0.00  0.00    +0.000 A 
ATOM     21  C   UNL     1      -6.117  12.557  22.173  0.00  0.00    +0.000 A 
ATOM     22  C   UNL     1      -6.989  12.551  21.076  0.00  0.00    +0.000 A 
ATOM     23  C   UNL     1      -6.794  13.426  20.010  0.00  0.00    +0.000 A 
ATOM     24  C   UNL     1      -5.723  14.313  20.035  0.00  0.00    +0.000 A 
ATOM     25  C   UNL     1      -4.839  14.295  21.126  0.00  0.00    +0.000 A 
BRANCH  25  26
ATOM     26  N   UNL     1      -3.714  15.198  21.084  0.00  0.00    +0.000 N 
ATOM     27  O   UNL     1      -3.901  16.341  21.519  0.00  0.00    +0.000 OA
ATOM     28  O   UNL     1      -2.653  14.754  20.635  0.00  0.00    +0.000 OA
ENDBRANCH  25  26
ENDBRANCH  19  20
ENDBRANCH  16  18
ENDBRANCH   1  15
BRANCH   3  29
ATOM     29  C   UNL     1      -1.626  10.406  18.356  0.00  0.00    +0.000 C 
ATOM     30  C   UNL     1      -2.357  11.281  17.376  0.00  0.00    +0.000 C 
ATOM     31  C   UNL     1      -1.806   9.957  16.937  0.00  0.00    +0.000 C 
ENDBRANCH   3  29
TORSDOF 5
ENDMDL
MODEL 4
REMARK VINA RESULT:      -7.4      2.131      2.428
REMARK  Name = 
REMARK  5 active torsions:
REMARK  status: ('A' for Active; 'I' for Inactive)
REMARK    1  A    between atoms: C_2  and  C_15
REMARK    2  A    between atoms: N_3  and  N_4
REMARK    3  A    between atoms: C_5  and  C_6
REMARK    4  A    between atoms: C_11  and  N_12
REMARK    5  A    between atoms: N_17  and  C_18
REMARK                            x       y       z     vdW  Elec       q    Type
REMARK                         _______ _______ _______ _____ _____    ______ ____
ROOT
ATOM      1  C   UNL     1      -0.757  12.413  21.843  0.00  0.00    +0.000 A 
ATOM      2  C   UNL     1      -0.600  12.646  20.528  0.00  0.00    +0.000 A 
ATOM      3  N   UNL     1      -0.480  11.695  19.518  0.00  0.00    +0.000 N 
ATOM      4  C   UNL     1       0.140  10.484  19.938  0.00  0.00    +0.000 A 
ATOM      5  C   UNL     1       0.909   9.742  19.036  0.00  0.00    +0.000 A 
ATOM      6  C   UNL     1       1.531   8.575  19.468  0.00  0.00    +0.000 A 
ATOM      7 CL   UNL     1       2.519   7.697  18.364  0.00  0.00    +0.000 Cl
ATOM      8  C   UNL     1       1.362   8.141  20.789  0.00  0.00    +0.000 A 
ATOM      9  F   UNL     1       1.963   7.020  21.210  0.00  0.00    +0.000 F 
ATOM     10  C   UNL     1       0.593   8.870  21.694  0.00  0.00    +0.000 A 
ATOM     11  C   UNL     1       0.012  10.064  21.272  0.00  0.00    +0.000 A 
ATOM     12  C   UNL     1      -0.742  10.953  22.202  0.00  0.00    +0.000 A 
ATOM     13  O   UNL     1      -1.315  10.461  23.167  0.00  0.00    +0.000 OA
ENDROOT
BRANCH   1  15
ATOM     14  O   UNL     1      -0.274  14.349  23.153  0.00  0.00    +0.000 OA
ATOM     15  C   UNL     1      -1.089  13.506  22.819  0.00  0.00    +0.000 C 
ATOM     16  N   UNL     1      -2.384  13.416  23.341  0.00  0.00    +0.000 N 
ATOM     17  H   UNL     1      -3.075  12.801  22.938  0.00  0.00    +0.000 HD
BRANCH  16  18
ATOM     18  N   UNL     1      -2.817  14.177  24.377  0.00  0.00    +0.000 NA
ATOM     19  C   UNL     1      -4.073  14.530  24.380  0.00  0.00    +0.000 C 
BRANCH  19  20
ATOM     20  C   UNL     1      -5.191  13.993  23.551  0.00  0.00    +0.000 A 
ATOM     21  C   UNL     1      -6.038  13.007  24.081  0.00  0.00    +0.000 A 
ATOM     22  C   UNL     1      -7.141  12.543  23.351  0.00  0.00    +0.000 A 
ATOM     23  C   UNL     1      -7.442  13.081  22.103  0.00  0.00    +0.000 A 
ATOM     24  C   UNL     1      -6.639  14.087  21.575  0.00  0.00    +0.000 A 
ATOM     25  C   UNL     1      -5.521  14.528  22.301  0.00  0.00    +0.000 A 
BRANCH  25  26
ATOM     26  N   UNL     1      -4.690  15.538  21.691  0.00  0.00    +0.000 N 
ATOM     27  O   UNL     1      -5.023  16.715  21.868  0.00  0.00    +0.000 OA
ATOM     28  O   UNL     1      -3.704  15.147  21.058  0.00  0.00    +0.000 OA
ENDBRANCH  25  26
ENDBRANCH  19  20
ENDBRANCH  16  18
ENDBRANCH   1  15
BRANCH   3  29
ATOM     29  C   UNL     1      -1.838  11.459  18.922  0.00  0.00    +0.000 C 
ATOM     30  C   UNL     1      -2.056  11.556  17.438  0.00  0.00    +0.000 C 
ATOM     31  C   UNL     1      -2.187  10.233  18.133  0.00  0.00    +0.000 C 
ENDBRANCH   3  29
TORSDOF 5
ENDMDL
MODEL 5
REMARK VINA RESULT:      -7.4      4.642      9.183
REMARK  Name = 
REMARK  5 active torsions:
REMARK  status: ('A' for Active; 'I' for Inactive)
REMARK    1  A    between atoms: C_2  and  C_15
REMARK    2  A    between atoms: N_3  and  N_4
REMARK    3  A    between atoms: C_5  and  C_6
REMARK    4  A    between atoms: C_11  and  N_12
REMARK    5  A    between atoms: N_17  and  C_18
REMARK                            x       y       z     vdW  Elec       q    Type
REMARK                         _______ _______ _______ _____ _____    ______ ____
ROOT
ATOM      1  C   UNL     1       0.762  10.510  18.859  0.00  0.00    +0.000 A 
ATOM      2  C   UNL     1       0.841  10.927  20.135  0.00  0.00    +0.000 A 
ATOM      3  N   UNL     1      -0.218  11.125  21.018  0.00  0.00    +0.000 N 
ATOM      4  C   UNL     1      -1.429  11.523  20.385  0.00  0.00    +0.000 A 
ATOM      5  C   UNL     1      -2.328  12.358  21.056  0.00  0.00    +0.000 A 
ATOM      6  C   UNL     1      -3.495  12.761  20.414  0.00  0.00    +0.000 A 
ATOM      7 CL   UNL     1      -4.569  13.832  21.229  0.00  0.00    +0.000 Cl
ATOM      8  C   UNL     1      -3.771  12.309  19.118  0.00  0.00    +0.000 A 
ATOM      9  F   UNL     1      -4.891  12.700  18.495  0.00  0.00    +0.000 F 
ATOM     10  C   UNL     1      -2.884  11.473  18.442  0.00  0.00    +0.000 A 
ATOM     11  C   UNL     1      -1.693  11.111  19.069  0.00  0.00    +0.000 A 
ATOM     12  C   UNL     1      -0.648  10.302  18.380  0.00  0.00    +0.000 A 
ATOM     13  O   UNL     1      -0.982   9.514  17.503  0.00  0.00    +0.000 OA
ENDROOT
BRANCH   1  15
ATOM     14  O   UNL     1       2.665  10.953  17.488  0.00  0.00    +0.000 OA
ATOM     15  C   UNL     1       1.976  10.127  18.063  0.00  0.00    +0.000 C 
ATOM     16  N   UNL     1       2.191   8.746  17.998  0.00  0.00    +0.000 N 
ATOM     17  H   UNL     1       1.696   8.105  18.600  0.00  0.00    +0.000 HD
BRANCH  16  18
ATOM     18  N   UNL     1       3.107   8.179  17.173  0.00  0.00    +0.000 NA
ATOM     19  C   UNL     1       3.669   7.070  17.571  0.00  0.00    +0.000 C 
BRANCH  19  20
ATOM     20  C   UNL     1       3.256   6.168  18.685  0.00  0.00    +0.000 A 
ATOM     21  C   UNL     1       2.338   6.621  19.644  0.00  0.00    +0.000 A 
ATOM     22  C   UNL     1       1.876   5.768  20.654  0.00  0.00    +0.000 A 
ATOM     23  C   UNL     1       2.289   4.438  20.703  0.00  0.00    +0.000 A 
ATOM     24  C   UNL     1       3.168   3.955  19.739  0.00  0.00    +0.000 A 
ATOM     25  C   UNL     1       3.647   4.825  18.745  0.00  0.00    +0.000 A 
BRANCH  25  26
ATOM     26  N   UNL     1       4.595   4.291  17.797  0.00  0.00    +0.000 N 
ATOM     27  O   UNL     1       4.131   3.779  16.773  0.00  0.00    +0.000 OA
ATOM     28  O   UNL     1       5.793   4.406  18.077  0.00  0.00    +0.000 OA
ENDBRANCH  25  26
ENDBRANCH  19  20
ENDBRANCH  16  18
ENDBRANCH   1  15
BRANCH   3  29
ATOM     29  C   UNL     1      -0.392   9.879  21.839  0.00  0.00    +0.000 C 
ATOM     30  C   UNL     1       0.661   9.451  22.823  0.00  0.00    +0.000 C 
ATOM     31  C   UNL     1      -0.686   9.899  23.309  0.00  0.00    +0.000 C 
ENDBRANCH   3  29
TORSDOF 5
ENDMDL
MODEL 6
REMARK VINA RESULT:      -7.4      1.740      1.967
REMARK  Name = 
REMARK  5 active torsions:
REMARK  status: ('A' for Active; 'I' for Inactive)
REMARK    1  A    between atoms: C_2  and  C_15
REMARK    2  A    between atoms: N_3  and  N_4
REMARK    3  A    between atoms: C_5  and  C_6
REMARK    4  A    between atoms: C_11  and  N_12
REMARK    5  A    between atoms: N_17  and  C_18
REMARK                            x       y       z     vdW  Elec       q    Type
REMARK                         _______ _______ _______ _____ _____    ______ ____
ROOT
ATOM      1  C   UNL     1      -1.314  12.788  20.121  0.00  0.00    +0.000 A 
ATOM      2  C   UNL     1      -1.192  12.683  18.786  0.00  0.00    +0.000 A 
ATOM      3  N   UNL     1      -0.927  11.526  18.057  0.00  0.00    +0.000 N 
ATOM      4  C   UNL     1      -0.131  10.576  18.756  0.00  0.00    +0.000 A 
ATOM      5  C   UNL     1       0.744   9.742  18.052  0.00  0.00    +0.000 A 
ATOM      6  C   UNL     1       1.535   8.836  18.751  0.00  0.00    +0.000 A 
ATOM      7 CL   UNL     1       2.646   7.852  17.880  0.00  0.00    +0.000 Cl
ATOM      8  C   UNL     1       1.432   8.748  20.145  0.00  0.00    +0.000 A 
ATOM      9  F   UNL     1       2.196   7.881  20.822  0.00  0.00    +0.000 F 
ATOM     10  C   UNL     1       0.560   9.571  20.856  0.00  0.00    +0.000 A 
ATOM     11  C   UNL     1      -0.196  10.511  20.158  0.00  0.00    +0.000 A 
ATOM     12  C   UNL     1      -1.078  11.494  20.850  0.00  0.00    +0.000 A 
ATOM     13  O   UNL     1      -1.570  11.198  21.932  0.00  0.00    +0.000 OA
ENDROOT
BRANCH   1  15
ATOM     14  O   UNL     1      -1.138  14.655  21.596  0.00  0.00    +0.000 OA
ATOM     15  C   UNL     1      -1.810  14.039  20.787  0.00  0.00    +0.000 C 
ATOM     16  N   UNL     1      -3.121  14.378  20.436  0.00  0.00    +0.000 N 
ATOM     17  H   UNL     1      -3.592  13.937  19.660  0.00  0.00    +0.000 HD
BRANCH  16  18
ATOM     18  N   UNL     1      -3.827  15.349  21.068  0.00  0.00    +0.000 NA
ATOM     19  C   UNL     1      -5.128  15.292  20.993  0.00  0.00    +0.000 C 
BRANCH  19  20
ATOM     20  C   UNL     1      -5.984  14.156  20.543  0.00  0.00    +0.000 A 
ATOM     21  C   UNL     1      -6.564  14.185  19.265  0.00  0.00    +0.000 A 
ATOM     22  C   UNL     1      -7.307  13.096  18.791  0.00  0.00    +0.000 A 
ATOM     23  C   UNL     1      -7.449  11.945  19.561  0.00  0.00    +0.000 A 
ATOM     24  C   UNL     1      -6.849  11.877  20.814  0.00  0.00    +0.000 A 
ATOM     25  C   UNL     1      -6.129  12.983  21.294  0.00  0.00    +0.000 A 
BRANCH  25  26
ATOM     26  N   UNL     1      -5.566  12.885  22.619  0.00  0.00    +0.000 N 
ATOM     27  O   UNL     1      -4.428  12.410  22.708  0.00  0.00    +0.000 OA
ATOM     28  O   UNL     1      -6.259  13.299  23.555  0.00  0.00    +0.000 OA
ENDBRANCH  25  26
ENDBRANCH  19  20
ENDBRANCH  16  18
ENDBRANCH   1  15
BRANCH   3  29
ATOM     29  C   UNL     1      -2.232  10.943  17.598  0.00  0.00    +0.000 C 
ATOM     30  C   UNL     1      -2.669  11.063  16.164  0.00  0.00    +0.000 C 
ATOM     31  C   UNL     1      -2.328   9.720  16.737  0.00  0.00    +0.000 C 
ENDBRANCH   3  29
TORSDOF 5
ENDMDL
MODEL 7
REMARK VINA RESULT:      -7.4      2.660      3.752
REMARK  Name = 
REMARK  5 active torsions:
REMARK  status: ('A' for Active; 'I' for Inactive)
REMARK    1  A    between atoms: C_2  and  C_15
REMARK    2  A    between atoms: N_3  and  N_4
REMARK    3  A    between atoms: C_5  and  C_6
REMARK    4  A    between atoms: C_11  and  N_12
REMARK    5  A    between atoms: N_17  and  C_18
REMARK                            x       y       z     vdW  Elec       q    Type
REMARK                         _______ _______ _______ _____ _____    ______ ____
ROOT
ATOM      1  C   UNL     1      -2.420  12.433  22.146  0.00  0.00    +0.000 A 
ATOM      2  C   UNL     1      -1.118  12.474  22.478  0.00  0.00    +0.000 A 
ATOM      3  N   UNL     1      -0.030  12.445  21.609  0.00  0.00    +0.000 N 
ATOM      4  C   UNL     1      -0.268  11.708  20.415  0.00  0.00    +0.000 A 
ATOM      5  C   UNL     1       0.785  11.033  19.787  0.00  0.00    +0.000 A 
ATOM      6  C   UNL     1       0.532  10.294  18.635  0.00  0.00    +0.000 A 
ATOM      7 CL   UNL     1       1.823   9.424  17.902  0.00  0.00    +0.000 Cl
ATOM      8  C   UNL     1      -0.762  10.254  18.101  0.00  0.00    +0.000 A 
ATOM      9  F   UNL     1      -1.010   9.539  16.996  0.00  0.00    +0.000 F 
ATOM     10  C   UNL     1      -1.817  10.927  18.716  0.00  0.00    +0.000 A 
ATOM     11  C   UNL     1      -1.570  11.625  19.896  0.00  0.00    +0.000 A 
ATOM     12  C   UNL     1      -2.659  12.289  20.668  0.00  0.00    +0.000 A 
ATOM     13  O   UNL     1      -3.652  12.694  20.075  0.00  0.00    +0.000 OA
ENDROOT
BRANCH   1  15
ATOM     14  O   UNL     1      -3.745  11.916  24.062  0.00  0.00    +0.000 OA
ATOM     15  C   UNL     1      -3.512  12.684  23.145  0.00  0.00    +0.000 C 
ATOM     16  N   UNL     1      -4.261  13.836  22.878  0.00  0.00    +0.000 N 
ATOM     17  H   UNL     1      -3.954  14.523  22.205  0.00  0.00    +0.000 HD
BRANCH  16  18
ATOM     18  N   UNL     1      -5.410  14.138  23.534  0.00  0.00    +0.000 NA
ATOM     19  C   UNL     1      -6.527  14.038  22.867  0.00  0.00    +0.000 C 
BRANCH  19  20
ATOM     20  C   UNL     1      -6.769  13.371  21.555  0.00  0.00    +0.000 A 
ATOM     21  C   UNL     1      -7.157  12.022  21.521  0.00  0.00    +0.000 A 
ATOM     22  C   UNL     1      -7.465  11.396  20.307  0.00  0.00    +0.000 A 
ATOM     23  C   UNL     1      -7.432  12.110  19.111  0.00  0.00    +0.000 A 
ATOM     24  C   UNL     1      -7.088  13.458  19.124  0.00  0.00    +0.000 A 
ATOM     25  C   UNL     1      -6.755  14.072  20.343  0.00  0.00    +0.000 A 
BRANCH  25  26
ATOM     26  N   UNL     1      -6.357  15.458  20.300  0.00  0.00    +0.000 N 
ATOM     27  O   UNL     1      -5.144  15.692  20.357  0.00  0.00    +0.000 OA
ATOM     28  O   UNL     1      -7.257  16.298  20.193  0.00  0.00    +0.000 OA
ENDBRANCH  25  26
ENDBRANCH  19  20
ENDBRANCH  16  18
ENDBRANCH   1  15
BRANCH   3  29
ATOM     29  C   UNL     1       0.393  13.858  21.327  0.00  0.00    +0.000 C 
ATOM     30  C   UNL     1       1.841  14.257  21.392  0.00  0.00    +0.000 C 
ATOM     31  C   UNL     1       1.116  14.266  20.079  0.00  0.00    +0.000 C 
ENDBRANCH   3  29
TORSDOF 5
ENDMDL
MODEL 8
REMARK VINA RESULT:      -7.3      3.067      4.875
REMARK  Name = 
REMARK  5 active torsions:
REMARK  status: ('A' for Active; 'I' for Inactive)
REMARK    1  A    between atoms: C_2  and  C_15
REMARK    2  A    between atoms: N_3  and  N_4
REMARK    3  A    between atoms: C_5  and  C_6
REMARK    4  A    between atoms: C_11  and  N_12
REMARK    5  A    between atoms: N_17  and  C_18
REMARK                            x       y       z     vdW  Elec       q    Type
REMARK                         _______ _______ _______ _____ _____    ______ ____
ROOT
ATOM      1  C   UNL     1      -0.711  11.122  21.487  0.00  0.00    +0.000 A 
ATOM      2  C   UNL     1      -0.659  11.567  20.219  0.00  0.00    +0.000 A 
ATOM      3  N   UNL     1      -0.389  10.815  19.078  0.00  0.00    +0.000 N 
ATOM      4  C   UNL     1       0.483   9.713  19.308  0.00  0.00    +0.000 A 
ATOM      5  C   UNL     1       1.349   9.283  18.297  0.00  0.00    +0.000 A 
ATOM      6  C   UNL     1       2.214   8.222  18.546  0.00  0.00    +0.000 A 
ATOM      7 CL   UNL     1       3.314   7.736  17.314  0.00  0.00    +0.000 Cl
ATOM      8  C   UNL     1       2.192   7.579  19.790  0.00  0.00    +0.000 A 
ATOM      9  F   UNL     1       3.027   6.560  20.034  0.00  0.00    +0.000 F 
ATOM     10  C   UNL     1       1.329   7.996  20.801  0.00  0.00    +0.000 A 
ATOM     11  C   UNL     1       0.498   9.090  20.567  0.00  0.00    +0.000 A 
ATOM     12  C   UNL     1      -0.382   9.660  21.625  0.00  0.00    +0.000 A 
ATOM     13  O   UNL     1      -0.802   8.928  22.514  0.00  0.00    +0.000 OA
ENDROOT
BRANCH   1  15
ATOM     14  O   UNL     1      -2.176  11.643  23.297  0.00  0.00    +0.000 OA
ATOM     15  C   UNL     1      -1.219  11.971  22.616  0.00  0.00    +0.000 C 
ATOM     16  N   UNL     1      -0.533  13.182  22.759  0.00  0.00    +0.000 N 
ATOM     17  H   UNL     1       0.339  13.356  22.281  0.00  0.00    +0.000 HD
BRANCH  16  18
ATOM     18  N   UNL     1      -0.954  14.176  23.580  0.00  0.00    +0.000 NA
ATOM     19  C   UNL     1      -0.754  15.405  23.189  0.00  0.00    +0.000 C 
BRANCH  19  20
ATOM     20  C   UNL     1      -0.374  15.897  21.832  0.00  0.00    +0.000 A 
ATOM     21  C   UNL     1      -1.367  16.373  20.962  0.00  0.00    +0.000 A 
ATOM     22  C   UNL     1      -1.027  16.912  19.714  0.00  0.00    +0.000 A 
ATOM     23  C   UNL     1       0.306  17.025  19.329  0.00  0.00    +0.000 A 
ATOM     24  C   UNL     1       1.310  16.595  20.192  0.00  0.00    +0.000 A 
ATOM     25  C   UNL     1       0.960  16.032  21.430  0.00  0.00    +0.000 A 
BRANCH  25  26
ATOM     26  N   UNL     1       2.033  15.556  22.270  0.00  0.00    +0.000 N 
ATOM     27  O   UNL     1       2.463  16.341  23.123  0.00  0.00    +0.000 OA
ATOM     28  O   UNL     1       2.422  14.399  22.081  0.00  0.00    +0.000 OA
ENDBRANCH  25  26
ENDBRANCH  19  20
ENDBRANCH  16  18
ENDBRANCH   1  15
BRANCH   3  29
ATOM     29  C   UNL     1      -1.693  10.387  18.469  0.00  0.00    +0.000 C 
ATOM     30  C   UNL     1      -2.408  11.268  17.482  0.00  0.00    +0.000 C 
ATOM     31  C   UNL     1      -1.831   9.956  17.040  0.00  0.00    +0.000 C 
ENDBRANCH   3  29
TORSDOF 5
ENDMDL
MODEL 9
REMARK VINA RESULT:      -7.2      1.657      2.029
REMARK  Name = 
REMARK  5 active torsions:
REMARK  status: ('A' for Active; 'I' for Inactive)
REMARK    1  A    between atoms: C_2  and  C_15
REMARK    2  A    between atoms: N_3  and  N_4
REMARK    3  A    between atoms: C_5  and  C_6
REMARK    4  A    between atoms: C_11  and  N_12
REMARK    5  A    between atoms: N_17  and  C_18
REMARK                            x       y       z     vdW  Elec       q    Type
REMARK                         _______ _______ _______ _____ _____    ______ ____
ROOT
ATOM      1  C   UNL     1      -0.813  12.401  21.729  0.00  0.00    +0.000 A 
ATOM      2  C   UNL     1      -0.748  12.696  20.419  0.00  0.00    +0.000 A 
ATOM      3  N   UNL     1      -0.627  11.795  19.363  0.00  0.00    +0.000 N 
ATOM      4  C   UNL     1       0.090  10.611  19.695  0.00  0.00    +0.000 A 
ATOM      5  C   UNL     1       0.850   9.957  18.721  0.00  0.00    +0.000 A 
ATOM      6  C   UNL     1       1.567   8.816  19.067  0.00  0.00    +0.000 A 
ATOM      7 CL   UNL     1       2.542   8.049  17.874  0.00  0.00    +0.000 Cl
ATOM      8  C   UNL     1       1.503   8.320  20.375  0.00  0.00    +0.000 A 
ATOM      9  F   UNL     1       2.196   7.225  20.713  0.00  0.00    +0.000 F 
ATOM     10  C   UNL     1       0.744   8.962  21.352  0.00  0.00    +0.000 A 
ATOM     11  C   UNL     1       0.066  10.132  21.015  0.00  0.00    +0.000 A 
ATOM     12  C   UNL     1      -0.687  10.932  22.023  0.00  0.00    +0.000 A 
ATOM     13  O   UNL     1      -1.171  10.367  22.996  0.00  0.00    +0.000 OA
ENDROOT
BRANCH   1  15
ATOM     14  O   UNL     1      -0.348  14.259  23.153  0.00  0.00    +0.000 OA
ATOM     15  C   UNL     1      -1.156  13.430  22.768  0.00  0.00    +0.000 C 
ATOM     16  N   UNL     1      -2.450  13.299  23.281  0.00  0.00    +0.000 N 
ATOM     17  H   UNL     1      -3.136  12.704  22.841  0.00  0.00    +0.000 HD
BRANCH  16  18
ATOM     18  N   UNL     1      -2.891  13.993  24.361  0.00  0.00    +0.000 NA
ATOM     19  C   UNL     1      -3.722  14.975  24.146  0.00  0.00    +0.000 C 
BRANCH  19  20
ATOM     20  C   UNL     1      -4.490  15.288  22.905  0.00  0.00    +0.000 A 
ATOM     21  C   UNL     1      -4.043  16.306  22.048  0.00  0.00    +0.000 A 
ATOM     22  C   UNL     1      -4.702  16.565  20.839  0.00  0.00    +0.000 A 
ATOM     23  C   UNL     1      -5.789  15.791  20.444  0.00  0.00    +0.000 A 
ATOM     24  C   UNL     1      -6.226  14.750  21.258  0.00  0.00    +0.000 A 
ATOM     25  C   UNL     1      -5.576  14.514  22.481  0.00  0.00    +0.000 A 
BRANCH  25  26
ATOM     26  N   UNL     1      -6.095  13.456  23.314  0.00  0.00    +0.000 N 
ATOM     27  O   UNL     1      -7.017  13.754  24.083  0.00  0.00    +0.000 OA
ATOM     28  O   UNL     1      -5.591  12.336  23.179  0.00  0.00    +0.000 OA
ENDBRANCH  25  26
ENDBRANCH  19  20
ENDBRANCH  16  18
ENDBRANCH   1  15
BRANCH   3  29
ATOM     29  C   UNL     1      -2.001  11.495  18.834  0.00  0.00    +0.000 C 
ATOM     30  C   UNL     1      -2.283  11.531  17.358  0.00  0.00    +0.000 C 
ATOM     31  C   UNL     1      -2.342  10.231  18.104  0.00  0.00    +0.000 C 
ENDBRANCH   3  29
TORSDOF 5
ENDMDL
