MODEL 1
REMARK VINA RESULT:      -7.7      0.000      0.000
REMARK  Name = 
REMARK  5 active torsions:
REMARK  status: ('A' for Active; 'I' for Inactive)
REMARK    1  A    between atoms: C_1  and  C_2
REMARK    2  A    between atoms: C_2  and  N_3
REMARK    3  A    between atoms: C_2  and  C_18
REMARK    4  A    between atoms: C_4  and  C_6
REMARK    5  A    between atoms: C_16  and  O_17
REMARK                            x       y       z     vdW  Elec       q    Type
REMARK                         _______ _______ _______ _____ _____    ______ ____
ROOT
ATOM      1  N   UNL     1       2.357   6.980  18.671  0.00  0.00    +0.000 N 
ATOM      2  C   UNL     1       2.096   8.287  18.324  0.00  0.00    +0.000 C 
ATOM      3  O   UNL     1       2.477   8.790  17.271  0.00  0.00    +0.000 OA
ATOM      4  H   UNL     1       2.038   6.628  19.568  0.00  0.00    +0.000 HD
ENDROOT
BRANCH   2   5
ATOM      5  C   UNL     1       1.274   9.095  19.243  0.00  0.00    +0.000 A 
ATOM      6  C   UNL     1       0.553  10.157  18.742  0.00  0.00    +0.000 A 
ATOM      7  N   UNL     1      -0.278  10.927  19.484  0.00  0.00    +0.000 NA
ATOM      8  C   UNL     1      -0.365  10.632  20.802  0.00  0.00    +0.000 A 
ATOM      9  N   UNL     1      -1.260  11.419  21.604  0.00  0.00    +0.000 N 
ATOM     10  C   UNL     1      -2.119  12.401  21.144  0.00  0.00    +0.000 A 
ATOM     11  C   UNL     1      -2.783  12.904  22.235  0.00  0.00    +0.000 A 
ATOM     12  C   UNL     1      -2.273  12.178  23.322  0.00  0.00    +0.000 A 
ATOM     13  N   UNL     1      -1.367  11.268  22.956  0.00  0.00    +0.000 NA
ATOM     14  N   UNL     1       0.328   9.631  21.396  0.00  0.00    +0.000 NA
ATOM     15  C   UNL     1       1.108   8.894  20.592  0.00  0.00    +0.000 A 
BRANCH  15  16
ATOM     16  O   UNL     1       1.732   7.890  21.265  0.00  0.00    +0.000 OA
ATOM     17  H   UNL     1       2.585   7.862  20.786  0.00  0.00    +0.000 HD
ENDBRANCH  15  16
ENDBRANCH   2   5
BRANCH   1  19
ATOM     18  C   UNL     1       2.442   4.661  17.827  0.00  0.00    +0.000 C 
ATOM     19  C   UNL     1       3.031   6.076  17.754  0.00  0.00    +0.000 C 
BRANCH  19  20
ATOM     20  C   UNL     1       4.528   6.059  17.998  0.00  0.00    +0.000 A 
ATOM     21  C   UNL     1       5.040   5.331  19.088  0.00  0.00    +0.000 A 
ATOM     22  C   UNL     1       6.404   5.353  19.383  0.00  0.00    +0.000 A 
ATOM     23  C   UNL     1       7.265   6.094  18.586  0.00  0.00    +0.000 A 
ATOM     24  F   UNL     1       8.570   6.136  18.884  0.00  0.00    +0.000 F 
ATOM     25  C   UNL     1       6.792   6.800  17.486  0.00  0.00    +0.000 A 
ATOM     26  C   UNL     1       5.425   6.779  17.190  0.00  0.00    +0.000 A 
ENDBRANCH  19  20
ENDBRANCH   1  19
TORSDOF 4
ENDMDL
MODEL 2
REMARK VINA RESULT:      -7.5      1.058      1.328
REMARK  Name = 
REMARK  5 active torsions:
REMARK  status: ('A' for Active; 'I' for Inactive)
REMARK    1  A    between atoms: C_1  and  C_2
REMARK    2  A    between atoms: C_2  and  N_3
REMARK    3  A    between atoms: C_2  and  C_18
REMARK    4  A    between atoms: C_4  and  C_6
REMARK    5  A    between atoms: C_16  and  O_17
REMARK                            x       y       z     vdW  Elec       q    Type
REMARK                         _______ _______ _______ _____ _____    ______ ____
ROOT
ATOM      1  N   UNL     1       2.225   6.467  18.629  0.00  0.00    +0.000 N 
ATOM      2  C   UNL     1       2.253   7.789  18.247  0.00  0.00    +0.000 C 
ATOM      3  O   UNL     1       2.738   8.170  17.186  0.00  0.00    +0.000 OA
ATOM      4  H   UNL     1       1.833   6.216  19.532  0.00  0.00    +0.000 HD
ENDROOT
BRANCH   2   5
ATOM      5  C   UNL     1       1.621   8.780  19.139  0.00  0.00    +0.000 A 
ATOM      6  C   UNL     1       1.158   9.964  18.606  0.00  0.00    +0.000 A 
ATOM      7  N   UNL     1       0.510  10.915  19.320  0.00  0.00    +0.000 NA
ATOM      8  C   UNL     1       0.348  10.676  20.643  0.00  0.00    +0.000 A 
ATOM      9  N   UNL     1      -0.359  11.660  21.416  0.00  0.00    +0.000 N 
ATOM     10  C   UNL     1      -0.975  12.796  20.923  0.00  0.00    +0.000 A 
ATOM     11  C   UNL     1      -1.522  13.458  21.995  0.00  0.00    +0.000 A 
ATOM     12  C   UNL     1      -1.195  12.662  23.103  0.00  0.00    +0.000 A 
ATOM     13  N   UNL     1      -0.510  11.566  22.769  0.00  0.00    +0.000 NA
ATOM     14  N   UNL     1       0.796   9.560  21.266  0.00  0.00    +0.000 NA
ATOM     15  C   UNL     1       1.402   8.651  20.488  0.00  0.00    +0.000 A 
BRANCH  15  16
ATOM     16  O   UNL     1       1.781   7.549  21.190  0.00  0.00    +0.000 OA
ATOM     17  H   UNL     1       2.097   6.978  20.461  0.00  0.00    +0.000 HD
ENDBRANCH  15  16
ENDBRANCH   2   5
BRANCH   1  19
ATOM     18  C   UNL     1       1.952   4.095  17.999  0.00  0.00    +0.000 C 
ATOM     19  C   UNL     1       2.690   5.415  17.742  0.00  0.00    +0.000 C 
BRANCH  19  20
ATOM     20  C   UNL     1       4.193   5.231  17.847  0.00  0.00    +0.000 A 
ATOM     21  C   UNL     1       4.920   4.834  16.710  0.00  0.00    +0.000 A 
ATOM     22  C   UNL     1       6.291   4.586  16.790  0.00  0.00    +0.000 A 
ATOM     23  C   UNL     1       6.945   4.744  18.004  0.00  0.00    +0.000 A 
ATOM     24  F   UNL     1       8.255   4.481  18.088  0.00  0.00    +0.000 F 
ATOM     25  C   UNL     1       6.258   5.163  19.138  0.00  0.00    +0.000 A 
ATOM     26  C   UNL     1       4.884   5.410  19.058  0.00  0.00    +0.000 A 
ENDBRANCH  19  20
ENDBRANCH   1  19
TORSDOF 4
ENDMDL
MODEL 3
REMARK VINA RESULT:      -7.5      3.135      4.213
REMARK  Name = 
REMARK  5 active torsions:
REMARK  status: ('A' for Active; 'I' for Inactive)
REMARK    1  A    between atoms: C_1  and  C_2
REMARK    2  A    between atoms: C_2  and  N_3
REMARK    3  A    between atoms: C_2  and  C_18
REMARK    4  A    between atoms: C_4  and  C_6
REMARK    5  A    between atoms: C_16  and  O_17
REMARK                            x       y       z     vdW  Elec       q    Type
REMARK                         _______ _______ _______ _____ _____    ______ ____
ROOT
ATOM      1  N   UNL     1       5.273   5.592  17.431  0.00  0.00    +0.000 N 
ATOM      2  C   UNL     1       4.038   5.301  17.967  0.00  0.00    +0.000 C 
ATOM      3  O   UNL     1       3.611   4.156  18.080  0.00  0.00    +0.000 OA
ATOM      4  H   UNL     1       5.560   6.562  17.338  0.00  0.00    +0.000 HD
ENDROOT
BRANCH   2   5
ATOM      5  C   UNL     1       3.222   6.420  18.473  0.00  0.00    +0.000 A 
ATOM      6  C   UNL     1       3.013   7.517  17.665  0.00  0.00    +0.000 A 
ATOM      7  N   UNL     1       2.234   8.572  18.005  0.00  0.00    +0.000 NA
ATOM      8  C   UNL     1       1.662   8.534  19.231  0.00  0.00    +0.000 A 
ATOM      9  N   UNL     1       0.811   9.630  19.604  0.00  0.00    +0.000 N 
ATOM     10  C   UNL     1       0.441  10.688  18.793  0.00  0.00    +0.000 A 
ATOM     11  C   UNL     1      -0.368  11.508  19.540  0.00  0.00    +0.000 A 
ATOM     12  C   UNL     1      -0.442  10.881  20.793  0.00  0.00    +0.000 A 
ATOM     13  N   UNL     1       0.248   9.741  20.842  0.00  0.00    +0.000 NA
ATOM     14  N   UNL     1       1.833   7.518  20.111  0.00  0.00    +0.000 NA
ATOM     15  C   UNL     1       2.595   6.496  19.692  0.00  0.00    +0.000 A 
BRANCH  15  16
ATOM     16  O   UNL     1       2.677   5.506  20.621  0.00  0.00    +0.000 OA
ATOM     17  H   UNL     1       2.159   4.805  20.177  0.00  0.00    +0.000 HD
ENDBRANCH  15  16
ENDBRANCH   2   5
BRANCH   1  19
ATOM     18  C   UNL     1       7.530   4.662  17.798  0.00  0.00    +0.000 C 
ATOM     19  C   UNL     1       6.197   4.539  17.048  0.00  0.00    +0.000 C 
BRANCH  19  20
ATOM     20  C   UNL     1       6.415   4.516  15.546  0.00  0.00    +0.000 A 
ATOM     21  C   UNL     1       5.571   3.730  14.740  0.00  0.00    +0.000 A 
ATOM     22  C   UNL     1       5.788   3.631  13.365  0.00  0.00    +0.000 A 
ATOM     23  C   UNL     1       6.842   4.323  12.787  0.00  0.00    +0.000 A 
ATOM     24  F   UNL     1       7.067   4.208  11.472  0.00  0.00    +0.000 F 
ATOM     25  C   UNL     1       7.675   5.131  13.554  0.00  0.00    +0.000 A 
ATOM     26  C   UNL     1       7.458   5.230  14.932  0.00  0.00    +0.000 A 
ENDBRANCH  19  20
ENDBRANCH   1  19
TORSDOF 4
ENDMDL
MODEL 4
REMARK VINA RESULT:      -7.5      6.469      7.912
REMARK  Name = 
REMARK  5 active torsions:
REMARK  status: ('A' for Active; 'I' for Inactive)
REMARK    1  A    between atoms: C_1  and  C_2
REMARK    2  A    between atoms: C_2  and  N_3
REMARK    3  A    between atoms: C_2  and  C_18
REMARK    4  A    between atoms: C_4  and  C_6
REMARK    5  A    between atoms: C_16  and  O_17
REMARK                            x       y       z     vdW  Elec       q    Type
REMARK                         _______ _______ _______ _____ _____    ______ ____
ROOT
ATOM      1  N   UNL     1       5.220   4.748  18.336  0.00  0.00    +0.000 N 
ATOM      2  C   UNL     1       6.410   4.959  17.677  0.00  0.00    +0.000 C 
ATOM      3  O   UNL     1       6.880   4.160  16.872  0.00  0.00    +0.000 OA
ATOM      4  H   UNL     1       4.895   5.434  19.011  0.00  0.00    +0.000 HD
ENDROOT
BRANCH   2   5
ATOM      5  C   UNL     1       7.118   6.230  17.917  0.00  0.00    +0.000 A 
ATOM      6  C   UNL     1       6.860   7.308  17.098  0.00  0.00    +0.000 A 
ATOM      7  N   UNL     1       7.407   8.535  17.265  0.00  0.00    +0.000 NA
ATOM      8  C   UNL     1       8.282   8.676  18.288  0.00  0.00    +0.000 A 
ATOM      9  N   UNL     1       8.857   9.976  18.500  0.00  0.00    +0.000 N 
ATOM     10  C   UNL     1       8.535  11.132  17.812  0.00  0.00    +0.000 A 
ATOM     11  C   UNL     1       9.318  12.139  18.321  0.00  0.00    +0.000 A 
ATOM     12  C   UNL     1      10.089  11.515  19.314  0.00  0.00    +0.000 A 
ATOM     13  N   UNL     1       9.811  10.217  19.446  0.00  0.00    +0.000 NA
ATOM     14  N   UNL     1       8.628   7.670  19.127  0.00  0.00    +0.000 NA
ATOM     15  C   UNL     1       8.022   6.491  18.917  0.00  0.00    +0.000 A 
BRANCH  15  16
ATOM     16  O   UNL     1       8.398   5.554  19.828  0.00  0.00    +0.000 OA
ATOM     17  H   UNL     1       9.364   5.537  19.673  0.00  0.00    +0.000 HD
ENDBRANCH  15  16
ENDBRANCH   2   5
BRANCH   1  19
ATOM     18  C   UNL     1       3.704   3.726  16.676  0.00  0.00    +0.000 C 
ATOM     19  C   UNL     1       4.388   3.594  18.042  0.00  0.00    +0.000 C 
BRANCH  19  20
ATOM     20  C   UNL     1       3.371   3.354  19.143  0.00  0.00    +0.000 A 
ATOM     21  C   UNL     1       3.258   4.286  20.191  0.00  0.00    +0.000 A 
ATOM     22  C   UNL     1       2.384   4.060  21.255  0.00  0.00    +0.000 A 
ATOM     23  C   UNL     1       1.611   2.908  21.274  0.00  0.00    +0.000 A 
ATOM     24  F   UNL     1       0.792   2.678  22.307  0.00  0.00    +0.000 F 
ATOM     25  C   UNL     1       1.681   1.983  20.237  0.00  0.00    +0.000 A 
ATOM     26  C   UNL     1       2.557   2.208  19.171  0.00  0.00    +0.000 A 
ENDBRANCH  19  20
ENDBRANCH   1  19
TORSDOF 4
ENDMDL
MODEL 5
REMARK VINA RESULT:      -7.4      6.601      7.945
REMARK  Name = 
REMARK  5 active torsions:
REMARK  status: ('A' for Active; 'I' for Inactive)
REMARK    1  A    between atoms: C_1  and  C_2
REMARK    2  A    between atoms: C_2  and  N_3
REMARK    3  A    between atoms: C_2  and  C_18
REMARK    4  A    between atoms: C_4  and  C_6
REMARK    5  A    between atoms: C_16  and  O_17
REMARK                            x       y       z     vdW  Elec       q    Type
REMARK                         _______ _______ _______ _____ _____    ______ ____
ROOT
ATOM      1  N   UNL     1       5.600   4.964  17.140  0.00  0.00    +0.000 N 
ATOM      2  C   UNL     1       6.925   5.005  17.512  0.00  0.00    +0.000 C 
ATOM      3  O   UNL     1       7.645   4.012  17.533  0.00  0.00    +0.000 OA
ATOM      4  H   UNL     1       5.046   5.815  17.169  0.00  0.00    +0.000 HD
ENDROOT
BRANCH   2   5
ATOM      5  C   UNL     1       7.508   6.316  17.851  0.00  0.00    +0.000 A 
ATOM      6  C   UNL     1       7.342   7.370  16.978  0.00  0.00    +0.000 A 
ATOM      7  N   UNL     1       7.782   8.628  17.216  0.00  0.00    +0.000 NA
ATOM      8  C   UNL     1       8.451   8.828  18.376  0.00  0.00    +0.000 A 
ATOM      9  N   UNL     1       8.906  10.162  18.662  0.00  0.00    +0.000 N 
ATOM     10  C   UNL     1       8.649  11.291  17.905  0.00  0.00    +0.000 A 
ATOM     11  C   UNL     1       9.272  12.345  18.526  0.00  0.00    +0.000 A 
ATOM     12  C   UNL     1       9.886  11.776  19.652  0.00  0.00    +0.000 A 
ATOM     13  N   UNL     1       9.660  10.465  19.758  0.00  0.00    +0.000 NA
ATOM     14  N   UNL     1       8.695   7.852  19.282  0.00  0.00    +0.000 NA
ATOM     15  C   UNL     1       8.202   6.638  18.991  0.00  0.00    +0.000 A 
BRANCH  15  16
ATOM     16  O   UNL     1       8.459   5.733  19.973  0.00  0.00    +0.000 OA
ATOM     17  H   UNL     1       8.542   6.330  20.743  0.00  0.00    +0.000 HD
ENDBRANCH  15  16
ENDBRANCH   2   5
BRANCH   1  19
ATOM     18  C   UNL     1       4.806   3.775  15.127  0.00  0.00    +0.000 C 
ATOM     19  C   UNL     1       4.991   3.739  16.649  0.00  0.00    +0.000 C 
BRANCH  19  20
ATOM     20  C   UNL     1       3.677   3.458  17.354  0.00  0.00    +0.000 A 
ATOM     21  C   UNL     1       2.803   4.524  17.634  0.00  0.00    +0.000 A 
ATOM     22  C   UNL     1       1.621   4.310  18.344  0.00  0.00    +0.000 A 
ATOM     23  C   UNL     1       1.300   3.029  18.769  0.00  0.00    +0.000 A 
ATOM     24  F   UNL     1       0.179   2.827  19.473  0.00  0.00    +0.000 F 
ATOM     25  C   UNL     1       2.130   1.950  18.482  0.00  0.00    +0.000 A 
ATOM     26  C   UNL     1       3.315   2.164  17.771  0.00  0.00    +0.000 A 
ENDBRANCH  19  20
ENDBRANCH   1  19
TORSDOF 4
ENDMDL
MODEL 6
REMARK VINA RESULT:      -7.4      1.076      1.108
REMARK  Name = 
REMARK  5 active torsions:
REMARK  status: ('A' for Active; 'I' for Inactive)
REMARK    1  A    between atoms: C_1  and  C_2
REMARK    2  A    between atoms: C_2  and  N_3
REMARK    3  A    between atoms: C_2  and  C_18
REMARK    4  A    between atoms: C_4  and  C_6
REMARK    5  A    between atoms: C_16  and  O_17
REMARK                            x       y       z     vdW  Elec       q    Type
REMARK                         _______ _______ _______ _____ _____    ______ ____
ROOT
ATOM      1  N   UNL     1       2.185   6.258  18.627  0.00  0.00    +0.000 N 
ATOM      2  C   UNL     1       2.349   7.591  18.319  0.00  0.00    +0.000 C 
ATOM      3  O   UNL     1       2.971   7.979  17.335  0.00  0.00    +0.000 OA
ATOM      4  H   UNL     1       1.682   5.999  19.471  0.00  0.00    +0.000 HD
ENDROOT
BRANCH   2   5
ATOM      5  C   UNL     1       1.697   8.586  19.190  0.00  0.00    +0.000 A 
ATOM      6  C   UNL     1       1.230   9.759  18.637  0.00  0.00    +0.000 A 
ATOM      7  N   UNL     1       0.565  10.713  19.331  0.00  0.00    +0.000 NA
ATOM      8  C   UNL     1       0.389  10.490  20.654  0.00  0.00    +0.000 A 
ATOM      9  N   UNL     1      -0.336  11.477  21.406  0.00  0.00    +0.000 N 
ATOM     10  C   UNL     1      -0.956  12.601  20.892  0.00  0.00    +0.000 A 
ATOM     11  C   UNL     1      -1.522  13.271  21.948  0.00  0.00    +0.000 A 
ATOM     12  C   UNL     1      -1.201  12.492  23.070  0.00  0.00    +0.000 A 
ATOM     13  N   UNL     1      -0.502  11.399  22.759  0.00  0.00    +0.000 NA
ATOM     14  N   UNL     1       0.840   9.386  21.298  0.00  0.00    +0.000 NA
ATOM     15  C   UNL     1       1.463   8.472  20.538  0.00  0.00    +0.000 A 
BRANCH  15  16
ATOM     16  O   UNL     1       1.844   7.384  21.259  0.00  0.00    +0.000 OA
ATOM     17  H   UNL     1       2.639   7.738  21.704  0.00  0.00    +0.000 HD
ENDBRANCH  15  16
ENDBRANCH   2   5
BRANCH   1  19
ATOM     18  C   UNL     1       1.920   3.894  17.968  0.00  0.00    +0.000 C 
ATOM     19  C   UNL     1       2.667   5.214  17.740  0.00  0.00    +0.000 C 
BRANCH  19  20
ATOM     20  C   UNL     1       4.167   5.025  17.876  0.00  0.00    +0.000 A 
ATOM     21  C   UNL     1       4.781   5.265  19.118  0.00  0.00    +0.000 A 
ATOM     22  C   UNL     1       6.167   5.170  19.259  0.00  0.00    +0.000 A 
ATOM     23  C   UNL     1       6.944   4.825  18.163  0.00  0.00    +0.000 A 
ATOM     24  F   UNL     1       8.275   4.759  18.291  0.00  0.00    +0.000 F 
ATOM     25  C   UNL     1       6.362   4.553  16.929  0.00  0.00    +0.000 A 
ATOM     26  C   UNL     1       4.974   4.649  16.788  0.00  0.00    +0.000 A 
ENDBRANCH  19  20
ENDBRANCH   1  19
TORSDOF 4
ENDMDL
MODEL 7
REMARK VINA RESULT:      -7.4      3.051      4.159
REMARK  Name = 
REMARK  5 active torsions:
REMARK  status: ('A' for Active; 'I' for Inactive)
REMARK    1  A    between atoms: C_1  and  C_2
REMARK    2  A    between atoms: C_2  and  N_3
REMARK    3  A    between atoms: C_2  and  C_18
REMARK    4  A    between atoms: C_4  and  C_6
REMARK    5  A    between atoms: C_16  and  O_17
REMARK                            x       y       z     vdW  Elec       q    Type
REMARK                         _______ _______ _______ _____ _____    ______ ____
ROOT
ATOM      1  N   UNL     1       5.269   5.673  17.613  0.00  0.00    +0.000 N 
ATOM      2  C   UNL     1       4.041   5.400  18.173  0.00  0.00    +0.000 C 
ATOM      3  O   UNL     1       3.631   4.259  18.364  0.00  0.00    +0.000 OA
ATOM      4  H   UNL     1       5.542   6.639  17.456  0.00  0.00    +0.000 HD
ENDROOT
BRANCH   2   5
ATOM      5  C   UNL     1       3.211   6.539  18.608  0.00  0.00    +0.000 A 
ATOM      6  C   UNL     1       3.073   7.627  17.773  0.00  0.00    +0.000 A 
ATOM      7  N   UNL     1       2.290   8.697  18.045  0.00  0.00    +0.000 NA
ATOM      8  C   UNL     1       1.636   8.685  19.231  0.00  0.00    +0.000 A 
ATOM      9  N   UNL     1       0.778   9.799  19.530  0.00  0.00    +0.000 N 
ATOM     10  C   UNL     1       0.481  10.851  18.682  0.00  0.00    +0.000 A 
ATOM     11  C   UNL     1      -0.364  11.693  19.361  0.00  0.00    +0.000 A 
ATOM     12  C   UNL     1      -0.532  11.086  20.615  0.00  0.00    +0.000 A 
ATOM     13  N   UNL     1       0.136   9.936  20.726  0.00  0.00    +0.000 NA
ATOM     14  N   UNL     1       1.732   7.680  20.133  0.00  0.00    +0.000 NA
ATOM     15  C   UNL     1       2.504   6.641  19.780  0.00  0.00    +0.000 A 
BRANCH  15  16
ATOM     16  O   UNL     1       2.509   5.664  20.726  0.00  0.00    +0.000 OA
ATOM     17  H   UNL     1       3.019   6.108  21.434  0.00  0.00    +0.000 HD
ENDBRANCH  15  16
ENDBRANCH   2   5
BRANCH   1  19
ATOM     18  C   UNL     1       7.559   4.830  17.990  0.00  0.00    +0.000 C 
ATOM     19  C   UNL     1       6.208   4.611  17.297  0.00  0.00    +0.000 C 
BRANCH  19  20
ATOM     20  C   UNL     1       6.381   4.457  15.797  0.00  0.00    +0.000 A 
ATOM     21  C   UNL     1       7.445   5.116  15.156  0.00  0.00    +0.000 A 
ATOM     22  C   UNL     1       7.590   5.054  13.769  0.00  0.00    +0.000 A 
ATOM     23  C   UNL     1       6.679   4.326  13.017  0.00  0.00    +0.000 A 
ATOM     24  F   UNL     1       6.803   4.288  11.685  0.00  0.00    +0.000 F 
ATOM     25  C   UNL     1       5.634   3.641  13.627  0.00  0.00    +0.000 A 
ATOM     26  C   UNL     1       5.488   3.703  15.016  0.00  0.00    +0.000 A 
ENDBRANCH  19  20
ENDBRANCH   1  19
TORSDOF 4
ENDMDL
MODEL 8
REMARK VINA RESULT:      -7.4      4.397      9.216
REMARK  Name = 
REMARK  5 active torsions:
REMARK  status: ('A' for Active; 'I' for Inactive)
REMARK    1  A    between atoms: C_1  and  C_2
REMARK    2  A    between atoms: C_2  and  N_3
REMARK    3  A    between atoms: C_2  and  C_18
REMARK    4  A    between atoms: C_4  and  C_6
REMARK    5  A    between atoms: C_16  and  O_17
REMARK                            x       y       z     vdW  Elec       q    Type
REMARK                         _______ _______ _______ _____ _____    ______ ____
ROOT
ATOM      1  N   UNL     1       3.280   6.153  18.821  0.00  0.00    +0.000 N 
ATOM      2  C   UNL     1       4.595   5.748  18.775  0.00  0.00    +0.000 C 
ATOM      3  O   UNL     1       5.280   5.585  19.780  0.00  0.00    +0.000 OA
ATOM      4  H   UNL     1       2.771   6.297  17.953  0.00  0.00    +0.000 HD
ENDROOT
BRANCH   2   5
ATOM      5  C   UNL     1       5.181   5.450  17.456  0.00  0.00    +0.000 A 
ATOM      6  C   UNL     1       4.789   4.309  16.789  0.00  0.00    +0.000 A 
ATOM      7  N   UNL     1       5.218   3.969  15.550  0.00  0.00    +0.000 NA
ATOM      8  C   UNL     1       6.109   4.804  14.966  0.00  0.00    +0.000 A 
ATOM      9  N   UNL     1       6.558   4.477  13.640  0.00  0.00    +0.000 N 
ATOM     10  C   UNL     1       6.100   3.432  12.858  0.00  0.00    +0.000 A 
ATOM     11  C   UNL     1       6.796   3.476  11.675  0.00  0.00    +0.000 A 
ATOM     12  C   UNL     1       7.659   4.573  11.816  0.00  0.00    +0.000 A 
ATOM     13  N   UNL     1       7.516   5.197  12.987  0.00  0.00    +0.000 NA
ATOM     14  N   UNL     1       6.581   5.930  15.551  0.00  0.00    +0.000 NA
ATOM     15  C   UNL     1       6.088   6.216  16.766  0.00  0.00    +0.000 A 
BRANCH  15  16
ATOM     16  O   UNL     1       6.586   7.382  17.258  0.00  0.00    +0.000 OA
ATOM     17  H   UNL     1       7.543   7.177  17.258  0.00  0.00    +0.000 HD
ENDBRANCH  15  16
ENDBRANCH   2   5
BRANCH   1  19
ATOM     18  C   UNL     1       1.669   5.129  20.387  0.00  0.00    +0.000 C 
ATOM     19  C   UNL     1       2.585   6.322  20.085  0.00  0.00    +0.000 C 
BRANCH  19  20
ATOM     20  C   UNL     1       1.812   7.628  20.118  0.00  0.00    +0.000 A 
ATOM     21  C   UNL     1       1.072   7.961  21.267  0.00  0.00    +0.000 A 
ATOM     22  C   UNL     1       0.293   9.119  21.303  0.00  0.00    +0.000 A 
ATOM     23  C   UNL     1       0.258   9.955  20.196  0.00  0.00    +0.000 A 
ATOM     24  F   UNL     1      -0.509  11.052  20.220  0.00  0.00    +0.000 F 
ATOM     25  C   UNL     1       1.002   9.666  19.057  0.00  0.00    +0.000 A 
ATOM     26  C   UNL     1       1.782   8.506  19.020  0.00  0.00    +0.000 A 
ENDBRANCH  19  20
ENDBRANCH   1  19
TORSDOF 4
ENDMDL
MODEL 9
REMARK VINA RESULT:      -7.3      2.427      3.256
REMARK  Name = 
REMARK  5 active torsions:
REMARK  status: ('A' for Active; 'I' for Inactive)
REMARK    1  A    between atoms: C_1  and  C_2
REMARK    2  A    between atoms: C_2  and  N_3
REMARK    3  A    between atoms: C_2  and  C_18
REMARK    4  A    between atoms: C_4  and  C_6
REMARK    5  A    between atoms: C_16  and  O_17
REMARK                            x       y       z     vdW  Elec       q    Type
REMARK                         _______ _______ _______ _____ _____    ______ ____
ROOT
ATOM      1  N   UNL     1       4.488   6.306  18.432  0.00  0.00    +0.000 N 
ATOM      2  C   UNL     1       3.143   6.202  18.704  0.00  0.00    +0.000 C 
ATOM      3  O   UNL     1       2.560   5.126  18.798  0.00  0.00    +0.000 OA
ATOM      4  H   UNL     1       4.909   7.226  18.339  0.00  0.00    +0.000 HD
ENDROOT
BRANCH   2   5
ATOM      5  C   UNL     1       2.387   7.445  18.943  0.00  0.00    +0.000 A 
ATOM      6  C   UNL     1       2.195   8.325  17.899  0.00  0.00    +0.000 A 
ATOM      7  N   UNL     1       1.468   9.464  17.991  0.00  0.00    +0.000 NA
ATOM      8  C   UNL     1       0.934   9.747  19.203  0.00  0.00    +0.000 A 
ATOM      9  N   UNL     1       0.137  10.938  19.318  0.00  0.00    +0.000 N 
ATOM     10  C   UNL     1      -0.217  11.786  18.284  0.00  0.00    +0.000 A 
ATOM     11  C   UNL     1      -0.970  12.797  18.829  0.00  0.00    +0.000 A 
ATOM     12  C   UNL     1      -1.029  12.492  20.197  0.00  0.00    +0.000 A 
ATOM     13  N   UNL     1      -0.381  11.367  20.505  0.00  0.00    +0.000 NA
ATOM     14  N   UNL     1       1.093   8.965  20.297  0.00  0.00    +0.000 NA
ATOM     15  C   UNL     1       1.801   7.839  20.120  0.00  0.00    +0.000 A 
BRANCH  15  16
ATOM     16  O   UNL     1       1.875   7.098  21.259  0.00  0.00    +0.000 OA
ATOM     17  H   UNL     1       1.226   7.571  21.817  0.00  0.00    +0.000 HD
ENDBRANCH  15  16
ENDBRANCH   2   5
BRANCH   1  19
ATOM     18  C   UNL     1       6.548   5.228  19.263  0.00  0.00    +0.000 C 
ATOM     19  C   UNL     1       5.332   5.128  18.333  0.00  0.00    +0.000 C 
BRANCH  19  20
ATOM     20  C   UNL     1       5.760   4.876  16.899  0.00  0.00    +0.000 A 
ATOM     21  C   UNL     1       7.061   5.231  16.496  0.00  0.00    +0.000 A 
ATOM     22  C   UNL     1       7.462   5.080  15.168  0.00  0.00    +0.000 A 
ATOM     23  C   UNL     1       6.570   4.564  14.238  0.00  0.00    +0.000 A 
ATOM     24  F   UNL     1       6.946   4.443  12.958  0.00  0.00    +0.000 F 
ATOM     25  C   UNL     1       5.288   4.178  14.613  0.00  0.00    +0.000 A 
ATOM     26  C   UNL     1       4.885   4.330  15.944  0.00  0.00    +0.000 A 
ENDBRANCH  19  20
ENDBRANCH   1  19
TORSDOF 4
ENDMDL
