MODEL 1
REMARK VINA RESULT:      -6.2      0.000      0.000
REMARK  Name = 
REMARK  2 active torsions:
REMARK  status: ('A' for Active; 'I' for Inactive)
REMARK    1  A    between atoms: N_6  and  C_7
REMARK    2  A    between atoms: C_7  and  C_8
REMARK                            x       y       z     vdW  Elec       q    Type
REMARK                         _______ _______ _______ _____ _____    ______ ____
ROOT
ATOM      1  C   UNL     1       4.442   6.472  17.241  0.00  0.00    +0.000 C 
ENDROOT
BRANCH   1   7
ATOM      2  S   UNL     1       7.367   5.790  18.720  0.00  0.00    +0.000 S 
ATOM      3  C   UNL     1       6.807   5.485  17.196  0.00  0.00    +0.000 C 
ATOM      4  N   UNL     1       7.567   4.819  16.241  0.00  0.00    +0.000 N 
ATOM      5  C   UNL     1       6.767   4.479  15.095  0.00  0.00    +0.000 C 
ATOM      6  C   UNL     1       5.557   5.392  15.227  0.00  0.00    +0.000 C 
ATOM      7  N   UNL     1       5.568   5.778  16.627  0.00  0.00    +0.000 N 
ATOM      8  H   UNL     1       8.450   4.391  16.487  0.00  0.00    +0.000 HD
ENDBRANCH   1   7
BRANCH   1   9
ATOM      9  C   UNL     1       3.601   5.564  18.107  0.00  0.00    +0.000 A 
ATOM     10  C   UNL     1       2.785   4.581  17.525  0.00  0.00    +0.000 A 
ATOM     11  C   UNL     1       1.960   3.783  18.318  0.00  0.00    +0.000 A 
ATOM     12  C   UNL     1       1.953   3.956  19.701  0.00  0.00    +0.000 A 
ATOM     13 CL   UNL     1       0.922   2.983  20.676  0.00  0.00    +0.000 Cl
ATOM     14  C   UNL     1       2.767   4.917  20.295  0.00  0.00    +0.000 A 
ATOM     15  C   UNL     1       3.585   5.725  19.500  0.00  0.00    +0.000 A 
ENDBRANCH   1   9
TORSDOF 2
ENDMDL
MODEL 2
REMARK VINA RESULT:      -6.1      0.268      1.288
REMARK  Name = 
REMARK  2 active torsions:
REMARK  status: ('A' for Active; 'I' for Inactive)
REMARK    1  A    between atoms: N_6  and  C_7
REMARK    2  A    between atoms: C_7  and  C_8
REMARK                            x       y       z     vdW  Elec       q    Type
REMARK                         _______ _______ _______ _____ _____    ______ ____
ROOT
ATOM      1  C   UNL     1       4.451   6.593  17.176  0.00  0.00    +0.000 C 
ENDROOT
BRANCH   1   7
ATOM      2  S   UNL     1       7.216   5.687  18.832  0.00  0.00    +0.000 S 
ATOM      3  C   UNL     1       6.737   5.439  17.269  0.00  0.00    +0.000 C 
ATOM      4  N   UNL     1       7.510   4.731  16.356  0.00  0.00    +0.000 N 
ATOM      5  C   UNL     1       6.766   4.461  15.156  0.00  0.00    +0.000 C 
ATOM      6  C   UNL     1       5.617   5.457  15.222  0.00  0.00    +0.000 C 
ATOM      7  N   UNL     1       5.563   5.827  16.626  0.00  0.00    +0.000 N 
ATOM      8  H   UNL     1       8.342   4.237  16.653  0.00  0.00    +0.000 HD
ENDBRANCH   1   7
BRANCH   1   9
ATOM      9  C   UNL     1       3.523   5.750  18.018  0.00  0.00    +0.000 A 
ATOM     10  C   UNL     1       3.205   6.135  19.330  0.00  0.00    +0.000 A 
ATOM     11  C   UNL     1       2.398   5.326  20.131  0.00  0.00    +0.000 A 
ATOM     12  C   UNL     1       1.895   4.130  19.622  0.00  0.00    +0.000 A 
ATOM     13 CL   UNL     1       0.916   3.126  20.616  0.00  0.00    +0.000 Cl
ATOM     14  C   UNL     1       2.190   3.741  18.317  0.00  0.00    +0.000 A 
ATOM     15  C   UNL     1       3.007   4.545  17.518  0.00  0.00    +0.000 A 
ENDBRANCH   1   9
TORSDOF 2
ENDMDL
MODEL 3
REMARK VINA RESULT:      -6.1      1.697      2.327
REMARK  Name = 
REMARK  2 active torsions:
REMARK  status: ('A' for Active; 'I' for Inactive)
REMARK    1  A    between atoms: N_6  and  C_7
REMARK    2  A    between atoms: C_7  and  C_8
REMARK                            x       y       z     vdW  Elec       q    Type
REMARK                         _______ _______ _______ _____ _____    ______ ____
ROOT
ATOM      1  C   UNL     1       4.155   5.048  17.114  0.00  0.00    +0.000 C 
ENDROOT
BRANCH   1   7
ATOM      2  S   UNL     1       6.189   4.047  14.651  0.00  0.00    +0.000 S 
ATOM      3  C   UNL     1       6.476   4.402  16.239  0.00  0.00    +0.000 C 
ATOM      4  N   UNL     1       7.745   4.331  16.803  0.00  0.00    +0.000 N 
ATOM      5  C   UNL     1       7.754   4.912  18.118  0.00  0.00    +0.000 C 
ATOM      6  C   UNL     1       6.282   4.938  18.502  0.00  0.00    +0.000 C 
ATOM      7  N   UNL     1       5.592   4.830  17.228  0.00  0.00    +0.000 N 
ATOM      8  H   UNL     1       8.561   4.175  16.224  0.00  0.00    +0.000 HD
ENDBRANCH   1   7
BRANCH   1   9
ATOM      9  C   UNL     1       3.380   4.430  18.254  0.00  0.00    +0.000 A 
ATOM     10  C   UNL     1       2.737   5.243  19.201  0.00  0.00    +0.000 A 
ATOM     11  C   UNL     1       2.074   4.676  20.290  0.00  0.00    +0.000 A 
ATOM     12  C   UNL     1       2.040   3.290  20.433  0.00  0.00    +0.000 A 
ATOM     13 CL   UNL     1       1.237   2.593  21.785  0.00  0.00    +0.000 Cl
ATOM     14  C   UNL     1       2.659   2.469  19.494  0.00  0.00    +0.000 A 
ATOM     15  C   UNL     1       3.334   3.037  18.410  0.00  0.00    +0.000 A 
ENDBRANCH   1   9
TORSDOF 2
ENDMDL
MODEL 4
REMARK VINA RESULT:      -6.0      1.799      2.247
REMARK  Name = 
REMARK  2 active torsions:
REMARK  status: ('A' for Active; 'I' for Inactive)
REMARK    1  A    between atoms: N_6  and  C_7
REMARK    2  A    between atoms: C_7  and  C_8
REMARK                            x       y       z     vdW  Elec       q    Type
REMARK                         _______ _______ _______ _____ _____    ______ ____
ROOT
ATOM      1  C   UNL     1       4.108   4.274  16.666  0.00  0.00    +0.000 C 
ENDROOT
BRANCH   1   7
ATOM      2  S   UNL     1       6.378   4.134  14.209  0.00  0.00    +0.000 S 
ATOM      3  C   UNL     1       6.533   4.348  15.841  0.00  0.00    +0.000 C 
ATOM      4  N   UNL     1       7.767   4.530  16.456  0.00  0.00    +0.000 N 
ATOM      5  C   UNL     1       7.602   4.926  17.828  0.00  0.00    +0.000 C 
ATOM      6  C   UNL     1       6.165   4.532  18.138  0.00  0.00    +0.000 C 
ATOM      7  N   UNL     1       5.550   4.413  16.827  0.00  0.00    +0.000 N 
ATOM      8  H   UNL     1       8.606   4.658  15.905  0.00  0.00    +0.000 HD
ENDBRANCH   1   7
BRANCH   1   9
ATOM      9  C   UNL     1       3.414   3.887  17.950  0.00  0.00    +0.000 A 
ATOM     10  C   UNL     1       3.429   2.555  18.395  0.00  0.00    +0.000 A 
ATOM     11  C   UNL     1       2.737   2.183  19.548  0.00  0.00    +0.000 A 
ATOM     12  C   UNL     1       2.031   3.144  20.271  0.00  0.00    +0.000 A 
ATOM     13 CL   UNL     1       1.164   2.681  21.681  0.00  0.00    +0.000 Cl
ATOM     14  C   UNL     1       2.018   4.472  19.851  0.00  0.00    +0.000 A 
ATOM     15  C   UNL     1       2.702   4.843  18.690  0.00  0.00    +0.000 A 
ENDBRANCH   1   9
TORSDOF 2
ENDMDL
MODEL 5
REMARK VINA RESULT:      -5.9      1.552      1.830
REMARK  Name = 
REMARK  2 active torsions:
REMARK  status: ('A' for Active; 'I' for Inactive)
REMARK    1  A    between atoms: N_6  and  C_7
REMARK    2  A    between atoms: C_7  and  C_8
REMARK                            x       y       z     vdW  Elec       q    Type
REMARK                         _______ _______ _______ _____ _____    ______ ____
ROOT
ATOM      1  C   UNL     1       5.893   4.830  18.787  0.00  0.00    +0.000 C 
ENDROOT
BRANCH   1   7
ATOM      2  S   UNL     1       7.581   7.496  17.669  0.00  0.00    +0.000 S 
ATOM      3  C   UNL     1       7.069   6.121  16.910  0.00  0.00    +0.000 C 
ATOM      4  N   UNL     1       7.318   5.873  15.565  0.00  0.00    +0.000 N 
ATOM      5  C   UNL     1       6.976   4.520  15.221  0.00  0.00    +0.000 C 
ATOM      6  C   UNL     1       6.068   4.085  16.362  0.00  0.00    +0.000 C 
ATOM      7  N   UNL     1       6.376   5.026  17.425  0.00  0.00    +0.000 N 
ATOM      8  H   UNL     1       7.930   6.478  15.032  0.00  0.00    +0.000 HD
ENDBRANCH   1   7
BRANCH   1   9
ATOM      9  C   UNL     1       4.508   4.230  18.832  0.00  0.00    +0.000 A 
ATOM     10  C   UNL     1       4.305   2.943  19.354  0.00  0.00    +0.000 A 
ATOM     11  C   UNL     1       3.037   2.362  19.340  0.00  0.00    +0.000 A 
ATOM     12  C   UNL     1       1.958   3.071  18.813  0.00  0.00    +0.000 A 
ATOM     13 CL   UNL     1       0.398   2.347  18.780  0.00  0.00    +0.000 Cl
ATOM     14  C   UNL     1       2.139   4.355  18.305  0.00  0.00    +0.000 A 
ATOM     15  C   UNL     1       3.412   4.932  18.308  0.00  0.00    +0.000 A 
ENDBRANCH   1   9
TORSDOF 2
ENDMDL
MODEL 6
REMARK VINA RESULT:      -5.9      1.455      2.227
REMARK  Name = 
REMARK  2 active torsions:
REMARK  status: ('A' for Active; 'I' for Inactive)
REMARK    1  A    between atoms: N_6  and  C_7
REMARK    2  A    between atoms: C_7  and  C_8
REMARK                            x       y       z     vdW  Elec       q    Type
REMARK                         _______ _______ _______ _____ _____    ______ ____
ROOT
ATOM      1  C   UNL     1       4.557   5.980  17.003  0.00  0.00    +0.000 C 
ENDROOT
BRANCH   1   7
ATOM      2  S   UNL     1       6.367   4.290  14.749  0.00  0.00    +0.000 S 
ATOM      3  C   UNL     1       6.663   4.685  16.326  0.00  0.00    +0.000 C 
ATOM      4  N   UNL     1       7.841   4.333  16.975  0.00  0.00    +0.000 N 
ATOM      5  C   UNL     1       7.943   4.994  18.247  0.00  0.00    +0.000 C 
ATOM      6  C   UNL     1       6.514   5.433  18.532  0.00  0.00    +0.000 C 
ATOM      7  N   UNL     1       5.879   5.406  17.225  0.00  0.00    +0.000 N 
ATOM      8  H   UNL     1       8.613   3.924  16.463  0.00  0.00    +0.000 HD
ENDBRANCH   1   7
BRANCH   1   9
ATOM      9  C   UNL     1       3.480   5.288  17.804  0.00  0.00    +0.000 A 
ATOM     10  C   UNL     1       2.990   5.865  18.986  0.00  0.00    +0.000 A 
ATOM     11  C   UNL     1       2.040   5.198  19.761  0.00  0.00    +0.000 A 
ATOM     12  C   UNL     1       1.566   3.953  19.352  0.00  0.00    +0.000 A 
ATOM     13 CL   UNL     1       0.408   3.124  20.317  0.00  0.00    +0.000 Cl
ATOM     14  C   UNL     1       2.031   3.373  18.174  0.00  0.00    +0.000 A 
ATOM     15  C   UNL     1       2.991   4.036  17.404  0.00  0.00    +0.000 A 
ENDBRANCH   1   9
TORSDOF 2
ENDMDL
MODEL 7
REMARK VINA RESULT:      -5.9      2.243      2.802
REMARK  Name = 
REMARK  2 active torsions:
REMARK  status: ('A' for Active; 'I' for Inactive)
REMARK    1  A    between atoms: N_6  and  C_7
REMARK    2  A    between atoms: C_7  and  C_8
REMARK                            x       y       z     vdW  Elec       q    Type
REMARK                         _______ _______ _______ _____ _____    ______ ____
ROOT
ATOM      1  C   UNL     1       4.072   4.256  17.033  0.00  0.00    +0.000 C 
ENDROOT
BRANCH   1   7
ATOM      2  S   UNL     1       6.163   4.071  14.424  0.00  0.00    +0.000 S 
ATOM      3  C   UNL     1       6.434   4.309  16.037  0.00  0.00    +0.000 C 
ATOM      4  N   UNL     1       7.708   4.495  16.560  0.00  0.00    +0.000 N 
ATOM      5  C   UNL     1       7.642   4.910  17.934  0.00  0.00    +0.000 C 
ATOM      6  C   UNL     1       6.230   4.527  18.351  0.00  0.00    +0.000 C 
ATOM      7  N   UNL     1       5.523   4.392  17.089  0.00  0.00    +0.000 N 
ATOM      8  H   UNL     1       8.507   4.611  15.950  0.00  0.00    +0.000 HD
ENDBRANCH   1   7
BRANCH   1   9
ATOM      9  C   UNL     1       3.363   5.202  17.972  0.00  0.00    +0.000 A 
ATOM     10  C   UNL     1       3.349   6.582  17.717  0.00  0.00    +0.000 A 
ATOM     11  C   UNL     1       2.748   7.464  18.616  0.00  0.00    +0.000 A 
ATOM     12  C   UNL     1       2.147   6.970  19.772  0.00  0.00    +0.000 A 
ATOM     13 CL   UNL     1       1.422   8.060  20.888  0.00  0.00    +0.000 Cl
ATOM     14  C   UNL     1       2.138   5.602  20.033  0.00  0.00    +0.000 A 
ATOM     15  C   UNL     1       2.751   4.719  19.138  0.00  0.00    +0.000 A 
ENDBRANCH   1   9
TORSDOF 2
ENDMDL
MODEL 8
REMARK VINA RESULT:      -5.9      1.524      1.684
REMARK  Name = 
REMARK  2 active torsions:
REMARK  status: ('A' for Active; 'I' for Inactive)
REMARK    1  A    between atoms: N_6  and  C_7
REMARK    2  A    between atoms: C_7  and  C_8
REMARK                            x       y       z     vdW  Elec       q    Type
REMARK                         _______ _______ _______ _____ _____    ______ ____
ROOT
ATOM      1  C   UNL     1       5.625   5.250  18.770  0.00  0.00    +0.000 C 
ENDROOT
BRANCH   1   7
ATOM      2  S   UNL     1       7.641   7.691  17.680  0.00  0.00    +0.000 S 
ATOM      3  C   UNL     1       7.106   6.302  16.962  0.00  0.00    +0.000 C 
ATOM      4  N   UNL     1       7.485   5.933  15.676  0.00  0.00    +0.000 N 
ATOM      5  C   UNL     1       7.075   4.586  15.388  0.00  0.00    +0.000 C 
ATOM      6  C   UNL     1       6.011   4.308  16.439  0.00  0.00    +0.000 C 
ATOM      7  N   UNL     1       6.273   5.304  17.465  0.00  0.00    +0.000 N 
ATOM      8  H   UNL     1       8.201   6.447  15.179  0.00  0.00    +0.000 HD
ENDBRANCH   1   7
BRANCH   1   9
ATOM      9  C   UNL     1       4.332   4.469  18.746  0.00  0.00    +0.000 A 
ATOM     10  C   UNL     1       3.169   5.034  18.200  0.00  0.00    +0.000 A 
ATOM     11  C   UNL     1       1.960   4.339  18.233  0.00  0.00    +0.000 A 
ATOM     12  C   UNL     1       1.907   3.068  18.803  0.00  0.00    +0.000 A 
ATOM     13 CL   UNL     1       0.412   2.220  18.859  0.00  0.00    +0.000 Cl
ATOM     14  C   UNL     1       3.055   2.488  19.336  0.00  0.00    +0.000 A 
ATOM     15  C   UNL     1       4.265   3.188  19.314  0.00  0.00    +0.000 A 
ENDBRANCH   1   9
TORSDOF 2
ENDMDL
MODEL 9
REMARK VINA RESULT:      -5.9      1.011      1.040
REMARK  Name = 
REMARK  2 active torsions:
REMARK  status: ('A' for Active; 'I' for Inactive)
REMARK    1  A    between atoms: N_6  and  C_7
REMARK    2  A    between atoms: C_7  and  C_8
REMARK                            x       y       z     vdW  Elec       q    Type
REMARK                         _______ _______ _______ _____ _____    ______ ____
ROOT
ATOM      1  C   UNL     1       4.488   6.263  17.856  0.00  0.00    +0.000 C 
ENDROOT
BRANCH   1   7
ATOM      2  S   UNL     1       7.612   5.803  18.968  0.00  0.00    +0.000 S 
ATOM      3  C   UNL     1       6.868   5.359  17.561  0.00  0.00    +0.000 C 
ATOM      4  N   UNL     1       7.524   4.648  16.562  0.00  0.00    +0.000 N 
ATOM      5  C   UNL     1       6.595   4.191  15.564  0.00  0.00    +0.000 C 
ATOM      6  C   UNL     1       5.372   5.068  15.793  0.00  0.00    +0.000 C 
ATOM      7  N   UNL     1       5.553   5.563  17.147  0.00  0.00    +0.000 N 
ATOM      8  H   UNL     1       8.451   4.272  16.716  0.00  0.00    +0.000 HD
ENDBRANCH   1   7
BRANCH   1   9
ATOM      9  C   UNL     1       3.776   5.381  18.854  0.00  0.00    +0.000 A 
ATOM     10  C   UNL     1       4.089   4.015  18.947  0.00  0.00    +0.000 A 
ATOM     11  C   UNL     1       3.389   3.185  19.824  0.00  0.00    +0.000 A 
ATOM     12  C   UNL     1       2.377   3.717  20.621  0.00  0.00    +0.000 A 
ATOM     13 CL   UNL     1       1.504   2.689  21.687  0.00  0.00    +0.000 Cl
ATOM     14  C   UNL     1       2.064   5.073  20.550  0.00  0.00    +0.000 A 
ATOM     15  C   UNL     1       2.757   5.902  19.664  0.00  0.00    +0.000 A 
ENDBRANCH   1   9
TORSDOF 2
ENDMDL
