MODEL 1
REMARK VINA RESULT:      -7.0      0.000      0.000
REMARK  Name = 
REMARK  7 active torsions:
REMARK  status: ('A' for Active; 'I' for Inactive)
REMARK    1  A    between atoms: C_1  and  O_2
REMARK    2  A    between atoms: O_2  and  C_3
REMARK    3  A    between atoms: C_6  and  C_7
REMARK    4  A    between atoms: C_7  and  C_8
REMARK    5  A    between atoms: C_8  and  C_9
REMARK    6  A    between atoms: C_11  and  C_12
REMARK    7  A    between atoms: C_15  and  O_16
REMARK                            x       y       z     vdW  Elec       q    Type
REMARK                         _______ _______ _______ _____ _____    ______ ____
ROOT
ATOM      1  C   UNL     1       4.609   6.341  16.602  0.00  0.00    +0.000 C 
ENDROOT
BRANCH   1   2
ATOM      2  C   UNL     1       5.919   6.440  17.346  0.00  0.00    +0.000 A 
ATOM      3  N   UNL     1       6.549   7.643  17.290  0.00  0.00    +0.000 NA
ATOM      4  C   UNL     1       7.706   7.794  17.980  0.00  0.00    +0.000 A 
ATOM      5  C   UNL     1       8.372   9.135  17.918  0.00  0.00    +0.000 C 
ATOM      6  C   UNL     1       8.270   6.765  18.728  0.00  0.00    +0.000 A 
ATOM      7  C   UNL     1       7.627   5.532  18.767  0.00  0.00    +0.000 A 
ATOM      8  C   UNL     1       6.438   5.364  18.064  0.00  0.00    +0.000 A 
BRANCH   8   9
ATOM      9  O   UNL     1       5.785   4.167  18.084  0.00  0.00    +0.000 OA
ATOM     10  H   UNL     1       6.361   3.488  17.692  0.00  0.00    +0.000 HD
ENDBRANCH   8   9
ENDBRANCH   1   2
BRANCH   1  11
ATOM     11  C   UNL     1       3.445   6.960  17.380  0.00  0.00    +0.000 C 
BRANCH  11  15
ATOM     12  C   UNL     1       1.403   4.104  19.927  0.00  0.00    +0.000 A 
ATOM     13  C   UNL     1       1.925   5.283  20.457  0.00  0.00    +0.000 A 
ATOM     14  C   UNL     1       2.571   6.209  19.636  0.00  0.00    +0.000 A 
ATOM     15  C   UNL     1       2.737   5.956  18.268  0.00  0.00    +0.000 A 
ATOM     16  C   UNL     1       2.221   4.763  17.741  0.00  0.00    +0.000 A 
ATOM     17  C   UNL     1       1.558   3.843  18.566  0.00  0.00    +0.000 A 
BRANCH  12  19
ATOM     18  C   UNL     1       1.679   2.591  21.724  0.00  0.00    +0.000 C 
ATOM     19  O   UNL     1       0.803   3.276  20.835  0.00  0.00    +0.000 OA
ENDBRANCH  12  19
ENDBRANCH  11  15
ENDBRANCH   1  11
TORSDOF 5
ENDMDL
MODEL 2
REMARK VINA RESULT:      -6.6      0.706      1.349
REMARK  Name = 
REMARK  7 active torsions:
REMARK  status: ('A' for Active; 'I' for Inactive)
REMARK    1  A    between atoms: C_1  and  O_2
REMARK    2  A    between atoms: O_2  and  C_3
REMARK    3  A    between atoms: C_6  and  C_7
REMARK    4  A    between atoms: C_7  and  C_8
REMARK    5  A    between atoms: C_8  and  C_9
REMARK    6  A    between atoms: C_11  and  C_12
REMARK    7  A    between atoms: C_15  and  O_16
REMARK                            x       y       z     vdW  Elec       q    Type
REMARK                         _______ _______ _______ _____ _____    ______ ____
ROOT
ATOM      1  C   UNL     1       5.497   5.625  16.275  0.00  0.00    +0.000 C 
ENDROOT
BRANCH   1   2
ATOM      2  C   UNL     1       6.544   6.107  17.249  0.00  0.00    +0.000 A 
ATOM      3  N   UNL     1       6.961   7.393  17.093  0.00  0.00    +0.000 NA
ATOM      4  C   UNL     1       7.867   7.885  17.972  0.00  0.00    +0.000 A 
ATOM      5  C   UNL     1       8.296   9.309  17.790  0.00  0.00    +0.000 C 
ATOM      6  C   UNL     1       8.388   7.123  19.014  0.00  0.00    +0.000 A 
ATOM      7  C   UNL     1       7.970   5.804  19.157  0.00  0.00    +0.000 A 
ATOM      8  C   UNL     1       7.038   5.287  18.262  0.00  0.00    +0.000 A 
BRANCH   8   9
ATOM      9  O   UNL     1       6.609   3.998  18.378  0.00  0.00    +0.000 OA
ATOM     10  H   UNL     1       5.772   3.900  17.891  0.00  0.00    +0.000 HD
ENDBRANCH   8   9
ENDBRANCH   1   2
BRANCH   1  11
ATOM     11  C   UNL     1       4.149   6.323  16.472  0.00  0.00    +0.000 C 
BRANCH  11  15
ATOM     12  C   UNL     1       1.937   4.715  19.839  0.00  0.00    +0.000 A 
ATOM     13  C   UNL     1       2.231   3.916  18.735  0.00  0.00    +0.000 A 
ATOM     14  C   UNL     1       2.954   4.430  17.656  0.00  0.00    +0.000 A 
ATOM     15  C   UNL     1       3.370   5.768  17.647  0.00  0.00    +0.000 A 
ATOM     16  C   UNL     1       3.062   6.571  18.755  0.00  0.00    +0.000 A 
ATOM     17  C   UNL     1       2.350   6.047  19.843  0.00  0.00    +0.000 A 
BRANCH  12  19
ATOM     18  C   UNL     1       1.924   3.152  21.613  0.00  0.00    +0.000 C 
ATOM     19  O   UNL     1       1.215   4.100  20.824  0.00  0.00    +0.000 OA
ENDBRANCH  12  19
ENDBRANCH  11  15
ENDBRANCH   1  11
TORSDOF 5
ENDMDL
MODEL 3
REMARK VINA RESULT:      -6.6      1.297      1.645
REMARK  Name = 
REMARK  7 active torsions:
REMARK  status: ('A' for Active; 'I' for Inactive)
REMARK    1  A    between atoms: C_1  and  O_2
REMARK    2  A    between atoms: O_2  and  C_3
REMARK    3  A    between atoms: C_6  and  C_7
REMARK    4  A    between atoms: C_7  and  C_8
REMARK    5  A    between atoms: C_8  and  C_9
REMARK    6  A    between atoms: C_11  and  C_12
REMARK    7  A    between atoms: C_15  and  O_16
REMARK                            x       y       z     vdW  Elec       q    Type
REMARK                         _______ _______ _______ _____ _____    ______ ____
ROOT
ATOM      1  C   UNL     1       6.471   5.409  15.791  0.00  0.00    +0.000 C 
ENDROOT
BRANCH   1   2
ATOM      2  C   UNL     1       7.170   6.030  16.976  0.00  0.00    +0.000 A 
ATOM      3  N   UNL     1       7.428   7.363  16.886  0.00  0.00    +0.000 NA
ATOM      4  C   UNL     1       8.014   7.975  17.943  0.00  0.00    +0.000 A 
ATOM      5  C   UNL     1       8.272   9.446  17.828  0.00  0.00    +0.000 C 
ATOM      6  C   UNL     1       8.365   7.290  19.103  0.00  0.00    +0.000 A 
ATOM      7  C   UNL     1       8.113   5.925  19.181  0.00  0.00    +0.000 A 
ATOM      8  C   UNL     1       7.510   5.284  18.103  0.00  0.00    +0.000 A 
BRANCH   8   9
ATOM      9  O   UNL     1       7.249   3.947  18.150  0.00  0.00    +0.000 OA
ATOM     10  H   UNL     1       6.552   3.739  17.504  0.00  0.00    +0.000 HD
ENDBRANCH   8   9
ENDBRANCH   1   2
BRANCH   1  11
ATOM     11  C   UNL     1       4.977   5.741  15.752  0.00  0.00    +0.000 C 
BRANCH  11  15
ATOM     12  C   UNL     1       2.735   3.850  18.946  0.00  0.00    +0.000 A 
ATOM     13  C   UNL     1       2.883   5.235  18.906  0.00  0.00    +0.000 A 
ATOM     14  C   UNL     1       3.594   5.846  17.871  0.00  0.00    +0.000 A 
ATOM     15  C   UNL     1       4.201   5.076  16.870  0.00  0.00    +0.000 A 
ATOM     16  C   UNL     1       4.059   3.681  16.921  0.00  0.00    +0.000 A 
ATOM     17  C   UNL     1       3.331   3.073  17.953  0.00  0.00    +0.000 A 
BRANCH  12  19
ATOM     18  C   UNL     1       2.040   4.188  21.181  0.00  0.00    +0.000 C 
ATOM     19  O   UNL     1       2.027   3.373  20.015  0.00  0.00    +0.000 OA
ENDBRANCH  12  19
ENDBRANCH  11  15
ENDBRANCH   1  11
TORSDOF 5
ENDMDL
MODEL 4
REMARK VINA RESULT:      -6.5      1.482      1.781
REMARK  Name = 
REMARK  7 active torsions:
REMARK  status: ('A' for Active; 'I' for Inactive)
REMARK    1  A    between atoms: C_1  and  O_2
REMARK    2  A    between atoms: O_2  and  C_3
REMARK    3  A    between atoms: C_6  and  C_7
REMARK    4  A    between atoms: C_7  and  C_8
REMARK    5  A    between atoms: C_8  and  C_9
REMARK    6  A    between atoms: C_11  and  C_12
REMARK    7  A    between atoms: C_15  and  O_16
REMARK                            x       y       z     vdW  Elec       q    Type
REMARK                         _______ _______ _______ _____ _____    ______ ____
ROOT
ATOM      1  C   UNL     1       4.263   6.902  16.523  0.00  0.00    +0.000 C 
ENDROOT
BRANCH   1   2
ATOM      2  C   UNL     1       5.492   6.066  16.783  0.00  0.00    +0.000 A 
ATOM      3  N   UNL     1       6.128   6.288  17.965  0.00  0.00    +0.000 NA
ATOM      4  C   UNL     1       7.211   5.530  18.263  0.00  0.00    +0.000 A 
ATOM      5  C   UNL     1       7.884   5.781  19.578  0.00  0.00    +0.000 C 
ATOM      6  C   UNL     1       7.695   4.547  17.404  0.00  0.00    +0.000 A 
ATOM      7  C   UNL     1       7.049   4.337  16.190  0.00  0.00    +0.000 A 
ATOM      8  C   UNL     1       5.935   5.108  15.872  0.00  0.00    +0.000 A 
BRANCH   8   9
ATOM      9  O   UNL     1       5.280   4.924  14.691  0.00  0.00    +0.000 OA
ATOM     10  H   UNL     1       5.173   3.969  14.536  0.00  0.00    +0.000 HD
ENDBRANCH   8   9
ENDBRANCH   1   2
BRANCH   1  11
ATOM     11  C   UNL     1       3.569   7.340  17.816  0.00  0.00    +0.000 C 
BRANCH  11  15
ATOM     12  C   UNL     1       1.405   4.117  19.750  0.00  0.00    +0.000 A 
ATOM     13  C   UNL     1       1.887   5.195  20.492  0.00  0.00    +0.000 A 
ATOM     14  C   UNL     1       2.572   6.239  19.868  0.00  0.00    +0.000 A 
ATOM     15  C   UNL     1       2.819   6.208  18.489  0.00  0.00    +0.000 A 
ATOM     16  C   UNL     1       2.343   5.117  17.749  0.00  0.00    +0.000 A 
ATOM     17  C   UNL     1       1.641   4.078  18.376  0.00  0.00    +0.000 A 
BRANCH  12  19
ATOM     18  C   UNL     1       1.480   2.629  21.586  0.00  0.00    +0.000 C 
ATOM     19  O   UNL     1       0.761   3.155  20.477  0.00  0.00    +0.000 OA
ENDBRANCH  12  19
ENDBRANCH  11  15
ENDBRANCH   1  11
TORSDOF 5
ENDMDL
MODEL 5
REMARK VINA RESULT:      -6.5      2.478      3.653
REMARK  Name = 
REMARK  7 active torsions:
REMARK  status: ('A' for Active; 'I' for Inactive)
REMARK    1  A    between atoms: C_1  and  O_2
REMARK    2  A    between atoms: O_2  and  C_3
REMARK    3  A    between atoms: C_6  and  C_7
REMARK    4  A    between atoms: C_7  and  C_8
REMARK    5  A    between atoms: C_8  and  C_9
REMARK    6  A    between atoms: C_11  and  C_12
REMARK    7  A    between atoms: C_15  and  O_16
REMARK                            x       y       z     vdW  Elec       q    Type
REMARK                         _______ _______ _______ _____ _____    ______ ____
ROOT
ATOM      1  C   UNL     1       3.815   3.128  17.845  0.00  0.00    +0.000 C 
ENDROOT
BRANCH   1   2
ATOM      2  C   UNL     1       5.044   3.760  17.239  0.00  0.00    +0.000 A 
ATOM      3  N   UNL     1       5.169   3.652  15.889  0.00  0.00    +0.000 NA
ATOM      4  C   UNL     1       6.233   4.241  15.293  0.00  0.00    +0.000 A 
ATOM      5  C   UNL     1       6.339   4.124  13.803  0.00  0.00    +0.000 C 
ATOM      6  C   UNL     1       7.200   4.939  16.012  0.00  0.00    +0.000 A 
ATOM      7  C   UNL     1       7.075   5.032  17.394  0.00  0.00    +0.000 A 
ATOM      8  C   UNL     1       5.985   4.431  18.018  0.00  0.00    +0.000 A 
BRANCH   8   9
ATOM      9  O   UNL     1       5.834   4.506  19.371  0.00  0.00    +0.000 OA
ATOM     10  H   UNL     1       5.597   5.418  19.611  0.00  0.00    +0.000 HD
ENDBRANCH   8   9
ENDBRANCH   1   2
BRANCH   1  11
ATOM     11  C   UNL     1       2.535   3.903  17.515  0.00  0.00    +0.000 C 
BRANCH  11  15
ATOM     12  C   UNL     1       1.924   7.281  20.166  0.00  0.00    +0.000 A 
ATOM     13  C   UNL     1       1.705   5.979  20.612  0.00  0.00    +0.000 A 
ATOM     14  C   UNL     1       1.914   4.890  19.763  0.00  0.00    +0.000 A 
ATOM     15  C   UNL     1       2.316   5.087  18.435  0.00  0.00    +0.000 A 
ATOM     16  C   UNL     1       2.524   6.399  17.987  0.00  0.00    +0.000 A 
ATOM     17  C   UNL     1       2.329   7.489  18.847  0.00  0.00    +0.000 A 
BRANCH  12  19
ATOM     18  C   UNL     1       0.927   9.377  20.620  0.00  0.00    +0.000 C 
ATOM     19  O   UNL     1       1.674   8.259  21.088  0.00  0.00    +0.000 OA
ENDBRANCH  12  19
ENDBRANCH  11  15
ENDBRANCH   1  11
TORSDOF 5
ENDMDL
MODEL 6
REMARK VINA RESULT:      -6.5      2.532      3.675
REMARK  Name = 
REMARK  7 active torsions:
REMARK  status: ('A' for Active; 'I' for Inactive)
REMARK    1  A    between atoms: C_1  and  O_2
REMARK    2  A    between atoms: O_2  and  C_3
REMARK    3  A    between atoms: C_6  and  C_7
REMARK    4  A    between atoms: C_7  and  C_8
REMARK    5  A    between atoms: C_8  and  C_9
REMARK    6  A    between atoms: C_11  and  C_12
REMARK    7  A    between atoms: C_15  and  O_16
REMARK                            x       y       z     vdW  Elec       q    Type
REMARK                         _______ _______ _______ _____ _____    ______ ____
ROOT
ATOM      1  C   UNL     1       3.948   3.300  18.065  0.00  0.00    +0.000 C 
ENDROOT
BRANCH   1   2
ATOM      2  C   UNL     1       5.150   3.843  17.330  0.00  0.00    +0.000 A 
ATOM      3  N   UNL     1       5.164   3.652  15.984  0.00  0.00    +0.000 NA
ATOM      4  C   UNL     1       6.200   4.161  15.275  0.00  0.00    +0.000 A 
ATOM      5  C   UNL     1       6.184   3.953  13.791  0.00  0.00    +0.000 C 
ATOM      6  C   UNL     1       7.246   4.858  15.874  0.00  0.00    +0.000 A 
ATOM      7  C   UNL     1       7.232   5.035  17.253  0.00  0.00    +0.000 A 
ATOM      8  C   UNL     1       6.173   4.519  17.993  0.00  0.00    +0.000 A 
BRANCH   8   9
ATOM      9  O   UNL     1       6.132   4.677  19.347  0.00  0.00    +0.000 OA
ATOM     10  H   UNL     1       6.684   3.992  19.761  0.00  0.00    +0.000 HD
ENDBRANCH   8   9
ENDBRANCH   1   2
BRANCH   1  11
ATOM     11  C   UNL     1       2.656   4.035  17.698  0.00  0.00    +0.000 C 
BRANCH  11  15
ATOM     12  C   UNL     1       1.797   7.370  20.334  0.00  0.00    +0.000 A 
ATOM     13  C   UNL     1       2.277   7.590  19.044  0.00  0.00    +0.000 A 
ATOM     14  C   UNL     1       2.541   6.517  18.190  0.00  0.00    +0.000 A 
ATOM     15  C   UNL     1       2.361   5.197  18.625  0.00  0.00    +0.000 A 
ATOM     16  C   UNL     1       1.889   4.981  19.927  0.00  0.00    +0.000 A 
ATOM     17  C   UNL     1       1.609   6.061  20.776  0.00  0.00    +0.000 A 
BRANCH  12  19
ATOM     18  C   UNL     1       0.227   8.831  21.331  0.00  0.00    +0.000 C 
ATOM     19  O   UNL     1       1.587   8.500  21.074  0.00  0.00    +0.000 OA
ENDBRANCH  12  19
ENDBRANCH  11  15
ENDBRANCH   1  11
TORSDOF 5
ENDMDL
MODEL 7
REMARK VINA RESULT:      -6.5      2.137      6.185
REMARK  Name = 
REMARK  7 active torsions:
REMARK  status: ('A' for Active; 'I' for Inactive)
REMARK    1  A    between atoms: C_1  and  O_2
REMARK    2  A    between atoms: O_2  and  C_3
REMARK    3  A    between atoms: C_6  and  C_7
REMARK    4  A    between atoms: C_7  and  C_8
REMARK    5  A    between atoms: C_8  and  C_9
REMARK    6  A    between atoms: C_11  and  C_12
REMARK    7  A    between atoms: C_15  and  O_16
REMARK                            x       y       z     vdW  Elec       q    Type
REMARK                         _______ _______ _______ _____ _____    ______ ____
ROOT
ATOM      1  C   UNL     1       2.854   3.554  17.113  0.00  0.00    +0.000 C 
ENDROOT
BRANCH   1   2
ATOM      2  C   UNL     1       2.254   3.757  18.483  0.00  0.00    +0.000 A 
ATOM      3  N   UNL     1       2.314   5.021  18.981  0.00  0.00    +0.000 NA
ATOM      4  C   UNL     1       1.750   5.263  20.189  0.00  0.00    +0.000 A 
ATOM      5  C   UNL     1       1.812   6.667  20.708  0.00  0.00    +0.000 C 
ATOM      6  C   UNL     1       1.124   4.267  20.934  0.00  0.00    +0.000 A 
ATOM      7  C   UNL     1       1.081   2.973  20.426  0.00  0.00    +0.000 A 
ATOM      8  C   UNL     1       1.656   2.712  19.186  0.00  0.00    +0.000 A 
BRANCH   8   9
ATOM      9  O   UNL     1       1.629   1.454  18.661  0.00  0.00    +0.000 OA
ATOM     10  H   UNL     1       2.190   0.874  19.205  0.00  0.00    +0.000 HD
ENDBRANCH   8   9
ENDBRANCH   1   2
BRANCH   1  11
ATOM     11  C   UNL     1       4.322   3.125  17.174  0.00  0.00    +0.000 C 
BRANCH  11  15
ATOM     12  C   UNL     1       7.036   6.502  16.954  0.00  0.00    +0.000 A 
ATOM     13  C   UNL     1       5.926   6.427  16.115  0.00  0.00    +0.000 A 
ATOM     14  C   UNL     1       5.045   5.347  16.194  0.00  0.00    +0.000 A 
ATOM     15  C   UNL     1       5.277   4.300  17.096  0.00  0.00    +0.000 A 
ATOM     16  C   UNL     1       6.402   4.374  17.930  0.00  0.00    +0.000 A 
ATOM     17  C   UNL     1       7.276   5.468  17.859  0.00  0.00    +0.000 A 
BRANCH  12  19
ATOM     18  C   UNL     1       7.854   8.533  17.849  0.00  0.00    +0.000 C 
ATOM     19  O   UNL     1       7.827   7.602  16.772  0.00  0.00    +0.000 OA
ENDBRANCH  12  19
ENDBRANCH  11  15
ENDBRANCH   1  11
TORSDOF 5
ENDMDL
MODEL 8
REMARK VINA RESULT:      -6.5      2.128      6.064
REMARK  Name = 
REMARK  7 active torsions:
REMARK  status: ('A' for Active; 'I' for Inactive)
REMARK    1  A    between atoms: C_1  and  O_2
REMARK    2  A    between atoms: O_2  and  C_3
REMARK    3  A    between atoms: C_6  and  C_7
REMARK    4  A    between atoms: C_7  and  C_8
REMARK    5  A    between atoms: C_8  and  C_9
REMARK    6  A    between atoms: C_11  and  C_12
REMARK    7  A    between atoms: C_15  and  O_16
REMARK                            x       y       z     vdW  Elec       q    Type
REMARK                         _______ _______ _______ _____ _____    ______ ____
ROOT
ATOM      1  C   UNL     1       2.960   3.434  17.114  0.00  0.00    +0.000 C 
ENDROOT
BRANCH   1   2
ATOM      2  C   UNL     1       2.359   3.654  18.481  0.00  0.00    +0.000 A 
ATOM      3  N   UNL     1       2.353   4.938  18.932  0.00  0.00    +0.000 NA
ATOM      4  C   UNL     1       1.784   5.192  20.135  0.00  0.00    +0.000 A 
ATOM      5  C   UNL     1       1.772   6.616  20.601  0.00  0.00    +0.000 C 
ATOM      6  C   UNL     1       1.219   4.192  20.921  0.00  0.00    +0.000 A 
ATOM      7  C   UNL     1       1.244   2.880  20.461  0.00  0.00    +0.000 A 
ATOM      8  C   UNL     1       1.824   2.605  19.226  0.00  0.00    +0.000 A 
BRANCH   8   9
ATOM      9  O   UNL     1       1.863   1.329  18.749  0.00  0.00    +0.000 OA
ATOM     10  H   UNL     1       1.035   1.147  18.271  0.00  0.00    +0.000 HD
ENDBRANCH   8   9
ENDBRANCH   1   2
BRANCH   1  11
ATOM     11  C   UNL     1       4.472   3.199  17.170  0.00  0.00    +0.000 C 
BRANCH  11  15
ATOM     12  C   UNL     1       6.761   6.882  17.061  0.00  0.00    +0.000 A 
ATOM     13  C   UNL     1       7.149   5.828  17.887  0.00  0.00    +0.000 A 
ATOM     14  C   UNL     1       6.420   4.637  17.913  0.00  0.00    +0.000 A 
ATOM     15  C   UNL     1       5.264   4.490  17.134  0.00  0.00    +0.000 A 
ATOM     16  C   UNL     1       4.871   5.558  16.314  0.00  0.00    +0.000 A 
ATOM     17  C   UNL     1       5.615   6.746  16.278  0.00  0.00    +0.000 A 
BRANCH  12  19
ATOM     18  C   UNL     1       8.292   8.154  18.338  0.00  0.00    +0.000 C 
ATOM     19  O   UNL     1       7.550   7.996  17.134  0.00  0.00    +0.000 OA
ENDBRANCH  12  19
ENDBRANCH  11  15
ENDBRANCH   1  11
TORSDOF 5
ENDMDL
MODEL 9
REMARK VINA RESULT:      -6.5      3.680      8.134
REMARK  Name = 
REMARK  7 active torsions:
REMARK  status: ('A' for Active; 'I' for Inactive)
REMARK    1  A    between atoms: C_1  and  O_2
REMARK    2  A    between atoms: O_2  and  C_3
REMARK    3  A    between atoms: C_6  and  C_7
REMARK    4  A    between atoms: C_7  and  C_8
REMARK    5  A    between atoms: C_8  and  C_9
REMARK    6  A    between atoms: C_11  and  C_12
REMARK    7  A    between atoms: C_15  and  O_16
REMARK                            x       y       z     vdW  Elec       q    Type
REMARK                         _______ _______ _______ _____ _____    ______ ____
ROOT
ATOM      1  C   UNL     1       8.502   7.866  18.590  0.00  0.00    +0.000 C 
ENDROOT
BRANCH   1   2
ATOM      2  C   UNL     1       7.492   6.806  18.225  0.00  0.00    +0.000 A 
ATOM      3  N   UNL     1       6.853   6.973  17.035  0.00  0.00    +0.000 NA
ATOM      4  C   UNL     1       5.969   6.024  16.643  0.00  0.00    +0.000 A 
ATOM      5  C   UNL     1       5.293   6.220  15.321  0.00  0.00    +0.000 C 
ATOM      6  C   UNL     1       5.689   4.900  17.414  0.00  0.00    +0.000 A 
ATOM      7  C   UNL     1       6.333   4.744  18.637  0.00  0.00    +0.000 A 
ATOM      8  C   UNL     1       7.245   5.711  19.051  0.00  0.00    +0.000 A 
BRANCH   8   9
ATOM      9  O   UNL     1       7.893   5.586  20.244  0.00  0.00    +0.000 OA
ATOM     10  H   UNL     1       8.645   6.203  20.259  0.00  0.00    +0.000 HD
ENDBRANCH   8   9
ENDBRANCH   1   2
BRANCH   1  11
ATOM     11  C   UNL     1       8.189   9.220  17.947  0.00  0.00    +0.000 C 
BRANCH  11  15
ATOM     12  C   UNL     1      10.480  12.454  19.710  0.00  0.00    +0.000 A 
ATOM     13  C   UNL     1      10.043  11.384  20.490  0.00  0.00    +0.000 A 
ATOM     14  C   UNL     1       9.317  10.336  19.921  0.00  0.00    +0.000 A 
ATOM     15  C   UNL     1       8.983  10.356  18.560  0.00  0.00    +0.000 A 
ATOM     16  C   UNL     1       9.414  11.440  17.782  0.00  0.00    +0.000 A 
ATOM     17  C   UNL     1      10.157  12.482  18.353  0.00  0.00    +0.000 A 
BRANCH  12  19
ATOM     18  C   UNL     1      11.646  14.508  19.601  0.00  0.00    +0.000 C 
ATOM     19  O   UNL     1      11.171  13.420  20.386  0.00  0.00    +0.000 OA
ENDBRANCH  12  19
ENDBRANCH  11  15
ENDBRANCH   1  11
TORSDOF 5
ENDMDL
