MODEL 1
REMARK VINA RESULT:      -8.0      0.000      0.000
REMARK  Name = 
REMARK  8 active torsions:
REMARK  status: ('A' for Active; 'I' for Inactive)
REMARK    1  A    between atoms: C_1  and  O_2
REMARK    2  A    between atoms: O_2  and  C_3
REMARK    3  A    between atoms: C_7  and  C_8
REMARK    4  A    between atoms: C_11  and  C_12
REMARK    5  A    between atoms: C_16  and  O_17
REMARK    6  A    between atoms: O_17  and  C_18
REMARK    7  A    between atoms: C_19  and  O_20
REMARK    8  A    between atoms: O_20  and  C_21
REMARK                            x       y       z     vdW  Elec       q    Type
REMARK                         _______ _______ _______ _____ _____    ______ ____
ROOT
ATOM      1  C   UNL     1       6.516   4.447  16.213  0.00  0.00    +0.000 A 
ATOM      2  C   UNL     1       7.347   4.578  17.303  0.00  0.00    +0.000 A 
ATOM      3  N   UNL     1       6.615   4.659  18.461  0.00  0.00    +0.000 NA
ATOM      4  C   UNL     1       5.360   4.587  18.055  0.00  0.00    +0.000 A 
ATOM      5  O   UNL     1       5.233   4.423  16.689  0.00  0.00    +0.000 OA
ENDROOT
BRANCH   1  10
ATOM      6  C   UNL     1       6.078   3.501  12.597  0.00  0.00    +0.000 A 
ATOM      7  C   UNL     1       7.035   4.308  11.982  0.00  0.00    +0.000 A 
ATOM      8  C   UNL     1       7.826   5.171  12.743  0.00  0.00    +0.000 A 
ATOM      9  C   UNL     1       7.666   5.225  14.133  0.00  0.00    +0.000 A 
ATOM     10  C   UNL     1       6.707   4.428  14.769  0.00  0.00    +0.000 A 
ATOM     11  C   UNL     1       5.913   3.575  13.982  0.00  0.00    +0.000 A 
BRANCH   6  13
ATOM     12  C   UNL     1       4.150   3.192  11.243  0.00  0.00    +0.000 C 
ATOM     13  O   UNL     1       5.377   2.683  11.753  0.00  0.00    +0.000 OA
ENDBRANCH   6  13
ENDBRANCH   1  10
BRANCH   4  14
ATOM     14  C   UNL     1       4.103   4.781  18.790  0.00  0.00    +0.000 A 
ATOM     15  C   UNL     1       3.662   6.110  18.986  0.00  0.00    +0.000 A 
ATOM     16  C   UNL     1       2.513   6.389  19.713  0.00  0.00    +0.000 A 
ATOM     17  C   UNL     1       1.768   5.347  20.248  0.00  0.00    +0.000 A 
ATOM     18  C   UNL     1       2.158   4.013  20.062  0.00  0.00    +0.000 A 
ATOM     19  C   UNL     1       3.348   3.720  19.355  0.00  0.00    +0.000 A 
BRANCH  18  20
ATOM     20  O   UNL     1       1.415   2.984  20.584  0.00  0.00    +0.000 OA
ATOM     21  C   UNL     1       1.724   2.583  21.918  0.00  0.00    +0.000 C 
ENDBRANCH  18  20
BRANCH  19  22
ATOM     22  O   UNL     1       3.808   2.450  19.082  0.00  0.00    +0.000 OA
ATOM     23  C   UNL     1       3.206   1.735  18.008  0.00  0.00    +0.000 C 
ENDBRANCH  19  22
ENDBRANCH   4  14
TORSDOF 5
ENDMDL
MODEL 2
REMARK VINA RESULT:      -7.0      3.250      8.088
REMARK  Name = 
REMARK  8 active torsions:
REMARK  status: ('A' for Active; 'I' for Inactive)
REMARK    1  A    between atoms: C_1  and  O_2
REMARK    2  A    between atoms: O_2  and  C_3
REMARK    3  A    between atoms: C_7  and  C_8
REMARK    4  A    between atoms: C_11  and  C_12
REMARK    5  A    between atoms: C_16  and  O_17
REMARK    6  A    between atoms: O_17  and  C_18
REMARK    7  A    between atoms: C_19  and  O_20
REMARK    8  A    between atoms: O_20  and  C_21
REMARK                            x       y       z     vdW  Elec       q    Type
REMARK                         _______ _______ _______ _____ _____    ______ ____
ROOT
ATOM      1  C   UNL     1       2.222   6.861  20.248  0.00  0.00    +0.000 A 
ATOM      2  C   UNL     1       1.893   5.566  20.582  0.00  0.00    +0.000 A 
ATOM      3  N   UNL     1       2.842   4.691  20.116  0.00  0.00    +0.000 NA
ATOM      4  C   UNL     1       3.720   5.464  19.502  0.00  0.00    +0.000 A 
ATOM      5  O   UNL     1       3.414   6.810  19.576  0.00  0.00    +0.000 OA
ENDROOT
BRANCH   1  10
ATOM      6  C   UNL     1       0.538   9.841  21.811  0.00  0.00    +0.000 A 
ATOM      7  C   UNL     1       0.265  10.625  20.689  0.00  0.00    +0.000 A 
ATOM      8  C   UNL     1       0.635  10.189  19.416  0.00  0.00    +0.000 A 
ATOM      9  C   UNL     1       1.277   8.955  19.257  0.00  0.00    +0.000 A 
ATOM     10  C   UNL     1       1.565   8.156  20.371  0.00  0.00    +0.000 A 
ATOM     11  C   UNL     1       1.195   8.620  21.645  0.00  0.00    +0.000 A 
BRANCH   6  13
ATOM     12  C   UNL     1      -1.156  11.011  22.998  0.00  0.00    +0.000 C 
ATOM     13  O   UNL     1       0.111  10.362  23.002  0.00  0.00    +0.000 OA
ENDBRANCH   6  13
ENDBRANCH   1  10
BRANCH   4  14
ATOM     14  C   UNL     1       4.873   5.121  18.660  0.00  0.00    +0.000 A 
ATOM     15  C   UNL     1       6.155   5.483  19.134  0.00  0.00    +0.000 A 
ATOM     16  C   UNL     1       7.297   5.244  18.381  0.00  0.00    +0.000 A 
ATOM     17  C   UNL     1       7.187   4.623  17.144  0.00  0.00    +0.000 A 
ATOM     18  C   UNL     1       5.937   4.229  16.645  0.00  0.00    +0.000 A 
ATOM     19  C   UNL     1       4.764   4.503  17.387  0.00  0.00    +0.000 A 
BRANCH  18  20
ATOM     20  O   UNL     1       5.832   3.607  15.426  0.00  0.00    +0.000 OA
ATOM     21  C   UNL     1       6.537   4.203  14.338  0.00  0.00    +0.000 C 
ENDBRANCH  18  20
BRANCH  19  22
ATOM     22  O   UNL     1       3.492   4.131  17.011  0.00  0.00    +0.000 OA
ATOM     23  C   UNL     1       3.093   2.784  17.236  0.00  0.00    +0.000 C 
ENDBRANCH  19  22
ENDBRANCH   4  14
TORSDOF 5
ENDMDL
MODEL 3
REMARK VINA RESULT:      -7.0      1.697      2.338
REMARK  Name = 
REMARK  8 active torsions:
REMARK  status: ('A' for Active; 'I' for Inactive)
REMARK    1  A    between atoms: C_1  and  O_2
REMARK    2  A    between atoms: O_2  and  C_3
REMARK    3  A    between atoms: C_7  and  C_8
REMARK    4  A    between atoms: C_11  and  C_12
REMARK    5  A    between atoms: C_16  and  O_17
REMARK    6  A    between atoms: O_17  and  C_18
REMARK    7  A    between atoms: C_19  and  O_20
REMARK    8  A    between atoms: O_20  and  C_21
REMARK                            x       y       z     vdW  Elec       q    Type
REMARK                         _______ _______ _______ _____ _____    ______ ____
ROOT
ATOM      1  C   UNL     1       5.928   4.833  15.993  0.00  0.00    +0.000 A 
ATOM      2  C   UNL     1       6.496   4.562  17.218  0.00  0.00    +0.000 A 
ATOM      3  N   UNL     1       5.748   5.111  18.229  0.00  0.00    +0.000 NA
ATOM      4  C   UNL     1       4.751   5.711  17.604  0.00  0.00    +0.000 A 
ATOM      5  O   UNL     1       4.786   5.549  16.232  0.00  0.00    +0.000 OA
ENDROOT
BRANCH   1  10
ATOM      6  C   UNL     1       5.899   3.480  12.482  0.00  0.00    +0.000 A 
ATOM      7  C   UNL     1       7.016   4.110  11.934  0.00  0.00    +0.000 A 
ATOM      8  C   UNL     1       7.783   4.985  12.705  0.00  0.00    +0.000 A 
ATOM      9  C   UNL     1       7.438   5.230  14.039  0.00  0.00    +0.000 A 
ATOM     10  C   UNL     1       6.316   4.613  14.606  0.00  0.00    +0.000 A 
ATOM     11  C   UNL     1       5.551   3.745  13.808  0.00  0.00    +0.000 A 
BRANCH   6  13
ATOM     12  C   UNL     1       3.978   3.073  11.145  0.00  0.00    +0.000 C 
ATOM     13  O   UNL     1       5.237   2.630  11.637  0.00  0.00    +0.000 OA
ENDBRANCH   6  13
ENDBRANCH   1  10
BRANCH   4  14
ATOM     14  C   UNL     1       3.707   6.612  18.110  0.00  0.00    +0.000 A 
ATOM     15  C   UNL     1       3.393   7.748  17.330  0.00  0.00    +0.000 A 
ATOM     16  C   UNL     1       2.457   8.680  17.756  0.00  0.00    +0.000 A 
ATOM     17  C   UNL     1       1.799   8.491  18.963  0.00  0.00    +0.000 A 
ATOM     18  C   UNL     1       2.064   7.367  19.759  0.00  0.00    +0.000 A 
ATOM     19  C   UNL     1       3.045   6.432  19.353  0.00  0.00    +0.000 A 
BRANCH  18  20
ATOM     20  O   UNL     1       1.405   7.177  20.949  0.00  0.00    +0.000 OA
ATOM     21  C   UNL     1       0.671   8.288  21.460  0.00  0.00    +0.000 C 
ENDBRANCH  18  20
BRANCH  19  22
ATOM     22  O   UNL     1       3.361   5.278  20.035  0.00  0.00    +0.000 OA
ATOM     23  C   UNL     1       2.524   4.140  19.855  0.00  0.00    +0.000 C 
ENDBRANCH  19  22
ENDBRANCH   4  14
TORSDOF 5
ENDMDL
MODEL 4
REMARK VINA RESULT:      -6.8      4.969      7.407
REMARK  Name = 
REMARK  8 active torsions:
REMARK  status: ('A' for Active; 'I' for Inactive)
REMARK    1  A    between atoms: C_1  and  O_2
REMARK    2  A    between atoms: O_2  and  C_3
REMARK    3  A    between atoms: C_7  and  C_8
REMARK    4  A    between atoms: C_11  and  C_12
REMARK    5  A    between atoms: C_16  and  O_17
REMARK    6  A    between atoms: O_17  and  C_18
REMARK    7  A    between atoms: C_19  and  O_20
REMARK    8  A    between atoms: O_20  and  C_21
REMARK                            x       y       z     vdW  Elec       q    Type
REMARK                         _______ _______ _______ _____ _____    ______ ____
ROOT
ATOM      1  C   UNL     1       2.428   7.496  18.526  0.00  0.00    +0.000 A 
ATOM      2  C   UNL     1       2.199   8.556  17.676  0.00  0.00    +0.000 A 
ATOM      3  N   UNL     1       1.574   9.581  18.342  0.00  0.00    +0.000 NA
ATOM      4  C   UNL     1       1.426   9.124  19.572  0.00  0.00    +0.000 A 
ATOM      5  O   UNL     1       1.959   7.863  19.758  0.00  0.00    +0.000 OA
ENDROOT
BRANCH   1  10
ATOM      6  C   UNL     1       4.826   4.596  18.507  0.00  0.00    +0.000 A 
ATOM      7  C   UNL     1       4.006   3.562  18.055  0.00  0.00    +0.000 A 
ATOM      8  C   UNL     1       2.663   3.803  17.760  0.00  0.00    +0.000 A 
ATOM      9  C   UNL     1       2.133   5.090  17.909  0.00  0.00    +0.000 A 
ATOM     10  C   UNL     1       2.938   6.141  18.367  0.00  0.00    +0.000 A 
ATOM     11  C   UNL     1       4.284   5.873  18.670  0.00  0.00    +0.000 A 
BRANCH   6  13
ATOM     12  C   UNL     1       7.100   4.748  17.836  0.00  0.00    +0.000 C 
ATOM     13  O   UNL     1       6.127   4.245  18.745  0.00  0.00    +0.000 OA
ENDBRANCH   6  13
ENDBRANCH   1  10
BRANCH   4  14
ATOM     14  C   UNL     1       0.686   9.675  20.716  0.00  0.00    +0.000 A 
ATOM     15  C   UNL     1       0.294   8.774  21.732  0.00  0.00    +0.000 A 
ATOM     16  C   UNL     1      -0.452   9.198  22.824  0.00  0.00    +0.000 A 
ATOM     17  C   UNL     1      -0.810  10.535  22.934  0.00  0.00    +0.000 A 
ATOM     18  C   UNL     1      -0.425  11.466  21.959  0.00  0.00    +0.000 A 
ATOM     19  C   UNL     1       0.302  11.037  20.824  0.00  0.00    +0.000 A 
BRANCH  18  20
ATOM     20  O   UNL     1      -0.773  12.789  22.075  0.00  0.00    +0.000 OA
ATOM     21  C   UNL     1      -2.051  13.163  21.562  0.00  0.00    +0.000 C 
ENDBRANCH  18  20
BRANCH  19  22
ATOM     22  O   UNL     1       0.762  11.867  19.825  0.00  0.00    +0.000 OA
ATOM     23  C   UNL     1       1.842  12.744  20.125  0.00  0.00    +0.000 C 
ENDBRANCH  19  22
ENDBRANCH   4  14
TORSDOF 5
ENDMDL
MODEL 5
REMARK VINA RESULT:      -6.8      4.923      7.228
REMARK  Name = 
REMARK  8 active torsions:
REMARK  status: ('A' for Active; 'I' for Inactive)
REMARK    1  A    between atoms: C_1  and  O_2
REMARK    2  A    between atoms: O_2  and  C_3
REMARK    3  A    between atoms: C_7  and  C_8
REMARK    4  A    between atoms: C_11  and  C_12
REMARK    5  A    between atoms: C_16  and  O_17
REMARK    6  A    between atoms: O_17  and  C_18
REMARK    7  A    between atoms: C_19  and  O_20
REMARK    8  A    between atoms: O_20  and  C_21
REMARK                            x       y       z     vdW  Elec       q    Type
REMARK                         _______ _______ _______ _____ _____    ______ ____
ROOT
ATOM      1  C   UNL     1       2.371   7.549  18.482  0.00  0.00    +0.000 A 
ATOM      2  C   UNL     1       2.170   8.654  17.684  0.00  0.00    +0.000 A 
ATOM      3  N   UNL     1       1.560   9.657  18.395  0.00  0.00    +0.000 NA
ATOM      4  C   UNL     1       1.393   9.144  19.600  0.00  0.00    +0.000 A 
ATOM      5  O   UNL     1       1.899   7.864  19.728  0.00  0.00    +0.000 OA
ENDROOT
BRANCH   1  10
ATOM      6  C   UNL     1       4.749   4.658  18.101  0.00  0.00    +0.000 A 
ATOM      7  C   UNL     1       3.870   3.613  17.813  0.00  0.00    +0.000 A 
ATOM      8  C   UNL     1       2.496   3.844  17.746  0.00  0.00    +0.000 A 
ATOM      9  C   UNL     1       1.990   5.132  17.963  0.00  0.00    +0.000 A 
ATOM     10  C   UNL     1       2.854   6.193  18.260  0.00  0.00    +0.000 A 
ATOM     11  C   UNL     1       4.235   5.935  18.334  0.00  0.00    +0.000 A 
BRANCH   6  13
ATOM     12  C   UNL     1       6.887   4.854  17.083  0.00  0.00    +0.000 C 
ATOM     13  O   UNL     1       6.074   4.315  18.120  0.00  0.00    +0.000 OA
ENDBRANCH   6  13
ENDBRANCH   1  10
BRANCH   4  14
ATOM     14  C   UNL     1       0.655   9.653  20.764  0.00  0.00    +0.000 A 
ATOM     15  C   UNL     1       0.859   9.000  22.001  0.00  0.00    +0.000 A 
ATOM     16  C   UNL     1       0.166   9.380  23.142  0.00  0.00    +0.000 A 
ATOM     17  C   UNL     1      -0.736  10.434  23.078  0.00  0.00    +0.000 A 
ATOM     18  C   UNL     1      -0.954  11.123  21.877  0.00  0.00    +0.000 A 
ATOM     19  C   UNL     1      -0.282  10.717  20.700  0.00  0.00    +0.000 A 
BRANCH  18  20
ATOM     20  O   UNL     1      -1.840  12.170  21.817  0.00  0.00    +0.000 OA
ATOM     21  C   UNL     1      -2.819  12.241  22.853  0.00  0.00    +0.000 C 
ENDBRANCH  18  20
BRANCH  19  22
ATOM     22  O   UNL     1      -0.392  11.341  19.476  0.00  0.00    +0.000 OA
ATOM     23  C   UNL     1      -1.594  11.158  18.736  0.00  0.00    +0.000 C 
ENDBRANCH  19  22
ENDBRANCH   4  14
TORSDOF 5
ENDMDL
MODEL 6
REMARK VINA RESULT:      -6.8      4.386      8.824
REMARK  Name = 
REMARK  8 active torsions:
REMARK  status: ('A' for Active; 'I' for Inactive)
REMARK    1  A    between atoms: C_1  and  O_2
REMARK    2  A    between atoms: O_2  and  C_3
REMARK    3  A    between atoms: C_7  and  C_8
REMARK    4  A    between atoms: C_11  and  C_12
REMARK    5  A    between atoms: C_16  and  O_17
REMARK    6  A    between atoms: O_17  and  C_18
REMARK    7  A    between atoms: C_19  and  O_20
REMARK    8  A    between atoms: O_20  and  C_21
REMARK                            x       y       z     vdW  Elec       q    Type
REMARK                         _______ _______ _______ _____ _____    ______ ____
ROOT
ATOM      1  C   UNL     1       1.188   9.134  19.446  0.00  0.00    +0.000 A 
ATOM      2  C   UNL     1       1.389   9.680  18.196  0.00  0.00    +0.000 A 
ATOM      3  N   UNL     1       2.172   8.854  17.430  0.00  0.00    +0.000 NA
ATOM      4  C   UNL     1       2.440   7.834  18.225  0.00  0.00    +0.000 A 
ATOM      5  O   UNL     1       1.839   7.930  19.465  0.00  0.00    +0.000 OA
ENDROOT
BRANCH   1  10
ATOM      6  C   UNL     1      -0.800  11.262  21.828  0.00  0.00    +0.000 A 
ATOM      7  C   UNL     1      -0.661  10.548  23.019  0.00  0.00    +0.000 A 
ATOM      8  C   UNL     1       0.077   9.364  23.050  0.00  0.00    +0.000 A 
ATOM      9  C   UNL     1       0.691   8.890  21.885  0.00  0.00    +0.000 A 
ATOM     10  C   UNL     1       0.558   9.588  20.678  0.00  0.00    +0.000 A 
ATOM     11  C   UNL     1      -0.200  10.772  20.666  0.00  0.00    +0.000 A 
BRANCH   6  13
ATOM     12  C   UNL     1      -1.196  13.295  22.993  0.00  0.00    +0.000 C 
ATOM     13  O   UNL     1      -1.529  12.416  21.924  0.00  0.00    +0.000 OA
ENDBRANCH   6  13
ENDBRANCH   1  10
BRANCH   4  14
ATOM     14  C   UNL     1       3.362   6.703  18.053  0.00  0.00    +0.000 A 
ATOM     15  C   UNL     1       4.549   6.935  17.322  0.00  0.00    +0.000 A 
ATOM     16  C   UNL     1       5.452   5.912  17.066  0.00  0.00    +0.000 A 
ATOM     17  C   UNL     1       5.199   4.635  17.551  0.00  0.00    +0.000 A 
ATOM     18  C   UNL     1       4.044   4.365  18.298  0.00  0.00    +0.000 A 
ATOM     19  C   UNL     1       3.099   5.392  18.530  0.00  0.00    +0.000 A 
BRANCH  18  20
ATOM     20  O   UNL     1       3.800   3.104  18.784  0.00  0.00    +0.000 OA
ATOM     21  C   UNL     1       3.118   2.203  17.913  0.00  0.00    +0.000 C 
ENDBRANCH  18  20
BRANCH  19  22
ATOM     22  O   UNL     1       1.951   5.249  19.279  0.00  0.00    +0.000 OA
ATOM     23  C   UNL     1       2.086   4.987  20.671  0.00  0.00    +0.000 C 
ENDBRANCH  19  22
ENDBRANCH   4  14
TORSDOF 5
ENDMDL
MODEL 7
REMARK VINA RESULT:      -6.7      5.083      7.410
REMARK  Name = 
REMARK  8 active torsions:
REMARK  status: ('A' for Active; 'I' for Inactive)
REMARK    1  A    between atoms: C_1  and  O_2
REMARK    2  A    between atoms: O_2  and  C_3
REMARK    3  A    between atoms: C_7  and  C_8
REMARK    4  A    between atoms: C_11  and  C_12
REMARK    5  A    between atoms: C_16  and  O_17
REMARK    6  A    between atoms: O_17  and  C_18
REMARK    7  A    between atoms: C_19  and  O_20
REMARK    8  A    between atoms: O_20  and  C_21
REMARK                            x       y       z     vdW  Elec       q    Type
REMARK                         _______ _______ _______ _____ _____    ______ ____
ROOT
ATOM      1  C   UNL     1       2.330   7.758  18.385  0.00  0.00    +0.000 A 
ATOM      2  C   UNL     1       2.062   8.870  17.617  0.00  0.00    +0.000 A 
ATOM      3  N   UNL     1       1.426   9.830  18.364  0.00  0.00    +0.000 NA
ATOM      4  C   UNL     1       1.311   9.283  19.561  0.00  0.00    +0.000 A 
ATOM      5  O   UNL     1       1.875   8.025  19.648  0.00  0.00    +0.000 OA
ENDROOT
BRANCH   1  10
ATOM      6  C   UNL     1       2.454   4.043  17.798  0.00  0.00    +0.000 A 
ATOM      7  C   UNL     1       3.825   3.832  17.649  0.00  0.00    +0.000 A 
ATOM      8  C   UNL     1       4.718   4.902  17.734  0.00  0.00    +0.000 A 
ATOM      9  C   UNL     1       4.240   6.195  17.977  0.00  0.00    +0.000 A 
ATOM     10  C   UNL     1       2.867   6.429  18.122  0.00  0.00    +0.000 A 
ATOM     11  C   UNL     1       1.985   5.340  18.021  0.00  0.00    +0.000 A 
BRANCH   6  13
ATOM     12  C   UNL     1       0.920   2.579  18.869  0.00  0.00    +0.000 C 
ATOM     13  O   UNL     1       1.680   2.918  17.715  0.00  0.00    +0.000 OA
ENDBRANCH   6  13
ENDBRANCH   1  10
BRANCH   4  14
ATOM     14  C   UNL     1       0.579   9.734  20.752  0.00  0.00    +0.000 A 
ATOM     15  C   UNL     1       0.600   8.892  21.887  0.00  0.00    +0.000 A 
ATOM     16  C   UNL     1      -0.106   9.213  23.039  0.00  0.00    +0.000 A 
ATOM     17  C   UNL     1      -0.835  10.393  23.090  0.00  0.00    +0.000 A 
ATOM     18  C   UNL     1      -0.867  11.268  21.995  0.00  0.00    +0.000 A 
ATOM     19  C   UNL     1      -0.184  10.931  20.803  0.00  0.00    +0.000 A 
BRANCH  18  20
ATOM     20  O   UNL     1      -1.583  12.439  22.051  0.00  0.00    +0.000 OA
ATOM     21  C   UNL     1      -1.258  13.338  23.110  0.00  0.00    +0.000 C 
ENDBRANCH  18  20
BRANCH  19  22
ATOM     22  O   UNL     1      -0.118  11.728  19.682  0.00  0.00    +0.000 OA
ATOM     23  C   UNL     1       0.661  12.918  19.750  0.00  0.00    +0.000 C 
ENDBRANCH  19  22
ENDBRANCH   4  14
TORSDOF 5
ENDMDL
MODEL 8
REMARK VINA RESULT:      -6.7      3.136      7.599
REMARK  Name = 
REMARK  8 active torsions:
REMARK  status: ('A' for Active; 'I' for Inactive)
REMARK    1  A    between atoms: C_1  and  O_2
REMARK    2  A    between atoms: O_2  and  C_3
REMARK    3  A    between atoms: C_7  and  C_8
REMARK    4  A    between atoms: C_11  and  C_12
REMARK    5  A    between atoms: C_16  and  O_17
REMARK    6  A    between atoms: O_17  and  C_18
REMARK    7  A    between atoms: C_19  and  O_20
REMARK    8  A    between atoms: O_20  and  C_21
REMARK                            x       y       z     vdW  Elec       q    Type
REMARK                         _______ _______ _______ _____ _____    ______ ____
ROOT
ATOM      1  C   UNL     1       2.219   6.614  20.239  0.00  0.00    +0.000 A 
ATOM      2  C   UNL     1       1.991   5.315  20.637  0.00  0.00    +0.000 A 
ATOM      3  N   UNL     1       2.992   4.490  20.190  0.00  0.00    +0.000 NA
ATOM      4  C   UNL     1       3.800   5.295  19.524  0.00  0.00    +0.000 A 
ATOM      5  O   UNL     1       3.399   6.617  19.544  0.00  0.00    +0.000 OA
ENDROOT
BRANCH   1  10
ATOM      6  C   UNL     1       0.926  10.028  19.327  0.00  0.00    +0.000 A 
ATOM      7  C   UNL     1       0.092  10.306  20.411  0.00  0.00    +0.000 A 
ATOM      8  C   UNL     1      -0.058   9.378  21.443  0.00  0.00    +0.000 A 
ATOM      9  C   UNL     1       0.636   8.163  21.399  0.00  0.00    +0.000 A 
ATOM     10  C   UNL     1       1.472   7.862  20.318  0.00  0.00    +0.000 A 
ATOM     11  C   UNL     1       1.600   8.805  19.283  0.00  0.00    +0.000 A 
BRANCH   6  13
ATOM     12  C   UNL     1       1.105  12.353  18.875  0.00  0.00    +0.000 C 
ATOM     13  O   UNL     1       1.009  11.019  18.388  0.00  0.00    +0.000 OA
ENDBRANCH   6  13
ENDBRANCH   1  10
BRANCH   4  14
ATOM     14  C   UNL     1       4.960   4.997  18.673  0.00  0.00    +0.000 A 
ATOM     15  C   UNL     1       6.231   5.403  19.140  0.00  0.00    +0.000 A 
ATOM     16  C   UNL     1       7.376   5.208  18.379  0.00  0.00    +0.000 A 
ATOM     17  C   UNL     1       7.281   4.588  17.141  0.00  0.00    +0.000 A 
ATOM     18  C   UNL     1       6.043   4.151  16.648  0.00  0.00    +0.000 A 
ATOM     19  C   UNL     1       4.865   4.380  17.398  0.00  0.00    +0.000 A 
BRANCH  18  20
ATOM     20  O   UNL     1       5.952   3.530  15.427  0.00  0.00    +0.000 OA
ATOM     21  C   UNL     1       6.397   4.275  14.294  0.00  0.00    +0.000 C 
ENDBRANCH  18  20
BRANCH  19  22
ATOM     22  O   UNL     1       3.605   3.964  17.029  0.00  0.00    +0.000 OA
ATOM     23  C   UNL     1       3.225   2.625  17.330  0.00  0.00    +0.000 C 
ENDBRANCH  19  22
ENDBRANCH   4  14
TORSDOF 5
ENDMDL
MODEL 9
REMARK VINA RESULT:      -6.7      4.209      8.458
REMARK  Name = 
REMARK  8 active torsions:
REMARK  status: ('A' for Active; 'I' for Inactive)
REMARK    1  A    between atoms: C_1  and  O_2
REMARK    2  A    between atoms: O_2  and  C_3
REMARK    3  A    between atoms: C_7  and  C_8
REMARK    4  A    between atoms: C_11  and  C_12
REMARK    5  A    between atoms: C_16  and  O_17
REMARK    6  A    between atoms: O_17  and  C_18
REMARK    7  A    between atoms: C_19  and  O_20
REMARK    8  A    between atoms: O_20  and  C_21
REMARK                            x       y       z     vdW  Elec       q    Type
REMARK                         _______ _______ _______ _____ _____    ______ ____
ROOT
ATOM      1  C   UNL     1       1.397   8.935  19.285  0.00  0.00    +0.000 A 
ATOM      2  C   UNL     1       1.550   9.422  18.005  0.00  0.00    +0.000 A 
ATOM      3  N   UNL     1       2.381   8.609  17.276  0.00  0.00    +0.000 NA
ATOM      4  C   UNL     1       2.724   7.655  18.123  0.00  0.00    +0.000 A 
ATOM      5  O   UNL     1       2.127   7.780  19.363  0.00  0.00    +0.000 OA
ENDROOT
BRANCH   1  10
ATOM      6  C   UNL     1      -0.822  10.965  21.547  0.00  0.00    +0.000 A 
ATOM      7  C   UNL     1      -0.524  10.414  22.794  0.00  0.00    +0.000 A 
ATOM      8  C   UNL     1       0.399   9.372  22.903  0.00  0.00    +0.000 A 
ATOM      9  C   UNL     1       1.038   8.879  21.760  0.00  0.00    +0.000 A 
ATOM     10  C   UNL     1       0.748   9.413  20.498  0.00  0.00    +0.000 A 
ATOM     11  C   UNL     1      -0.194  10.453  20.409  0.00  0.00    +0.000 A 
BRANCH   6  13
ATOM     12  C   UNL     1      -2.135  12.505  20.303  0.00  0.00    +0.000 C 
ATOM     13  O   UNL     1      -1.726  11.992  21.566  0.00  0.00    +0.000 OA
ENDBRANCH   6  13
ENDBRANCH   1  10
BRANCH   4  14
ATOM     14  C   UNL     1       3.717   6.580  18.002  0.00  0.00    +0.000 A 
ATOM     15  C   UNL     1       5.012   6.937  17.560  0.00  0.00    +0.000 A 
ATOM     16  C   UNL     1       5.999   5.979  17.368  0.00  0.00    +0.000 A 
ATOM     17  C   UNL     1       5.721   4.644  17.629  0.00  0.00    +0.000 A 
ATOM     18  C   UNL     1       4.457   4.249  18.088  0.00  0.00    +0.000 A 
ATOM     19  C   UNL     1       3.433   5.211  18.250  0.00  0.00    +0.000 A 
BRANCH  18  20
ATOM     20  O   UNL     1       4.187   2.929  18.354  0.00  0.00    +0.000 OA
ATOM     21  C   UNL     1       4.379   2.494  19.699  0.00  0.00    +0.000 C 
ENDBRANCH  18  20
BRANCH  19  22
ATOM     22  O   UNL     1       2.168   4.942  18.726  0.00  0.00    +0.000 OA
ATOM     23  C   UNL     1       1.286   4.190  17.900  0.00  0.00    +0.000 C 
ENDBRANCH  19  22
ENDBRANCH   4  14
TORSDOF 5
ENDMDL
