MODEL 1
REMARK VINA RESULT:     -10.3      0.000      0.000
REMARK  Name = 
REMARK  6 active torsions:
REMARK  status: ('A' for Active; 'I' for Inactive)
REMARK    1  A    between atoms: C_2  and  O_23
REMARK    2  A    between atoms: N_3  and  C_4
REMARK    3  A    between atoms: C_4  and  C_5
REMARK    4  A    between atoms: C_14  and  C_15
REMARK    5  A    between atoms: O_23  and  C_24
REMARK    6  A    between atoms: C_24  and  C_25
REMARK                            x       y       z     vdW  Elec       q    Type
REMARK                         _______ _______ _______ _____ _____    ______ ____
ROOT
ATOM      1  C   UNL     1       5.739   5.325  17.202  0.00  0.00    +0.000 C 
ATOM      2  C   UNL     1       6.230   4.565  18.443  0.00  0.00    +0.000 C 
ATOM      3  N   UNL     1       5.236   3.747  19.126  0.00  0.00    +0.000 N 
ATOM      4  C   UNL     1       3.901   3.646  18.797  0.00  0.00    +0.000 A 
ATOM      5  C   UNL     1       3.288   2.397  19.013  0.00  0.00    +0.000 A 
ATOM      6  C   UNL     1       1.943   2.164  18.711  0.00  0.00    +0.000 A 
ATOM      7  C   UNL     1       1.177   3.185  18.168  0.00  0.00    +0.000 A 
ATOM      8  C   UNL     1       1.764   4.424  17.917  0.00  0.00    +0.000 A 
ATOM      9  C   UNL     1       3.119   4.670  18.237  0.00  0.00    +0.000 A 
ATOM     10  C   UNL     1       3.641   6.072  18.085  0.00  0.00    +0.000 C 
ATOM     11  N   UNL     1       4.805   6.393  17.611  0.00  0.00    +0.000 NA
ATOM     12  H   UNL     1       5.601   3.075  19.790  0.00  0.00    +0.000 HD
ENDROOT
BRANCH  10  13
ATOM     13  C   UNL     1       2.759   7.210  18.522  0.00  0.00    +0.000 A 
ATOM     14  C   UNL     1       2.529   8.282  17.646  0.00  0.00    +0.000 A 
ATOM     15  C   UNL     1       1.733   9.362  18.043  0.00  0.00    +0.000 A 
ATOM     16  C   UNL     1       1.158   9.382  19.313  0.00  0.00    +0.000 A 
ATOM     17  C   UNL     1       1.380   8.323  20.189  0.00  0.00    +0.000 A 
ATOM     18  C   UNL     1       2.186   7.256  19.798  0.00  0.00    +0.000 A 
ATOM     19  F   UNL     1       2.399   6.285  20.698  0.00  0.00    +0.000 F 
ENDBRANCH  10  13
BRANCH   1  20
ATOM     20  C   UNL     1       6.953   5.994  16.493  0.00  0.00    +0.000 C 
BRANCH  20  23
ATOM     21  O   UNL     1       8.400   7.054  18.720  0.00  0.00    +0.000 OA
ATOM     22  C   UNL     1       7.911   7.807  17.890  0.00  0.00    +0.000 C 
ATOM     23  N   UNL     1       7.179   7.401  16.803  0.00  0.00    +0.000 N 
ATOM     24  H   UNL     1       7.008   8.109  16.109  0.00  0.00    +0.000 HD
BRANCH  22  25
ATOM     25  O   UNL     1       7.995   9.160  17.922  0.00  0.00    +0.000 OA
BRANCH  25  26
ATOM     26  C   UNL     1       8.880   9.714  18.915  0.00  0.00    +0.000 C 
BRANCH  26  27
ATOM     27  C   UNL     1       9.472  10.993  18.377  0.00  0.00    +0.000 A 
ATOM     28  C   UNL     1       8.651  12.038  17.926  0.00  0.00    +0.000 A 
ATOM     29  C   UNL     1       9.211  13.196  17.381  0.00  0.00    +0.000 A 
ATOM     30  C   UNL     1      10.596  13.325  17.288  0.00  0.00    +0.000 A 
ATOM     31  C   UNL     1      11.422  12.302  17.747  0.00  0.00    +0.000 A 
ATOM     32  C   UNL     1      10.864  11.141  18.290  0.00  0.00    +0.000 A 
ENDBRANCH  26  27
ENDBRANCH  25  26
ENDBRANCH  22  25
ENDBRANCH  20  23
ENDBRANCH   1  20
TORSDOF 6
ENDMDL
MODEL 2
REMARK VINA RESULT:     -10.0      0.848      1.220
REMARK  Name = 
REMARK  6 active torsions:
REMARK  status: ('A' for Active; 'I' for Inactive)
REMARK    1  A    between atoms: C_2  and  O_23
REMARK    2  A    between atoms: N_3  and  C_4
REMARK    3  A    between atoms: C_4  and  C_5
REMARK    4  A    between atoms: C_14  and  C_15
REMARK    5  A    between atoms: O_23  and  C_24
REMARK    6  A    between atoms: C_24  and  C_25
REMARK                            x       y       z     vdW  Elec       q    Type
REMARK                         _______ _______ _______ _____ _____    ______ ____
ROOT
ATOM      1  C   UNL     1       5.659   5.305  17.258  0.00  0.00    +0.000 C 
ATOM      2  C   UNL     1       6.213   4.483  18.432  0.00  0.00    +0.000 C 
ATOM      3  N   UNL     1       5.256   3.627  19.121  0.00  0.00    +0.000 N 
ATOM      4  C   UNL     1       3.906   3.538  18.854  0.00  0.00    +0.000 A 
ATOM      5  C   UNL     1       3.306   2.277  19.036  0.00  0.00    +0.000 A 
ATOM      6  C   UNL     1       1.948   2.055  18.791  0.00  0.00    +0.000 A 
ATOM      7  C   UNL     1       1.154   3.100  18.342  0.00  0.00    +0.000 A 
ATOM      8  C   UNL     1       1.726   4.353  18.127  0.00  0.00    +0.000 A 
ATOM      9  C   UNL     1       3.096   4.587  18.390  0.00  0.00    +0.000 A 
ATOM     10  C   UNL     1       3.608   5.997  18.286  0.00  0.00    +0.000 C 
ATOM     11  N   UNL     1       4.746   6.346  17.770  0.00  0.00    +0.000 NA
ATOM     12  H   UNL     1       5.655   2.922  19.729  0.00  0.00    +0.000 HD
ENDROOT
BRANCH  10  13
ATOM     13  C   UNL     1       2.748   7.107  18.825  0.00  0.00    +0.000 A 
ATOM     14  C   UNL     1       2.280   7.038  20.146  0.00  0.00    +0.000 A 
ATOM     15  C   UNL     1       1.457   8.048  20.659  0.00  0.00    +0.000 A 
ATOM     16  C   UNL     1       1.098   9.134  19.862  0.00  0.00    +0.000 A 
ATOM     17  C   UNL     1       1.558   9.211  18.550  0.00  0.00    +0.000 A 
ATOM     18  C   UNL     1       2.363   8.197  18.036  0.00  0.00    +0.000 A 
ATOM     19  F   UNL     1       2.743   8.304  16.755  0.00  0.00    +0.000 F 
ENDBRANCH  10  13
BRANCH   1  20
ATOM     20  C   UNL     1       6.835   6.014  16.525  0.00  0.00    +0.000 C 
BRANCH  20  23
ATOM     21  O   UNL     1       8.420   7.018  18.683  0.00  0.00    +0.000 OA
ATOM     22  C   UNL     1       7.858   7.792  17.921  0.00  0.00    +0.000 C 
ATOM     23  N   UNL     1       7.056   7.413  16.874  0.00  0.00    +0.000 N 
ATOM     24  H   UNL     1       6.821   8.143  16.224  0.00  0.00    +0.000 HD
BRANCH  22  25
ATOM     25  O   UNL     1       7.918   9.144  18.002  0.00  0.00    +0.000 OA
BRANCH  25  26
ATOM     26  C   UNL     1       8.846   9.678  18.966  0.00  0.00    +0.000 C 
BRANCH  26  27
ATOM     27  C   UNL     1       9.436  10.953  18.416  0.00  0.00    +0.000 A 
ATOM     28  C   UNL     1       8.614  12.021  18.025  0.00  0.00    +0.000 A 
ATOM     29  C   UNL     1       9.169  13.176  17.468  0.00  0.00    +0.000 A 
ATOM     30  C   UNL     1      10.550  13.279  17.304  0.00  0.00    +0.000 A 
ATOM     31  C   UNL     1      11.377  12.232  17.704  0.00  0.00    +0.000 A 
ATOM     32  C   UNL     1      10.824  11.075  18.258  0.00  0.00    +0.000 A 
ENDBRANCH  26  27
ENDBRANCH  25  26
ENDBRANCH  22  25
ENDBRANCH  20  23
ENDBRANCH   1  20
TORSDOF 6
ENDMDL
MODEL 3
REMARK VINA RESULT:      -9.8      0.831      1.136
REMARK  Name = 
REMARK  6 active torsions:
REMARK  status: ('A' for Active; 'I' for Inactive)
REMARK    1  A    between atoms: C_2  and  O_23
REMARK    2  A    between atoms: N_3  and  C_4
REMARK    3  A    between atoms: C_4  and  C_5
REMARK    4  A    between atoms: C_14  and  C_15
REMARK    5  A    between atoms: O_23  and  C_24
REMARK    6  A    between atoms: C_24  and  C_25
REMARK                            x       y       z     vdW  Elec       q    Type
REMARK                         _______ _______ _______ _____ _____    ______ ____
ROOT
ATOM      1  C   UNL     1       5.772   5.417  17.287  0.00  0.00    +0.000 C 
ATOM      2  C   UNL     1       6.259   4.590  18.487  0.00  0.00    +0.000 C 
ATOM      3  N   UNL     1       5.271   3.712  19.101  0.00  0.00    +0.000 N 
ATOM      4  C   UNL     1       3.943   3.607  18.744  0.00  0.00    +0.000 A 
ATOM      5  C   UNL     1       3.352   2.335  18.871  0.00  0.00    +0.000 A 
ATOM      6  C   UNL     1       2.017   2.096  18.533  0.00  0.00    +0.000 A 
ATOM      7  C   UNL     1       1.239   3.134  18.042  0.00  0.00    +0.000 A 
ATOM      8  C   UNL     1       1.805   4.398  17.879  0.00  0.00    +0.000 A 
ATOM      9  C   UNL     1       3.150   4.649  18.237  0.00  0.00    +0.000 A 
ATOM     10  C   UNL     1       3.646   6.067  18.181  0.00  0.00    +0.000 C 
ATOM     11  N   UNL     1       4.811   6.439  17.747  0.00  0.00    +0.000 NA
ATOM     12  H   UNL     1       5.639   3.007  19.728  0.00  0.00    +0.000 HD
ENDROOT
BRANCH  10  13
ATOM     13  C   UNL     1       2.735   7.159  18.673  0.00  0.00    +0.000 A 
ATOM     14  C   UNL     1       2.482   8.269  17.854  0.00  0.00    +0.000 A 
ATOM     15  C   UNL     1       1.658   9.307  18.304  0.00  0.00    +0.000 A 
ATOM     16  C   UNL     1       1.079   9.246  19.571  0.00  0.00    +0.000 A 
ATOM     17  C   UNL     1       1.324   8.148  20.391  0.00  0.00    +0.000 A 
ATOM     18  C   UNL     1       2.157   7.123  19.948  0.00  0.00    +0.000 A 
ATOM     19  F   UNL     1       2.391   6.111  20.796  0.00  0.00    +0.000 F 
ENDBRANCH  10  13
BRANCH   1  20
ATOM     20  C   UNL     1       6.983   6.152  16.642  0.00  0.00    +0.000 C 
BRANCH  20  23
ATOM     21  O   UNL     1       8.483   7.273  18.804  0.00  0.00    +0.000 OA
ATOM     22  C   UNL     1       7.889   8.003  18.023  0.00  0.00    +0.000 C 
ATOM     23  N   UNL     1       7.123   7.565  16.972  0.00  0.00    +0.000 N 
ATOM     24  H   UNL     1       6.858   8.272  16.308  0.00  0.00    +0.000 HD
BRANCH  22  25
ATOM     25  O   UNL     1       7.875   9.358  18.083  0.00  0.00    +0.000 OA
BRANCH  25  26
ATOM     26  C   UNL     1       9.005  10.028  17.490  0.00  0.00    +0.000 C 
BRANCH  26  27
ATOM     27  C   UNL     1       9.737  10.788  18.567  0.00  0.00    +0.000 A 
ATOM     28  C   UNL     1       9.285  10.779  19.896  0.00  0.00    +0.000 A 
ATOM     29  C   UNL     1       9.941  11.530  20.875  0.00  0.00    +0.000 A 
ATOM     30  C   UNL     1      11.060  12.291  20.538  0.00  0.00    +0.000 A 
ATOM     31  C   UNL     1      11.529  12.295  19.226  0.00  0.00    +0.000 A 
ATOM     32  C   UNL     1      10.872  11.547  18.245  0.00  0.00    +0.000 A 
ENDBRANCH  26  27
ENDBRANCH  25  26
ENDBRANCH  22  25
ENDBRANCH  20  23
ENDBRANCH   1  20
TORSDOF 6
ENDMDL
MODEL 4
REMARK VINA RESULT:      -9.7      1.149      1.644
REMARK  Name = 
REMARK  6 active torsions:
REMARK  status: ('A' for Active; 'I' for Inactive)
REMARK    1  A    between atoms: C_2  and  O_23
REMARK    2  A    between atoms: N_3  and  C_4
REMARK    3  A    between atoms: C_4  and  C_5
REMARK    4  A    between atoms: C_14  and  C_15
REMARK    5  A    between atoms: O_23  and  C_24
REMARK    6  A    between atoms: C_24  and  C_25
REMARK                            x       y       z     vdW  Elec       q    Type
REMARK                         _______ _______ _______ _____ _____    ______ ____
ROOT
ATOM      1  C   UNL     1       5.650   5.444  17.305  0.00  0.00    +0.000 C 
ATOM      2  C   UNL     1       6.219   4.554  18.422  0.00  0.00    +0.000 C 
ATOM      3  N   UNL     1       5.279   3.630  19.043  0.00  0.00    +0.000 N 
ATOM      4  C   UNL     1       3.933   3.528  18.762  0.00  0.00    +0.000 A 
ATOM      5  C   UNL     1       3.362   2.243  18.851  0.00  0.00    +0.000 A 
ATOM      6  C   UNL     1       2.012   2.007  18.582  0.00  0.00    +0.000 A 
ATOM      7  C   UNL     1       1.194   3.061  18.202  0.00  0.00    +0.000 A 
ATOM      8  C   UNL     1       1.737   4.340  18.079  0.00  0.00    +0.000 A 
ATOM      9  C   UNL     1       3.100   4.587  18.367  0.00  0.00    +0.000 A 
ATOM     10  C   UNL     1       3.578   6.013  18.365  0.00  0.00    +0.000 C 
ATOM     11  N   UNL     1       4.710   6.424  17.882  0.00  0.00    +0.000 NA
ATOM     12  H   UNL     1       5.692   2.894  19.603  0.00  0.00    +0.000 HD
ENDROOT
BRANCH  10  13
ATOM     13  C   UNL     1       2.689   7.062  18.976  0.00  0.00    +0.000 A 
ATOM     14  C   UNL     1       2.228   6.896  20.290  0.00  0.00    +0.000 A 
ATOM     15  C   UNL     1       1.379   7.847  20.868  0.00  0.00    +0.000 A 
ATOM     16  C   UNL     1       0.986   8.970  20.142  0.00  0.00    +0.000 A 
ATOM     17  C   UNL     1       1.438   9.144  18.837  0.00  0.00    +0.000 A 
ATOM     18  C   UNL     1       2.271   8.188  18.258  0.00  0.00    +0.000 A 
ATOM     19  F   UNL     1       2.642   8.387  16.985  0.00  0.00    +0.000 F 
ENDBRANCH  10  13
BRANCH   1  20
ATOM     20  C   UNL     1       6.812   6.230  16.630  0.00  0.00    +0.000 C 
BRANCH  20  23
ATOM     21  O   UNL     1       8.479   7.251  18.718  0.00  0.00    +0.000 OA
ATOM     22  C   UNL     1       7.807   8.015  18.038  0.00  0.00    +0.000 C 
ATOM     23  N   UNL     1       6.958   7.624  17.033  0.00  0.00    +0.000 N 
ATOM     24  H   UNL     1       6.624   8.364  16.439  0.00  0.00    +0.000 HD
BRANCH  22  25
ATOM     25  O   UNL     1       7.777   9.363  18.182  0.00  0.00    +0.000 OA
BRANCH  25  26
ATOM     26  C   UNL     1       8.793  10.096  17.472  0.00  0.00    +0.000 C 
BRANCH  26  27
ATOM     27  C   UNL     1       9.685  10.785  18.474  0.00  0.00    +0.000 A 
ATOM     28  C   UNL     1       9.343  10.832  19.835  0.00  0.00    +0.000 A 
ATOM     29  C   UNL     1      10.151  11.519  20.746  0.00  0.00    +0.000 A 
ATOM     30  C   UNL     1      11.310  12.158  20.309  0.00  0.00    +0.000 A 
ATOM     31  C   UNL     1      11.669  12.103  18.964  0.00  0.00    +0.000 A 
ATOM     32  C   UNL     1      10.861  11.420  18.051  0.00  0.00    +0.000 A 
ENDBRANCH  26  27
ENDBRANCH  25  26
ENDBRANCH  22  25
ENDBRANCH  20  23
ENDBRANCH   1  20
TORSDOF 6
ENDMDL
MODEL 5
REMARK VINA RESULT:      -9.5      0.811      1.193
REMARK  Name = 
REMARK  6 active torsions:
REMARK  status: ('A' for Active; 'I' for Inactive)
REMARK    1  A    between atoms: C_2  and  O_23
REMARK    2  A    between atoms: N_3  and  C_4
REMARK    3  A    between atoms: C_4  and  C_5
REMARK    4  A    between atoms: C_14  and  C_15
REMARK    5  A    between atoms: O_23  and  C_24
REMARK    6  A    between atoms: C_24  and  C_25
REMARK                            x       y       z     vdW  Elec       q    Type
REMARK                         _______ _______ _______ _____ _____    ______ ____
ROOT
ATOM      1  C   UNL     1       5.811   5.391  17.289  0.00  0.00    +0.000 C 
ATOM      2  C   UNL     1       6.258   4.602  18.529  0.00  0.00    +0.000 C 
ATOM      3  N   UNL     1       5.241   3.770  19.158  0.00  0.00    +0.000 N 
ATOM      4  C   UNL     1       3.918   3.677  18.779  0.00  0.00    +0.000 A 
ATOM      5  C   UNL     1       3.298   2.422  18.945  0.00  0.00    +0.000 A 
ATOM      6  C   UNL     1       1.965   2.197  18.591  0.00  0.00    +0.000 A 
ATOM      7  C   UNL     1       1.218   3.230  18.045  0.00  0.00    +0.000 A 
ATOM      8  C   UNL     1       1.813   4.475  17.843  0.00  0.00    +0.000 A 
ATOM      9  C   UNL     1       3.156   4.713  18.216  0.00  0.00    +0.000 A 
ATOM     10  C   UNL     1       3.682   6.118  18.115  0.00  0.00    +0.000 C 
ATOM     11  N   UNL     1       4.862   6.449  17.689  0.00  0.00    +0.000 NA
ATOM     12  H   UNL     1       5.583   3.082  19.819  0.00  0.00    +0.000 HD
ENDROOT
BRANCH  10  13
ATOM     13  C   UNL     1       2.785   7.246  18.546  0.00  0.00    +0.000 A 
ATOM     14  C   UNL     1       2.570   8.328  17.679  0.00  0.00    +0.000 A 
ATOM     15  C   UNL     1       1.759   9.399  18.072  0.00  0.00    +0.000 A 
ATOM     16  C   UNL     1       1.156   9.400  19.329  0.00  0.00    +0.000 A 
ATOM     17  C   UNL     1       1.364   8.331  20.196  0.00  0.00    +0.000 A 
ATOM     18  C   UNL     1       2.183   7.273  19.810  0.00  0.00    +0.000 A 
ATOM     19  F   UNL     1       2.380   6.291  20.701  0.00  0.00    +0.000 F 
ENDBRANCH  10  13
BRANCH   1  20
ATOM     20  C   UNL     1       7.049   6.075  16.638  0.00  0.00    +0.000 C 
BRANCH  20  23
ATOM     21  O   UNL     1       8.475   7.301  18.793  0.00  0.00    +0.000 OA
ATOM     22  C   UNL     1       7.925   7.992  17.946  0.00  0.00    +0.000 C 
ATOM     23  N   UNL     1       7.196   7.504  16.892  0.00  0.00    +0.000 N 
ATOM     24  H   UNL     1       6.969   8.174  16.177  0.00  0.00    +0.000 HD
BRANCH  22  25
ATOM     25  O   UNL     1       7.929   9.349  17.928  0.00  0.00    +0.000 OA
BRANCH  25  26
ATOM     26  C   UNL     1       9.211   9.979  18.108  0.00  0.00    +0.000 C 
BRANCH  26  27
ATOM     27  C   UNL     1       8.993  11.412  18.526  0.00  0.00    +0.000 A 
ATOM     28  C   UNL     1       9.287  11.838  19.830  0.00  0.00    +0.000 A 
ATOM     29  C   UNL     1       9.031  13.156  20.221  0.00  0.00    +0.000 A 
ATOM     30  C   UNL     1       8.487  14.061  19.310  0.00  0.00    +0.000 A 
ATOM     31  C   UNL     1       8.207  13.653  18.008  0.00  0.00    +0.000 A 
ATOM     32  C   UNL     1       8.459  12.336  17.616  0.00  0.00    +0.000 A 
ENDBRANCH  26  27
ENDBRANCH  25  26
ENDBRANCH  22  25
ENDBRANCH  20  23
ENDBRANCH   1  20
TORSDOF 6
ENDMDL
MODEL 6
REMARK VINA RESULT:      -9.3      1.178      1.590
REMARK  Name = 
REMARK  6 active torsions:
REMARK  status: ('A' for Active; 'I' for Inactive)
REMARK    1  A    between atoms: C_2  and  O_23
REMARK    2  A    between atoms: N_3  and  C_4
REMARK    3  A    between atoms: C_4  and  C_5
REMARK    4  A    between atoms: C_14  and  C_15
REMARK    5  A    between atoms: O_23  and  C_24
REMARK    6  A    between atoms: C_24  and  C_25
REMARK                            x       y       z     vdW  Elec       q    Type
REMARK                         _______ _______ _______ _____ _____    ______ ____
ROOT
ATOM      1  C   UNL     1       5.484   5.240  17.255  0.00  0.00    +0.000 C 
ATOM      2  C   UNL     1       6.078   4.405  18.399  0.00  0.00    +0.000 C 
ATOM      3  N   UNL     1       5.143   3.548  19.117  0.00  0.00    +0.000 N 
ATOM      4  C   UNL     1       3.783   3.470  18.902  0.00  0.00    +0.000 A 
ATOM      5  C   UNL     1       3.183   2.210  19.096  0.00  0.00    +0.000 A 
ATOM      6  C   UNL     1       1.815   1.998  18.902  0.00  0.00    +0.000 A 
ATOM      7  C   UNL     1       1.010   3.051  18.493  0.00  0.00    +0.000 A 
ATOM      8  C   UNL     1       1.582   4.303  18.266  0.00  0.00    +0.000 A 
ATOM      9  C   UNL     1       2.962   4.527  18.479  0.00  0.00    +0.000 A 
ATOM     10  C   UNL     1       3.478   5.935  18.366  0.00  0.00    +0.000 C 
ATOM     11  N   UNL     1       4.597   6.282  17.810  0.00  0.00    +0.000 NA
ATOM     12  H   UNL     1       5.561   2.836  19.704  0.00  0.00    +0.000 HD
ENDROOT
BRANCH  10  13
ATOM     13  C   UNL     1       2.646   7.045  18.948  0.00  0.00    +0.000 A 
ATOM     14  C   UNL     1       2.187   6.944  20.270  0.00  0.00    +0.000 A 
ATOM     15  C   UNL     1       1.390   7.954  20.822  0.00  0.00    +0.000 A 
ATOM     16  C   UNL     1       1.048   9.072  20.062  0.00  0.00    +0.000 A 
ATOM     17  C   UNL     1       1.498   9.181  18.750  0.00  0.00    +0.000 A 
ATOM     18  C   UNL     1       2.278   8.167  18.197  0.00  0.00    +0.000 A 
ATOM     19  F   UNL     1       2.650   8.307  16.916  0.00  0.00    +0.000 F 
ENDBRANCH  10  13
BRANCH   1  20
ATOM     20  C   UNL     1       6.635   5.949  16.482  0.00  0.00    +0.000 C 
BRANCH  20  23
ATOM     21  O   UNL     1       8.262   6.918  18.625  0.00  0.00    +0.000 OA
ATOM     22  C   UNL     1       7.700   7.704  17.875  0.00  0.00    +0.000 C 
ATOM     23  N   UNL     1       6.879   7.342  16.837  0.00  0.00    +0.000 N 
ATOM     24  H   UNL     1       6.646   8.080  16.195  0.00  0.00    +0.000 HD
BRANCH  22  25
ATOM     25  O   UNL     1       7.780   9.055  17.964  0.00  0.00    +0.000 OA
BRANCH  25  26
ATOM     26  C   UNL     1       9.110   9.609  17.981  0.00  0.00    +0.000 C 
BRANCH  26  27
ATOM     27  C   UNL     1       9.071  10.942  18.685  0.00  0.00    +0.000 A 
ATOM     28  C   UNL     1       8.713  12.113  17.999  0.00  0.00    +0.000 A 
ATOM     29  C   UNL     1       8.733  13.350  18.648  0.00  0.00    +0.000 A 
ATOM     30  C   UNL     1       9.102  13.428  19.991  0.00  0.00    +0.000 A 
ATOM     31  C   UNL     1       9.442  12.271  20.687  0.00  0.00    +0.000 A 
ATOM     32  C   UNL     1       9.426  11.033  20.038  0.00  0.00    +0.000 A 
ENDBRANCH  26  27
ENDBRANCH  25  26
ENDBRANCH  22  25
ENDBRANCH  20  23
ENDBRANCH   1  20
TORSDOF 6
ENDMDL
MODEL 7
REMARK VINA RESULT:      -9.2      3.672      5.992
REMARK  Name = 
REMARK  6 active torsions:
REMARK  status: ('A' for Active; 'I' for Inactive)
REMARK    1  A    between atoms: C_2  and  O_23
REMARK    2  A    between atoms: N_3  and  C_4
REMARK    3  A    between atoms: C_4  and  C_5
REMARK    4  A    between atoms: C_14  and  C_15
REMARK    5  A    between atoms: O_23  and  C_24
REMARK    6  A    between atoms: C_24  and  C_25
REMARK                            x       y       z     vdW  Elec       q    Type
REMARK                         _______ _______ _______ _____ _____    ______ ____
ROOT
ATOM      1  C   UNL     1       5.706   5.077  17.962  0.00  0.00    +0.000 C 
ATOM      2  C   UNL     1       5.917   4.318  19.281  0.00  0.00    +0.000 C 
ATOM      3  N   UNL     1       4.765   3.583  19.786  0.00  0.00    +0.000 N 
ATOM      4  C   UNL     1       3.505   3.559  19.225  0.00  0.00    +0.000 A 
ATOM      5  C   UNL     1       2.781   2.357  19.345  0.00  0.00    +0.000 A 
ATOM      6  C   UNL     1       1.498   2.203  18.811  0.00  0.00    +0.000 A 
ATOM      7  C   UNL     1       0.911   3.257  18.127  0.00  0.00    +0.000 A 
ATOM      8  C   UNL     1       1.615   4.450  17.968  0.00  0.00    +0.000 A 
ATOM      9  C   UNL     1       2.905   4.617  18.522  0.00  0.00    +0.000 A 
ATOM     10  C   UNL     1       3.539   5.978  18.447  0.00  0.00    +0.000 C 
ATOM     11  N   UNL     1       4.788   6.212  18.183  0.00  0.00    +0.000 NA
ATOM     12  H   UNL     1       4.960   2.906  20.514  0.00  0.00    +0.000 HD
ENDROOT
BRANCH  10  13
ATOM     13  C   UNL     1       2.673   7.181  18.704  0.00  0.00    +0.000 A 
ATOM     14  C   UNL     1       2.550   8.168  17.715  0.00  0.00    +0.000 A 
ATOM     15  C   UNL     1       1.769   9.307  17.945  0.00  0.00    +0.000 A 
ATOM     16  C   UNL     1       1.104   9.469  19.160  0.00  0.00    +0.000 A 
ATOM     17  C   UNL     1       1.219   8.494  20.147  0.00  0.00    +0.000 A 
ATOM     18  C   UNL     1       2.009   7.369  19.922  0.00  0.00    +0.000 A 
ATOM     19  F   UNL     1       2.116   6.484  20.924  0.00  0.00    +0.000 F 
ENDBRANCH  10  13
BRANCH   1  20
ATOM     20  C   UNL     1       7.069   5.649  17.472  0.00  0.00    +0.000 C 
BRANCH  20  23
ATOM     21  O   UNL     1       6.038   5.964  14.823  0.00  0.00    +0.000 OA
ATOM     22  C   UNL     1       7.046   5.299  15.016  0.00  0.00    +0.000 C 
ATOM     23  N   UNL     1       7.604   5.065  16.248  0.00  0.00    +0.000 N 
ATOM     24  H   UNL     1       8.528   4.668  16.234  0.00  0.00    +0.000 HD
BRANCH  22  25
ATOM     25  O   UNL     1       7.758   4.668  14.049  0.00  0.00    +0.000 OA
BRANCH  25  26
ATOM     26  C   UNL     1       7.344   4.922  12.693  0.00  0.00    +0.000 C 
BRANCH  26  27
ATOM     27  C   UNL     1       6.765   3.654  12.117  0.00  0.00    +0.000 A 
ATOM     28  C   UNL     1       7.595   2.662  11.572  0.00  0.00    +0.000 A 
ATOM     29  C   UNL     1       7.044   1.516  10.992  0.00  0.00    +0.000 A 
ATOM     30  C   UNL     1       5.661   1.346  10.960  0.00  0.00    +0.000 A 
ATOM     31  C   UNL     1       4.828   2.315  11.513  0.00  0.00    +0.000 A 
ATOM     32  C   UNL     1       5.376   3.464  12.090  0.00  0.00    +0.000 A 
ENDBRANCH  26  27
ENDBRANCH  25  26
ENDBRANCH  22  25
ENDBRANCH  20  23
ENDBRANCH   1  20
TORSDOF 6
ENDMDL
MODEL 8
REMARK VINA RESULT:      -9.1      1.375      1.833
REMARK  Name = 
REMARK  6 active torsions:
REMARK  status: ('A' for Active; 'I' for Inactive)
REMARK    1  A    between atoms: C_2  and  O_23
REMARK    2  A    between atoms: N_3  and  C_4
REMARK    3  A    between atoms: C_4  and  C_5
REMARK    4  A    between atoms: C_14  and  C_15
REMARK    5  A    between atoms: O_23  and  C_24
REMARK    6  A    between atoms: C_24  and  C_25
REMARK                            x       y       z     vdW  Elec       q    Type
REMARK                         _______ _______ _______ _____ _____    ______ ____
ROOT
ATOM      1  C   UNL     1       5.751   4.560  18.332  0.00  0.00    +0.000 C 
ATOM      2  C   UNL     1       5.774   3.809  19.672  0.00  0.00    +0.000 C 
ATOM      3  N   UNL     1       4.516   3.201  20.086  0.00  0.00    +0.000 N 
ATOM      4  C   UNL     1       3.311   3.291  19.420  0.00  0.00    +0.000 A 
ATOM      5  C   UNL     1       2.463   2.169  19.491  0.00  0.00    +0.000 A 
ATOM      6  C   UNL     1       1.221   2.132  18.852  0.00  0.00    +0.000 A 
ATOM      7  C   UNL     1       0.800   3.225  18.108  0.00  0.00    +0.000 A 
ATOM      8  C   UNL     1       1.631   4.340  17.998  0.00  0.00    +0.000 A 
ATOM      9  C   UNL     1       2.881   4.389  18.657  0.00  0.00    +0.000 A 
ATOM     10  C   UNL     1       3.652   5.680  18.622  0.00  0.00    +0.000 C 
ATOM     11  N   UNL     1       4.935   5.784  18.462  0.00  0.00    +0.000 NA
ATOM     12  H   UNL     1       4.581   2.522  20.834  0.00  0.00    +0.000 HD
ENDROOT
BRANCH  10  13
ATOM     13  C   UNL     1       2.891   6.966  18.791  0.00  0.00    +0.000 A 
ATOM     14  C   UNL     1       2.188   7.201  19.982  0.00  0.00    +0.000 A 
ATOM     15  C   UNL     1       1.452   8.380  20.150  0.00  0.00    +0.000 A 
ATOM     16  C   UNL     1       1.415   9.334  19.134  0.00  0.00    +0.000 A 
ATOM     17  C   UNL     1       2.110   9.111  17.948  0.00  0.00    +0.000 A 
ATOM     18  C   UNL     1       2.828   7.929  17.778  0.00  0.00    +0.000 A 
ATOM     19  F   UNL     1       3.444   7.749  16.600  0.00  0.00    +0.000 F 
ENDBRANCH  10  13
BRANCH   1  20
ATOM     20  C   UNL     1       7.200   4.985  17.954  0.00  0.00    +0.000 C 
BRANCH  20  23
ATOM     21  O   UNL     1       7.764   7.421  16.567  0.00  0.00    +0.000 OA
ATOM     22  C   UNL     1       7.891   7.361  17.782  0.00  0.00    +0.000 C 
ATOM     23  N   UNL     1       7.671   6.236  18.535  0.00  0.00    +0.000 N 
ATOM     24  H   UNL     1       7.627   6.384  19.529  0.00  0.00    +0.000 HD
BRANCH  22  25
ATOM     25  O   UNL     1       8.289   8.388  18.574  0.00  0.00    +0.000 OA
BRANCH  25  26
ATOM     26  C   UNL     1       8.294   9.692  17.961  0.00  0.00    +0.000 C 
BRANCH  26  27
ATOM     27  C   UNL     1       9.331  10.546  18.647  0.00  0.00    +0.000 A 
ATOM     28  C   UNL     1       9.338  10.695  20.042  0.00  0.00    +0.000 A 
ATOM     29  C   UNL     1      10.272  11.531  20.661  0.00  0.00    +0.000 A 
ATOM     30  C   UNL     1      11.211  12.219  19.894  0.00  0.00    +0.000 A 
ATOM     31  C   UNL     1      11.224  12.065  18.510  0.00  0.00    +0.000 A 
ATOM     32  C   UNL     1      10.290  11.232  17.888  0.00  0.00    +0.000 A 
ENDBRANCH  26  27
ENDBRANCH  25  26
ENDBRANCH  22  25
ENDBRANCH  20  23
ENDBRANCH   1  20
TORSDOF 6
ENDMDL
MODEL 9
REMARK VINA RESULT:      -9.1      3.575      6.064
REMARK  Name = 
REMARK  6 active torsions:
REMARK  status: ('A' for Active; 'I' for Inactive)
REMARK    1  A    between atoms: C_2  and  O_23
REMARK    2  A    between atoms: N_3  and  C_4
REMARK    3  A    between atoms: C_4  and  C_5
REMARK    4  A    between atoms: C_14  and  C_15
REMARK    5  A    between atoms: O_23  and  C_24
REMARK    6  A    between atoms: C_24  and  C_25
REMARK                            x       y       z     vdW  Elec       q    Type
REMARK                         _______ _______ _______ _____ _____    ______ ____
ROOT
ATOM      1  C   UNL     1       5.570   5.582  17.752  0.00  0.00    +0.000 C 
ATOM      2  C   UNL     1       6.045   4.682  18.903  0.00  0.00    +0.000 C 
ATOM      3  N   UNL     1       5.052   3.765  19.448  0.00  0.00    +0.000 N 
ATOM      4  C   UNL     1       3.729   3.679  19.067  0.00  0.00    +0.000 A 
ATOM      5  C   UNL     1       3.140   2.400  19.106  0.00  0.00    +0.000 A 
ATOM      6  C   UNL     1       1.811   2.179  18.737  0.00  0.00    +0.000 A 
ATOM      7  C   UNL     1       1.035   3.244  18.302  0.00  0.00    +0.000 A 
ATOM      8  C   UNL     1       1.599   4.518  18.227  0.00  0.00    +0.000 A 
ATOM      9  C   UNL     1       2.939   4.749  18.617  0.00  0.00    +0.000 A 
ATOM     10  C   UNL     1       3.431   6.169  18.657  0.00  0.00    +0.000 C 
ATOM     11  N   UNL     1       4.600   6.571  18.262  0.00  0.00    +0.000 NA
ATOM     12  H   UNL     1       5.414   3.022  20.033  0.00  0.00    +0.000 HD
ENDROOT
BRANCH  10  13
ATOM     13  C   UNL     1       2.510   7.225  19.206  0.00  0.00    +0.000 A 
ATOM     14  C   UNL     1       2.013   7.098  20.512  0.00  0.00    +0.000 A 
ATOM     15  C   UNL     1       1.134   8.056  21.031  0.00  0.00    +0.000 A 
ATOM     16  C   UNL     1       0.747   9.147  20.255  0.00  0.00    +0.000 A 
ATOM     17  C   UNL     1       1.234   9.282  18.958  0.00  0.00    +0.000 A 
ATOM     18  C   UNL     1       2.096   8.319  18.437  0.00  0.00    +0.000 A 
ATOM     19  F   UNL     1       2.502   8.479  17.169  0.00  0.00    +0.000 F 
ENDBRANCH  10  13
BRANCH   1  20
ATOM     20  C   UNL     1       6.787   6.359  17.170  0.00  0.00    +0.000 C 
BRANCH  20  23
ATOM     21  O   UNL     1       5.720   5.831  14.570  0.00  0.00    +0.000 OA
ATOM     22  C   UNL     1       6.879   5.537  14.831  0.00  0.00    +0.000 C 
ATOM     23  N   UNL     1       7.476   5.725  16.052  0.00  0.00    +0.000 N 
ATOM     24  H   UNL     1       8.475   5.618  16.064  0.00  0.00    +0.000 HD
BRANCH  22  25
ATOM     25  O   UNL     1       7.749   4.961  13.964  0.00  0.00    +0.000 OA
BRANCH  25  26
ATOM     26  C   UNL     1       7.425   5.088  12.567  0.00  0.00    +0.000 C 
BRANCH  26  27
ATOM     27  C   UNL     1       6.885   3.769  12.072  0.00  0.00    +0.000 A 
ATOM     28  C   UNL     1       7.743   2.780  11.565  0.00  0.00    +0.000 A 
ATOM     29  C   UNL     1       7.226   1.584  11.060  0.00  0.00    +0.000 A 
ATOM     30  C   UNL     1       5.850   1.360  11.065  0.00  0.00    +0.000 A 
ATOM     31  C   UNL     1       4.990   2.327  11.582  0.00  0.00    +0.000 A 
ATOM     32  C   UNL     1       5.505   3.525  12.084  0.00  0.00    +0.000 A 
ENDBRANCH  26  27
ENDBRANCH  25  26
ENDBRANCH  22  25
ENDBRANCH  20  23
ENDBRANCH   1  20
TORSDOF 6
ENDMDL
