MODEL 1
REMARK VINA RESULT:      -7.1      0.000      0.000
REMARK  Name = 
REMARK  2 active torsions:
REMARK  status: ('A' for Active; 'I' for Inactive)
REMARK    1  A    between atoms: C_16  and  N_17
REMARK    2  A    between atoms: N_29  and  C_30
REMARK                            x       y       z     vdW  Elec       q    Type
REMARK                         _______ _______ _______ _____ _____    ______ ____
ROOT
ATOM      1  C   UNL     1      -5.145  11.652  18.789  0.00  0.00    +0.000 A 
ATOM      2  C   UNL     1      -4.607  12.519  19.723  0.00  0.00    +0.000 A 
ATOM      3  C   UNL     1      -3.209  12.583  19.792  0.00  0.00    +0.000 A 
ATOM      4  C   UNL     1      -2.295  13.299  20.612  0.00  0.00    +0.000 A 
ATOM      5  C   UNL     1      -2.398  14.206  21.661  0.00  0.00    +0.000 A 
ATOM      6  N   UNL     1      -1.279  14.675  22.255  0.00  0.00    +0.000 NA
ATOM      7  C   UNL     1      -0.081  14.324  21.757  0.00  0.00    +0.000 A 
ATOM      8  N   UNL     1       1.022  14.956  22.327  0.00  0.00    +0.000 N 
ATOM      9  C   UNL     1       2.266  15.126  21.726  0.00  0.00    +0.000 A 
ATOM     10  C   UNL     1       2.355  15.365  20.365  0.00  0.00    +0.000 A 
ATOM     11  C   UNL     1       3.593  15.489  19.763  0.00  0.00    +0.000 A 
ATOM     12  C   UNL     1       4.744  15.398  20.529  0.00  0.00    +0.000 A 
ATOM     13  N   UNL     1       5.966  15.495  19.850  0.00  0.00    +0.000 N 
ATOM     14  C   UNL     1       7.088  16.034  20.614  0.00  0.00    +0.000 C 
ATOM     15  C   UNL     1       8.119  16.487  19.575  0.00  0.00    +0.000 C 
ATOM     16  C   UNL     1       8.595  15.351  18.624  0.00  0.00    +0.000 C 
ATOM     17  C   UNL     1       7.343  14.608  18.077  0.00  0.00    +0.000 C 
ATOM     18  C   UNL     1       6.318  14.256  19.154  0.00  0.00    +0.000 C 
ATOM     19  N   UNL     1       4.640  15.244  21.866  0.00  0.00    +0.000 NA
ATOM     20  N   UNL     1       3.393  15.108  22.469  0.00  0.00    +0.000 NA
ATOM     21  N   UNL     1       0.114  13.458  20.739  0.00  0.00    +0.000 NA
ATOM     22  C   UNL     1      -1.015  12.960  20.214  0.00  0.00    +0.000 A 
ATOM     23  N   UNL     1      -1.109  12.039  19.195  0.00  0.00    +0.000 N 
ATOM     24  C   UNL     1      -2.452  11.788  18.925  0.00  0.00    +0.000 A 
ATOM     25  C   UNL     1      -3.068  10.944  18.006  0.00  0.00    +0.000 A 
ATOM     26  N   UNL     1      -4.417  10.886  17.952  0.00  0.00    +0.000 NA
ATOM     27  H   UNL     1       1.035  14.870  23.331  0.00  0.00    +0.000 HD
ENDROOT
BRANCH  16  28
ATOM     28  N   UNL     1       9.568  14.377  19.190  0.00  0.00    +0.000 NA
ATOM     29  C   UNL     1      10.895  14.929  19.555  0.00  0.00    +0.000 C 
ATOM     30  C   UNL     1      11.804  15.253  18.358  0.00  0.00    +0.000 C 
ATOM     31  O   UNL     1      12.039  14.082  17.567  0.00  0.00    +0.000 OA
ATOM     32  C   UNL     1      10.798  13.549  17.094  0.00  0.00    +0.000 C 
ATOM     33  C   UNL     1       9.828  13.240  18.254  0.00  0.00    +0.000 C 
ENDBRANCH  16  28
BRANCH  23  34
ATOM     34  C   UNL     1      -0.018  11.370  18.515  0.00  0.00    +0.000 C 
ATOM     35  C   UNL     1       1.364  12.016  18.572  0.00  0.00    +0.000 C 
ATOM     36  C   UNL     1       2.232  10.969  17.871  0.00  0.00    +0.000 C 
ATOM     37  C   UNL     1       1.574   9.615  18.168  0.00  0.00    +0.000 C 
ATOM     38  C   UNL     1       0.280   9.929  18.926  0.00  0.00    +0.000 C 
ENDBRANCH  23  34
TORSDOF 2
ENDMDL
MODEL 2
REMARK VINA RESULT:      -6.9      1.685      2.643
REMARK  Name = 
REMARK  2 active torsions:
REMARK  status: ('A' for Active; 'I' for Inactive)
REMARK    1  A    between atoms: C_16  and  N_17
REMARK    2  A    between atoms: N_29  and  C_30
REMARK                            x       y       z     vdW  Elec       q    Type
REMARK                         _______ _______ _______ _____ _____    ______ ____
ROOT
ATOM      1  C   UNL     1      -7.670  11.875  19.224  0.00  0.00    +0.000 A 
ATOM      2  C   UNL     1      -7.097  12.655  20.213  0.00  0.00    +0.000 A 
ATOM      3  C   UNL     1      -5.698  12.728  20.227  0.00  0.00    +0.000 A 
ATOM      4  C   UNL     1      -4.754  13.373  21.071  0.00  0.00    +0.000 A 
ATOM      5  C   UNL     1      -4.816  14.174  22.205  0.00  0.00    +0.000 A 
ATOM      6  N   UNL     1      -3.675  14.597  22.792  0.00  0.00    +0.000 NA
ATOM      7  C   UNL     1      -2.498  14.307  22.211  0.00  0.00    +0.000 A 
ATOM      8  N   UNL     1      -1.375  14.894  22.791  0.00  0.00    +0.000 N 
ATOM      9  C   UNL     1      -0.159  15.134  22.156  0.00  0.00    +0.000 A 
ATOM     10  C   UNL     1      -0.133  15.501  20.822  0.00  0.00    +0.000 A 
ATOM     11  C   UNL     1       1.077  15.696  20.181  0.00  0.00    +0.000 A 
ATOM     12  C   UNL     1       2.262  15.544  20.885  0.00  0.00    +0.000 A 
ATOM     13  N   UNL     1       3.451  15.718  20.166  0.00  0.00    +0.000 N 
ATOM     14  C   UNL     1       4.602  16.194  20.928  0.00  0.00    +0.000 C 
ATOM     15  C   UNL     1       5.584  16.754  19.893  0.00  0.00    +0.000 C 
ATOM     16  C   UNL     1       6.025  15.719  18.819  0.00  0.00    +0.000 C 
ATOM     17  C   UNL     1       4.755  15.019  18.258  0.00  0.00    +0.000 C 
ATOM     18  C   UNL     1       3.781  14.555  19.340  0.00  0.00    +0.000 C 
ATOM     19  N   UNL     1       2.218  15.263  22.204  0.00  0.00    +0.000 NA
ATOM     20  N   UNL     1       0.999  15.057  22.844  0.00  0.00    +0.000 NA
ATOM     21  N   UNL     1      -2.342  13.544  21.108  0.00  0.00    +0.000 NA
ATOM     22  C   UNL     1      -3.490  13.086  20.588  0.00  0.00    +0.000 A 
ATOM     23  N   UNL     1      -3.623  12.265  19.491  0.00  0.00    +0.000 N 
ATOM     24  C   UNL     1      -4.974  12.027  19.256  0.00  0.00    +0.000 A 
ATOM     25  C   UNL     1      -5.626  11.267  18.288  0.00  0.00    +0.000 A 
ATOM     26  N   UNL     1      -6.975  11.200  18.288  0.00  0.00    +0.000 NA
ATOM     27  H   UNL     1      -1.317  14.713  23.781  0.00  0.00    +0.000 HD
ENDROOT
BRANCH  16  28
ATOM     28  N   UNL     1       7.028  14.706  19.246  0.00  0.00    +0.000 NA
ATOM     29  C   UNL     1       7.875  15.085  20.403  0.00  0.00    +0.000 C 
ATOM     30  C   UNL     1       8.958  16.131  20.087  0.00  0.00    +0.000 C 
ATOM     31  O   UNL     1       9.836  15.657  19.060  0.00  0.00    +0.000 OA
ATOM     32  C   UNL     1       9.094  15.364  17.872  0.00  0.00    +0.000 C 
ATOM     33  C   UNL     1       7.965  14.345  18.139  0.00  0.00    +0.000 C 
ENDBRANCH  16  28
BRANCH  23  34
ATOM     34  C   UNL     1      -2.559  11.676  18.703  0.00  0.00    +0.000 C 
ATOM     35  C   UNL     1      -1.252  11.328  19.411  0.00  0.00    +0.000 C 
ATOM     36  C   UNL     1      -0.465  10.629  18.300  0.00  0.00    +0.000 C 
ATOM     37  C   UNL     1      -1.515   9.951  17.411  0.00  0.00    +0.000 C 
ATOM     38  C   UNL     1      -2.879  10.379  17.961  0.00  0.00    +0.000 C 
ENDBRANCH  23  34
TORSDOF 2
ENDMDL
MODEL 3
REMARK VINA RESULT:      -6.8      5.001      8.657
REMARK  Name = 
REMARK  2 active torsions:
REMARK  status: ('A' for Active; 'I' for Inactive)
REMARK    1  A    between atoms: C_16  and  N_17
REMARK    2  A    between atoms: N_29  and  C_30
REMARK                            x       y       z     vdW  Elec       q    Type
REMARK                         _______ _______ _______ _____ _____    ______ ____
ROOT
ATOM      1  C   UNL     1       0.764  18.523  22.934  0.00  0.00    +0.000 A 
ATOM      2  C   UNL     1       0.055  17.462  23.467  0.00  0.00    +0.000 A 
ATOM      3  C   UNL     1       0.191  16.226  22.822  0.00  0.00    +0.000 A 
ATOM      4  C   UNL     1      -0.377  14.939  23.029  0.00  0.00    +0.000 A 
ATOM      5  C   UNL     1      -1.282  14.382  23.925  0.00  0.00    +0.000 A 
ATOM      6  N   UNL     1      -1.638  13.085  23.802  0.00  0.00    +0.000 NA
ATOM      7  C   UNL     1      -1.036  12.331  22.865  0.00  0.00    +0.000 A 
ATOM      8  N   UNL     1      -1.346  10.973  22.888  0.00  0.00    +0.000 N 
ATOM      9  C   UNL     1      -0.560   9.947  22.371  0.00  0.00    +0.000 A 
ATOM     10  C   UNL     1       0.820  10.022  22.449  0.00  0.00    +0.000 A 
ATOM     11  C   UNL     1       1.600   9.023  21.896  0.00  0.00    +0.000 A 
ATOM     12  C   UNL     1       0.995   7.936  21.283  0.00  0.00    +0.000 A 
ATOM     13  N   UNL     1       1.844   6.981  20.710  0.00  0.00    +0.000 N 
ATOM     14  C   UNL     1       1.333   5.614  20.656  0.00  0.00    +0.000 C 
ATOM     15  C   UNL     1       2.561   4.718  20.462  0.00  0.00    +0.000 C 
ATOM     16  C   UNL     1       3.387   5.048  19.186  0.00  0.00    +0.000 C 
ATOM     17  C   UNL     1       3.637   6.583  19.144  0.00  0.00    +0.000 C 
ATOM     18  C   UNL     1       2.388   7.417  19.422  0.00  0.00    +0.000 C 
ATOM     19  N   UNL     1      -0.350   7.839  21.285  0.00  0.00    +0.000 NA
ATOM     20  N   UNL     1      -1.134   8.851  21.833  0.00  0.00    +0.000 NA
ATOM     21  N   UNL     1      -0.144  12.783  21.958  0.00  0.00    +0.000 NA
ATOM     22  C   UNL     1       0.139  14.090  22.066  0.00  0.00    +0.000 A 
ATOM     23  N   UNL     1       0.984  14.815  21.258  0.00  0.00    +0.000 N 
ATOM     24  C   UNL     1       1.025  16.135  21.702  0.00  0.00    +0.000 A 
ATOM     25  C   UNL     1       1.713  17.249  21.230  0.00  0.00    +0.000 A 
ATOM     26  N   UNL     1       1.569  18.438  21.856  0.00  0.00    +0.000 NA
ATOM     27  H   UNL     1      -2.341  10.807  22.869  0.00  0.00    +0.000 HD
ENDROOT
BRANCH  16  28
ATOM     28  N   UNL     1       2.822   4.581  17.891  0.00  0.00    +0.000 NA
ATOM     29  C   UNL     1       1.482   3.948  17.963  0.00  0.00    +0.000 C 
ATOM     30  C   UNL     1       1.476   2.531  18.561  0.00  0.00    +0.000 C 
ATOM     31  O   UNL     1       2.314   1.655  17.798  0.00  0.00    +0.000 OA
ATOM     32  C   UNL     1       3.655   2.156  17.770  0.00  0.00    +0.000 C 
ATOM     33  C   UNL     1       3.717   3.594  17.213  0.00  0.00    +0.000 C 
ENDBRANCH  16  28
BRANCH  23  34
ATOM     34  C   UNL     1       1.701  14.343  20.091  0.00  0.00    +0.000 C 
ATOM     35  C   UNL     1       1.264  14.863  18.723  0.00  0.00    +0.000 C 
ATOM     36  C   UNL     1       2.319  14.252  17.799  0.00  0.00    +0.000 C 
ATOM     37  C   UNL     1       3.597  14.144  18.642  0.00  0.00    +0.000 C 
ATOM     38  C   UNL     1       3.210  14.579  20.059  0.00  0.00    +0.000 C 
ENDBRANCH  23  34
TORSDOF 2
ENDMDL
MODEL 4
REMARK VINA RESULT:      -6.7      1.835      2.722
REMARK  Name = 
REMARK  2 active torsions:
REMARK  status: ('A' for Active; 'I' for Inactive)
REMARK    1  A    between atoms: C_16  and  N_17
REMARK    2  A    between atoms: N_29  and  C_30
REMARK                            x       y       z     vdW  Elec       q    Type
REMARK                         _______ _______ _______ _____ _____    ______ ____
ROOT
ATOM      1  C   UNL     1      -7.168  11.340  19.090  0.00  0.00    +0.000 A 
ATOM      2  C   UNL     1      -6.766  12.181  20.112  0.00  0.00    +0.000 A 
ATOM      3  C   UNL     1      -5.393  12.442  20.209  0.00  0.00    +0.000 A 
ATOM      4  C   UNL     1      -4.596  13.200  21.109  0.00  0.00    +0.000 A 
ATOM      5  C   UNL     1      -4.833  13.974  22.240  0.00  0.00    +0.000 A 
ATOM      6  N   UNL     1      -3.796  14.542  22.894  0.00  0.00    +0.000 NA
ATOM      7  C   UNL     1      -2.558  14.420  22.384  0.00  0.00    +0.000 A 
ATOM      8  N   UNL     1      -1.562  15.148  23.030  0.00  0.00    +0.000 N 
ATOM      9  C   UNL     1      -0.355  15.557  22.469  0.00  0.00    +0.000 A 
ATOM     10  C   UNL     1      -0.300  15.938  21.140  0.00  0.00    +0.000 A 
ATOM     11  C   UNL     1       0.907  16.301  20.572  0.00  0.00    +0.000 A 
ATOM     12  C   UNL     1       2.059  16.304  21.345  0.00  0.00    +0.000 A 
ATOM     13  N   UNL     1       3.253  16.645  20.699  0.00  0.00    +0.000 N 
ATOM     14  C   UNL     1       4.282  17.265  21.529  0.00  0.00    +0.000 C 
ATOM     15  C   UNL     1       5.238  17.964  20.555  0.00  0.00    +0.000 C 
ATOM     16  C   UNL     1       5.878  17.009  19.507  0.00  0.00    +0.000 C 
ATOM     17  C   UNL     1       4.750  16.148  18.870  0.00  0.00    +0.000 C 
ATOM     18  C   UNL     1       3.786  15.546  19.891  0.00  0.00    +0.000 C 
ATOM     19  N   UNL     1       1.976  16.006  22.658  0.00  0.00    +0.000 NA
ATOM     20  N   UNL     1       0.761  15.630  23.225  0.00  0.00    +0.000 NA
ATOM     21  N   UNL     1      -2.236  13.696  21.290  0.00  0.00    +0.000 NA
ATOM     22  C   UNL     1      -3.279  13.092  20.702  0.00  0.00    +0.000 A 
ATOM     23  N   UNL     1      -3.234  12.272  19.597  0.00  0.00    +0.000 N 
ATOM     24  C   UNL     1      -4.525  11.855  19.282  0.00  0.00    +0.000 A 
ATOM     25  C   UNL     1      -5.009  11.024  18.275  0.00  0.00    +0.000 A 
ATOM     26  N   UNL     1      -6.334  10.775  18.194  0.00  0.00    +0.000 NA
ATOM     27  H   UNL     1      -1.538  14.967  24.022  0.00  0.00    +0.000 HD
ENDROOT
BRANCH  16  28
ATOM     28  N   UNL     1       6.982  16.137  19.991  0.00  0.00    +0.000 NA
ATOM     29  C   UNL     1       8.236  16.833  20.369  0.00  0.00    +0.000 C 
ATOM     30  C   UNL     1       9.065  17.347  19.179  0.00  0.00    +0.000 C 
ATOM     31  O   UNL     1       9.428  16.268  18.311  0.00  0.00    +0.000 OA
ATOM     32  C   UNL     1       8.255  15.608  17.825  0.00  0.00    +0.000 C 
ATOM     33  C   UNL     1       7.363  15.104  18.979  0.00  0.00    +0.000 C 
ENDBRANCH  16  28
BRANCH  23  34
ATOM     34  C   UNL     1      -2.056  11.840  18.872  0.00  0.00    +0.000 C 
ATOM     35  C   UNL     1      -0.899  12.828  18.734  0.00  0.00    +0.000 C 
ATOM     36  C   UNL     1       0.167  11.973  18.045  0.00  0.00    +0.000 C 
ATOM     37  C   UNL     1      -0.078  10.536  18.525  0.00  0.00    +0.000 C 
ATOM     38  C   UNL     1      -1.349  10.583  19.378  0.00  0.00    +0.000 C 
ENDBRANCH  23  34
TORSDOF 2
ENDMDL
MODEL 5
REMARK VINA RESULT:      -6.6      1.746      2.109
REMARK  Name = 
REMARK  2 active torsions:
REMARK  status: ('A' for Active; 'I' for Inactive)
REMARK    1  A    between atoms: C_16  and  N_17
REMARK    2  A    between atoms: N_29  and  C_30
REMARK                            x       y       z     vdW  Elec       q    Type
REMARK                         _______ _______ _______ _____ _____    ______ ____
ROOT
ATOM      1  C   UNL     1      -5.907  13.588  20.510  0.00  0.00    +0.000 A 
ATOM      2  C   UNL     1      -5.237  14.749  20.851  0.00  0.00    +0.000 A 
ATOM      3  C   UNL     1      -3.837  14.702  20.822  0.00  0.00    +0.000 A 
ATOM      4  C   UNL     1      -2.813  15.639  21.127  0.00  0.00    +0.000 A 
ATOM      5  C   UNL     1      -2.769  16.955  21.573  0.00  0.00    +0.000 A 
ATOM      6  N   UNL     1      -1.576  17.547  21.801  0.00  0.00    +0.000 NA
ATOM      7  C   UNL     1      -0.449  16.877  21.503  0.00  0.00    +0.000 A 
ATOM      8  N   UNL     1       0.736  17.598  21.628  0.00  0.00    +0.000 N 
ATOM      9  C   UNL     1       1.934  17.320  20.975  0.00  0.00    +0.000 A 
ATOM     10  C   UNL     1       1.923  16.833  19.680  0.00  0.00    +0.000 A 
ATOM     11  C   UNL     1       3.111  16.515  19.049  0.00  0.00    +0.000 A 
ATOM     12  C   UNL     1       4.315  16.709  19.709  0.00  0.00    +0.000 A 
ATOM     13  N   UNL     1       5.479  16.331  19.027  0.00  0.00    +0.000 N 
ATOM     14  C   UNL     1       6.693  17.068  19.365  0.00  0.00    +0.000 C 
ATOM     15  C   UNL     1       7.661  16.833  18.200  0.00  0.00    +0.000 C 
ATOM     16  C   UNL     1       7.981  15.333  17.940  0.00  0.00    +0.000 C 
ATOM     17  C   UNL     1       6.642  14.543  17.897  0.00  0.00    +0.000 C 
ATOM     18  C   UNL     1       5.691  14.882  19.043  0.00  0.00    +0.000 C 
ATOM     19  N   UNL     1       4.314  17.259  20.941  0.00  0.00    +0.000 NA
ATOM     20  N   UNL     1       3.115  17.567  21.579  0.00  0.00    +0.000 NA
ATOM     21  N   UNL     1      -0.397  15.603  21.060  0.00  0.00    +0.000 NA
ATOM     22  C   UNL     1      -1.596  15.022  20.906  0.00  0.00    +0.000 A 
ATOM     23  N   UNL     1      -1.834  13.728  20.502  0.00  0.00    +0.000 N 
ATOM     24  C   UNL     1      -3.208  13.508  20.450  0.00  0.00    +0.000 A 
ATOM     25  C   UNL     1      -3.953  12.382  20.112  0.00  0.00    +0.000 A 
ATOM     26  N   UNL     1      -5.303  12.438  20.150  0.00  0.00    +0.000 NA
ATOM     27  H   UNL     1       0.828  18.028  22.536  0.00  0.00    +0.000 HD
ENDROOT
BRANCH  16  28
ATOM     28  N   UNL     1       8.933  14.685  18.883  0.00  0.00    +0.000 NA
ATOM     29  C   UNL     1      10.318  15.216  18.868  0.00  0.00    +0.000 C 
ATOM     30  C   UNL     1      11.145  14.809  17.637  0.00  0.00    +0.000 C 
ATOM     31  O   UNL     1      11.241  13.383  17.539  0.00  0.00    +0.000 OA
ATOM     32  C   UNL     1       9.934  12.806  17.448  0.00  0.00    +0.000 C 
ATOM     33  C   UNL     1       9.044  13.213  18.642  0.00  0.00    +0.000 C 
ENDBRANCH  16  28
BRANCH  23  34
ATOM     34  C   UNL     1      -0.850  12.704  20.212  0.00  0.00    +0.000 C 
ATOM     35  C   UNL     1       0.231  13.022  19.182  0.00  0.00    +0.000 C 
ATOM     36  C   UNL     1       1.119  11.778  19.260  0.00  0.00    +0.000 C 
ATOM     37  C   UNL     1       1.010  11.280  20.707  0.00  0.00    +0.000 C 
ATOM     38  C   UNL     1      -0.031  12.175  21.388  0.00  0.00    +0.000 C 
ENDBRANCH  23  34
TORSDOF 2
ENDMDL
MODEL 6
REMARK VINA RESULT:      -6.6      2.235      3.155
REMARK  Name = 
REMARK  2 active torsions:
REMARK  status: ('A' for Active; 'I' for Inactive)
REMARK    1  A    between atoms: C_16  and  N_17
REMARK    2  A    between atoms: N_29  and  C_30
REMARK                            x       y       z     vdW  Elec       q    Type
REMARK                         _______ _______ _______ _____ _____    ______ ____
ROOT
ATOM      1  C   UNL     1      -5.760  13.791  23.431  0.00  0.00    +0.000 A 
ATOM      2  C   UNL     1      -4.977  14.857  23.836  0.00  0.00    +0.000 A 
ATOM      3  C   UNL     1      -3.608  14.780  23.546  0.00  0.00    +0.000 A 
ATOM      4  C   UNL     1      -2.496  15.624  23.814  0.00  0.00    +0.000 A 
ATOM      5  C   UNL     1      -2.301  16.841  24.458  0.00  0.00    +0.000 A 
ATOM      6  N   UNL     1      -1.055  17.353  24.563  0.00  0.00    +0.000 NA
ATOM      7  C   UNL     1      -0.037  16.717  23.958  0.00  0.00    +0.000 A 
ATOM      8  N   UNL     1       1.191  17.375  23.986  0.00  0.00    +0.000 N 
ATOM      9  C   UNL     1       2.240  17.186  23.090  0.00  0.00    +0.000 A 
ATOM     10  C   UNL     1       1.976  16.932  21.755  0.00  0.00    +0.000 A 
ATOM     11  C   UNL     1       3.018  16.699  20.876  0.00  0.00    +0.000 A 
ATOM     12  C   UNL     1       4.326  16.744  21.330  0.00  0.00    +0.000 A 
ATOM     13  N   UNL     1       5.331  16.462  20.396  0.00  0.00    +0.000 N 
ATOM     14  C   UNL     1       6.625  17.098  20.627  0.00  0.00    +0.000 C 
ATOM     15  C   UNL     1       7.361  17.045  19.284  0.00  0.00    +0.000 C 
ATOM     16  C   UNL     1       7.547  15.606  18.723  0.00  0.00    +0.000 C 
ATOM     17  C   UNL     1       6.178  14.870  18.791  0.00  0.00    +0.000 C 
ATOM     18  C   UNL     1       5.461  15.028  20.131  0.00  0.00    +0.000 C 
ATOM     19  N   UNL     1       4.570  17.071  22.617  0.00  0.00    +0.000 NA
ATOM     20  N   UNL     1       3.520  17.294  23.503  0.00  0.00    +0.000 NA
ATOM     21  N   UNL     1      -0.133  15.539  23.306  0.00  0.00    +0.000 NA
ATOM     22  C   UNL     1      -1.372  15.024  23.277  0.00  0.00    +0.000 A 
ATOM     23  N   UNL     1      -1.749  13.827  22.711  0.00  0.00    +0.000 N 
ATOM     24  C   UNL     1      -3.121  13.655  22.873  0.00  0.00    +0.000 A 
ATOM     25  C   UNL     1      -3.975  12.624  22.492  0.00  0.00    +0.000 A 
ATOM     26  N   UNL     1      -5.292  12.706  22.781  0.00  0.00    +0.000 NA
ATOM     27  H   UNL     1       1.463  17.638  24.921  0.00  0.00    +0.000 HD
ENDROOT
BRANCH  16  28
ATOM     28  N   UNL     1       8.610  14.780  19.357  0.00  0.00    +0.000 NA
ATOM     29  C   UNL     1      10.000  15.259  19.164  0.00  0.00    +0.000 C 
ATOM     30  C   UNL     1      10.564  15.034  17.751  0.00  0.00    +0.000 C 
ATOM     31  O   UNL     1      10.549  13.642  17.416  0.00  0.00    +0.000 OA
ATOM     32  C   UNL     1       9.214  13.131  17.484  0.00  0.00    +0.000 C 
ATOM     33  C   UNL     1       8.582  13.366  18.872  0.00  0.00    +0.000 C 
ENDBRANCH  16  28
BRANCH  23  34
ATOM     34  C   UNL     1      -0.889  12.846  22.082  0.00  0.00    +0.000 C 
ATOM     35  C   UNL     1      -0.832  11.448  22.693  0.00  0.00    +0.000 C 
ATOM     36  C   UNL     1       0.052  10.700  21.693  0.00  0.00    +0.000 C 
ATOM     37  C   UNL     1      -0.212  11.357  20.332  0.00  0.00    +0.000 C 
ATOM     38  C   UNL     1      -1.143  12.542  20.606  0.00  0.00    +0.000 C 
ENDBRANCH  23  34
TORSDOF 2
ENDMDL
MODEL 7
REMARK VINA RESULT:      -6.4      3.336      5.241
REMARK  Name = 
REMARK  2 active torsions:
REMARK  status: ('A' for Active; 'I' for Inactive)
REMARK    1  A    between atoms: C_16  and  N_17
REMARK    2  A    between atoms: N_29  and  C_30
REMARK                            x       y       z     vdW  Elec       q    Type
REMARK                         _______ _______ _______ _____ _____    ______ ____
ROOT
ATOM      1  C   UNL     1      -7.476  11.106  20.204  0.00  0.00    +0.000 A 
ATOM      2  C   UNL     1      -6.424  10.894  19.332  0.00  0.00    +0.000 A 
ATOM      3  C   UNL     1      -5.250  11.621  19.572  0.00  0.00    +0.000 A 
ATOM      4  C   UNL     1      -3.996  11.713  18.910  0.00  0.00    +0.000 A 
ATOM      5  C   UNL     1      -3.423  11.144  17.779  0.00  0.00    +0.000 A 
ATOM      6  N   UNL     1      -2.174  11.500  17.406  0.00  0.00    +0.000 NA
ATOM      7  C   UNL     1      -1.473  12.335  18.193  0.00  0.00    +0.000 A 
ATOM      8  N   UNL     1      -0.147  12.546  17.824  0.00  0.00    +0.000 N 
ATOM      9  C   UNL     1       0.880  12.962  18.668  0.00  0.00    +0.000 A 
ATOM     10  C   UNL     1       0.917  12.530  19.983  0.00  0.00    +0.000 A 
ATOM     11  C   UNL     1       1.911  12.979  20.831  0.00  0.00    +0.000 A 
ATOM     12  C   UNL     1       2.884  13.845  20.356  0.00  0.00    +0.000 A 
ATOM     13  N   UNL     1       3.840  14.291  21.278  0.00  0.00    +0.000 N 
ATOM     14  C   UNL     1       5.153  14.628  20.735  0.00  0.00    +0.000 C 
ATOM     15  C   UNL     1       6.115  14.606  21.927  0.00  0.00    +0.000 C 
ATOM     16  C   UNL     1       5.723  15.586  23.070  0.00  0.00    +0.000 C 
ATOM     17  C   UNL     1       4.215  15.388  23.395  0.00  0.00    +0.000 C 
ATOM     18  C   UNL     1       3.321  15.340  22.157  0.00  0.00    +0.000 C 
ATOM     19  N   UNL     1       2.880  14.194  19.052  0.00  0.00    +0.000 NA
ATOM     20  N   UNL     1       1.871  13.749  18.202  0.00  0.00    +0.000 NA
ATOM     21  N   UNL     1      -1.945  12.929  19.311  0.00  0.00    +0.000 NA
ATOM     22  C   UNL     1      -3.209  12.604  19.617  0.00  0.00    +0.000 A 
ATOM     23  N   UNL     1      -3.945  13.085  20.676  0.00  0.00    +0.000 N 
ATOM     24  C   UNL     1      -5.208  12.497  20.663  0.00  0.00    +0.000 A 
ATOM     25  C   UNL     1      -6.309  12.650  21.501  0.00  0.00    +0.000 A 
ATOM     26  N   UNL     1      -7.437  11.948  21.256  0.00  0.00    +0.000 NA
ATOM     27  H   UNL     1      -0.059  12.835  16.862  0.00  0.00    +0.000 HD
ENDROOT
BRANCH  16  28
ATOM     28  N   UNL     1       6.017  17.027  22.838  0.00  0.00    +0.000 NA
ATOM     29  C   UNL     1       7.423  17.351  22.494  0.00  0.00    +0.000 C 
ATOM     30  C   UNL     1       8.405  17.265  23.674  0.00  0.00    +0.000 C 
ATOM     31  O   UNL     1       8.014  18.155  24.726  0.00  0.00    +0.000 OA
ATOM     32  C   UNL     1       6.695  17.833  25.179  0.00  0.00    +0.000 C 
ATOM     33  C   UNL     1       5.670  17.866  24.026  0.00  0.00    +0.000 C 
ENDBRANCH  16  28
BRANCH  23  34
ATOM     34  C   UNL     1      -3.538  14.079  21.648  0.00  0.00    +0.000 C 
ATOM     35  C   UNL     1      -2.487  13.681  22.682  0.00  0.00    +0.000 C 
ATOM     36  C   UNL     1      -2.243  15.003  23.412  0.00  0.00    +0.000 C 
ATOM     37  C   UNL     1      -2.482  16.104  22.370  0.00  0.00    +0.000 C 
ATOM     38  C   UNL     1      -2.976  15.393  21.106  0.00  0.00    +0.000 C 
ENDBRANCH  23  34
TORSDOF 2
ENDMDL
MODEL 8
REMARK VINA RESULT:      -6.4      4.008     11.057
REMARK  Name = 
REMARK  2 active torsions:
REMARK  status: ('A' for Active; 'I' for Inactive)
REMARK    1  A    between atoms: C_16  and  N_17
REMARK    2  A    between atoms: N_29  and  C_30
REMARK                            x       y       z     vdW  Elec       q    Type
REMARK                         _______ _______ _______ _____ _____    ______ ____
ROOT
ATOM      1  C   UNL     1      11.585  16.396  21.158  0.00  0.00    +0.000 A 
ATOM      2  C   UNL     1      10.776  16.336  20.038  0.00  0.00    +0.000 A 
ATOM      3  C   UNL     1       9.483  15.828  20.220  0.00  0.00    +0.000 A 
ATOM      4  C   UNL     1       8.390  15.579  19.346  0.00  0.00    +0.000 A 
ATOM      5  C   UNL     1       8.152  15.724  17.984  0.00  0.00    +0.000 A 
ATOM      6  N   UNL     1       6.966  15.336  17.465  0.00  0.00    +0.000 NA
ATOM      7  C   UNL     1       6.003  14.900  18.295  0.00  0.00    +0.000 A 
ATOM      8  N   UNL     1       4.763  14.654  17.710  0.00  0.00    +0.000 N 
ATOM      9  C   UNL     1       3.536  14.648  18.368  0.00  0.00    +0.000 A 
ATOM     10  C   UNL     1       3.297  15.538  19.401  0.00  0.00    +0.000 A 
ATOM     11  C   UNL     1       2.095  15.501  20.082  0.00  0.00    +0.000 A 
ATOM     12  C   UNL     1       1.121  14.586  19.713  0.00  0.00    +0.000 A 
ATOM     13  N   UNL     1      -0.058  14.576  20.469  0.00  0.00    +0.000 N 
ATOM     14  C   UNL     1      -1.268  14.147  19.773  0.00  0.00    +0.000 C 
ATOM     15  C   UNL     1      -2.439  14.672  20.611  0.00  0.00    +0.000 C 
ATOM     16  C   UNL     1      -2.439  14.162  22.081  0.00  0.00    +0.000 C 
ATOM     17  C   UNL     1      -1.016  14.368  22.675  0.00  0.00    +0.000 C 
ATOM     18  C   UNL     1       0.108  13.896  21.755  0.00  0.00    +0.000 C 
ATOM     19  N   UNL     1       1.338  13.778  18.653  0.00  0.00    +0.000 NA
ATOM     20  N   UNL     1       2.554  13.810  17.976  0.00  0.00    +0.000 NA
ATOM     21  N   UNL     1       6.143  14.734  19.628  0.00  0.00    +0.000 NA
ATOM     22  C   UNL     1       7.353  15.066  20.102  0.00  0.00    +0.000 A 
ATOM     23  N   UNL     1       7.777  14.966  21.408  0.00  0.00    +0.000 N 
ATOM     24  C   UNL     1       9.089  15.424  21.501  0.00  0.00    +0.000 A 
ATOM     25  C   UNL     1       9.961  15.521  22.582  0.00  0.00    +0.000 A 
ATOM     26  N   UNL     1      11.207  16.008  22.393  0.00  0.00    +0.000 NA
ATOM     27  H   UNL     1       4.831  14.035  16.916  0.00  0.00    +0.000 HD
ENDROOT
BRANCH  16  28
ATOM     28  N   UNL     1      -2.891  12.761  22.297  0.00  0.00    +0.000 NA
ATOM     29  C   UNL     1      -4.227  12.422  21.750  0.00  0.00    +0.000 C 
ATOM     30  C   UNL     1      -5.409  13.004  22.545  0.00  0.00    +0.000 C 
ATOM     31  O   UNL     1      -5.382  12.546  23.901  0.00  0.00    +0.000 OA
ATOM     32  C   UNL     1      -4.152  12.927  24.527  0.00  0.00    +0.000 C 
ATOM     33  C   UNL     1      -2.927  12.403  23.748  0.00  0.00    +0.000 C 
ENDBRANCH  16  28
BRANCH  23  34
ATOM     34  C   UNL     1       7.036  14.431  22.532  0.00  0.00    +0.000 C 
ATOM     35  C   UNL     1       7.568  13.167  23.203  0.00  0.00    +0.000 C 
ATOM     36  C   UNL     1       6.612  13.010  24.388  0.00  0.00    +0.000 C 
ATOM     37  C   UNL     1       6.189  14.434  24.772  0.00  0.00    +0.000 C 
ATOM     38  C   UNL     1       6.814  15.361  23.724  0.00  0.00    +0.000 C 
ENDBRANCH  23  34
TORSDOF 2
ENDMDL
MODEL 9
REMARK VINA RESULT:      -6.4      1.969      2.499
REMARK  Name = 
REMARK  2 active torsions:
REMARK  status: ('A' for Active; 'I' for Inactive)
REMARK    1  A    between atoms: C_16  and  N_17
REMARK    2  A    between atoms: N_29  and  C_30
REMARK                            x       y       z     vdW  Elec       q    Type
REMARK                         _______ _______ _______ _____ _____    ______ ____
ROOT
ATOM      1  C   UNL     1      -6.633  13.708  20.511  0.00  0.00    +0.000 A 
ATOM      2  C   UNL     1      -5.959  14.873  20.830  0.00  0.00    +0.000 A 
ATOM      3  C   UNL     1      -4.559  14.816  20.815  0.00  0.00    +0.000 A 
ATOM      4  C   UNL     1      -3.531  15.754  21.106  0.00  0.00    +0.000 A 
ATOM      5  C   UNL     1      -3.481  17.080  21.520  0.00  0.00    +0.000 A 
ATOM      6  N   UNL     1      -2.286  17.669  21.744  0.00  0.00    +0.000 NA
ATOM      7  C   UNL     1      -1.162  16.984  21.473  0.00  0.00    +0.000 A 
ATOM      8  N   UNL     1       0.027  17.700  21.591  0.00  0.00    +0.000 N 
ATOM      9  C   UNL     1       1.229  17.398  20.956  0.00  0.00    +0.000 A 
ATOM     10  C   UNL     1       1.226  16.879  19.673  0.00  0.00    +0.000 A 
ATOM     11  C   UNL     1       2.418  16.538  19.062  0.00  0.00    +0.000 A 
ATOM     12  C   UNL     1       3.617  16.739  19.728  0.00  0.00    +0.000 A 
ATOM     13  N   UNL     1       4.784  16.337  19.066  0.00  0.00    +0.000 N 
ATOM     14  C   UNL     1       6.001  17.074  19.397  0.00  0.00    +0.000 C 
ATOM     15  C   UNL     1       6.977  16.803  18.247  0.00  0.00    +0.000 C 
ATOM     16  C   UNL     1       7.289  15.295  18.027  0.00  0.00    +0.000 C 
ATOM     17  C   UNL     1       5.945  14.513  17.991  0.00  0.00    +0.000 C 
ATOM     18  C   UNL     1       4.986  14.887  19.120  0.00  0.00    +0.000 C 
ATOM     19  N   UNL     1       3.609  17.320  20.946  0.00  0.00    +0.000 NA
ATOM     20  N   UNL     1       2.407  17.652  21.565  0.00  0.00    +0.000 NA
ATOM     21  N   UNL     1      -1.114  15.699  21.062  0.00  0.00    +0.000 NA
ATOM     22  C   UNL     1      -2.316  15.123  20.912  0.00  0.00    +0.000 A 
ATOM     23  N   UNL     1      -2.559  13.821  20.537  0.00  0.00    +0.000 N 
ATOM     24  C   UNL     1      -3.935  13.609  20.478  0.00  0.00    +0.000 A 
ATOM     25  C   UNL     1      -4.684  12.480  20.162  0.00  0.00    +0.000 A 
ATOM     26  N   UNL     1      -6.034  12.546  20.185  0.00  0.00    +0.000 NA
ATOM     27  H   UNL     1       0.114  18.152  22.488  0.00  0.00    +0.000 HD
ENDROOT
BRANCH  16  28
ATOM     28  N   UNL     1       8.228  14.664  18.994  0.00  0.00    +0.000 NA
ATOM     29  C   UNL     1       9.468  15.426  19.280  0.00  0.00    +0.000 C 
ATOM     30  C   UNL     1      10.507  15.404  18.145  0.00  0.00    +0.000 C 
ATOM     31  O   UNL     1      10.899  14.060  17.842  0.00  0.00    +0.000 OA
ATOM     32  C   UNL     1       9.757  13.288  17.459  0.00  0.00    +0.000 C 
ATOM     33  C   UNL     1       8.662  13.306  18.547  0.00  0.00    +0.000 C 
ENDBRANCH  16  28
BRANCH  23  34
ATOM     34  C   UNL     1      -1.580  12.784  20.282  0.00  0.00    +0.000 C 
ATOM     35  C   UNL     1      -1.502  11.616  21.263  0.00  0.00    +0.000 C 
ATOM     36  C   UNL     1      -0.474  10.704  20.590  0.00  0.00    +0.000 C 
ATOM     37  C   UNL     1      -0.634  10.940  19.082  0.00  0.00    +0.000 C 
ATOM     38  C   UNL     1      -1.659  12.069  18.934  0.00  0.00    +0.000 C 
ENDBRANCH  23  34
TORSDOF 2
ENDMDL
