MODEL 1
REMARK VINA RESULT:      -7.1      0.000      0.000
REMARK  Name = 
REMARK  6 active torsions:
REMARK  status: ('A' for Active; 'I' for Inactive)
REMARK    1  A    between atoms: C_1  and  O_2
REMARK    2  A    between atoms: O_2  and  C_3
REMARK    3  A    between atoms: C_6  and  C_7
REMARK    4  A    between atoms: C_20  and  O_21
REMARK    5  A    between atoms: O_21  and  C_22
REMARK    6  A    between atoms: C_23  and  O_24
REMARK                            x       y       z     vdW  Elec       q    Type
REMARK                         _______ _______ _______ _____ _____    ______ ____
ROOT
ATOM      1  C   UNL     1       2.030   7.311  18.483  0.00  0.00    +0.000 C 
ATOM      2  C   UNL     1       1.957   7.383  20.046  0.00  0.00    +0.000 C 
ATOM      3  O   UNL     1       2.081   8.727  20.596  0.00  0.00    +0.000 OA
ATOM      4  C   UNL     1       1.156   9.548  19.969  0.00  0.00    +0.000 A 
ATOM      5  C   UNL     1       1.102   9.504  18.565  0.00  0.00    +0.000 A 
ATOM      6  C   UNL     1       0.002  10.003  17.875  0.00  0.00    +0.000 A 
ATOM      7  C   UNL     1      -1.040  10.622  18.572  0.00  0.00    +0.000 A 
ATOM      8  C   UNL     1      -0.875  10.788  19.949  0.00  0.00    +0.000 A 
ATOM      9  O   UNL     1      -1.749  11.420  20.780  0.00  0.00    +0.000 OA
ATOM     10  C   UNL     1      -1.216  11.368  22.030  0.00  0.00    +0.000 A 
ATOM     11  C   UNL     1      -0.019  10.687  22.020  0.00  0.00    +0.000 A 
ATOM     12  C   UNL     1       0.206  10.296  20.675  0.00  0.00    +0.000 A 
ATOM     13  C   UNL     1       2.193   8.717  17.909  0.00  0.00    +0.000 C 
ENDROOT
BRANCH   1  17
ATOM     14  C   UNL     1       4.769   4.376  16.819  0.00  0.00    +0.000 A 
ATOM     15  C   UNL     1       5.090   5.733  16.833  0.00  0.00    +0.000 A 
ATOM     16  C   UNL     1       4.231   6.673  17.398  0.00  0.00    +0.000 A 
ATOM     17  C   UNL     1       3.002   6.281  17.944  0.00  0.00    +0.000 A 
ATOM     18  C   UNL     1       2.666   4.910  17.942  0.00  0.00    +0.000 A 
ATOM     19  C   UNL     1       3.547   3.965  17.372  0.00  0.00    +0.000 A 
BRANCH  14  21
ATOM     20  C   UNL     1       6.114   3.991  14.875  0.00  0.00    +0.000 C 
ATOM     21  O   UNL     1       5.710   3.620  16.180  0.00  0.00    +0.000 OA
ENDBRANCH  14  21
BRANCH  18  22
ATOM     22  O   UNL     1       1.392   4.612  18.370  0.00  0.00    +0.000 OA
ATOM     23  C   UNL     1       1.250   3.882  19.582  0.00  0.00    +0.000 C 
ENDBRANCH  18  22
BRANCH  19  24
ATOM     24  O   UNL     1       3.169   2.654  17.280  0.00  0.00    +0.000 OA
ATOM     25  H   UNL     1       2.218   2.680  17.073  0.00  0.00    +0.000 HD
ENDBRANCH  19  24
ENDBRANCH   1  17
TORSDOF 4
ENDMDL
MODEL 2
REMARK VINA RESULT:      -6.8      1.916      7.842
REMARK  Name = 
REMARK  6 active torsions:
REMARK  status: ('A' for Active; 'I' for Inactive)
REMARK    1  A    between atoms: C_1  and  O_2
REMARK    2  A    between atoms: O_2  and  C_3
REMARK    3  A    between atoms: C_6  and  C_7
REMARK    4  A    between atoms: C_20  and  O_21
REMARK    5  A    between atoms: O_21  and  C_22
REMARK    6  A    between atoms: C_23  and  O_24
REMARK                            x       y       z     vdW  Elec       q    Type
REMARK                         _______ _______ _______ _____ _____    ______ ____
ROOT
ATOM      1  C   UNL     1       0.893   9.156  19.240  0.00  0.00    +0.000 C 
ATOM      2  C   UNL     1       1.662   8.936  17.894  0.00  0.00    +0.000 C 
ATOM      3  O   UNL     1       2.956   8.281  18.037  0.00  0.00    +0.000 OA
ATOM      4  C   UNL     1       2.782   7.112  18.763  0.00  0.00    +0.000 A 
ATOM      5  C   UNL     1       2.046   7.200  19.958  0.00  0.00    +0.000 A 
ATOM      6  C   UNL     1       1.523   6.060  20.561  0.00  0.00    +0.000 A 
ATOM      7  C   UNL     1       1.783   4.798  20.018  0.00  0.00    +0.000 A 
ATOM      8  C   UNL     1       2.649   4.742  18.924  0.00  0.00    +0.000 A 
ATOM      9  O   UNL     1       3.068   3.604  18.304  0.00  0.00    +0.000 OA
ATOM     10  C   UNL     1       3.900   3.984  17.297  0.00  0.00    +0.000 A 
ATOM     11  C   UNL     1       4.003   5.356  17.244  0.00  0.00    +0.000 A 
ATOM     12  C   UNL     1       3.185   5.859  18.289  0.00  0.00    +0.000 A 
ATOM     13  C   UNL     1       1.709   8.589  20.399  0.00  0.00    +0.000 C 
ENDROOT
BRANCH   1  17
ATOM     14  C   UNL     1      -0.629  13.165  19.950  0.00  0.00    +0.000 A 
ATOM     15  C   UNL     1       0.638  12.787  20.393  0.00  0.00    +0.000 A 
ATOM     16  C   UNL     1       1.144  11.516  20.136  0.00  0.00    +0.000 A 
ATOM     17  C   UNL     1       0.377  10.568  19.447  0.00  0.00    +0.000 A 
ATOM     18  C   UNL     1      -0.905  10.937  18.989  0.00  0.00    +0.000 A 
ATOM     19  C   UNL     1      -1.406  12.231  19.250  0.00  0.00    +0.000 A 
BRANCH  14  21
ATOM     20  C   UNL     1      -0.656  15.516  19.488  0.00  0.00    +0.000 C 
ATOM     21  O   UNL     1      -0.967  14.429  20.341  0.00  0.00    +0.000 OA
ENDBRANCH  14  21
BRANCH  18  22
ATOM     22  O   UNL     1      -1.654   9.920  18.440  0.00  0.00    +0.000 OA
ATOM     23  C   UNL     1      -1.896   9.950  17.039  0.00  0.00    +0.000 C 
ENDBRANCH  18  22
BRANCH  19  24
ATOM     24  O   UNL     1      -2.688  12.547  18.894  0.00  0.00    +0.000 OA
ATOM     25  H   UNL     1      -2.600  13.274  18.253  0.00  0.00    +0.000 HD
ENDBRANCH  19  24
ENDBRANCH   1  17
TORSDOF 4
ENDMDL
MODEL 3
REMARK VINA RESULT:      -6.6      1.569      1.676
REMARK  Name = 
REMARK  6 active torsions:
REMARK  status: ('A' for Active; 'I' for Inactive)
REMARK    1  A    between atoms: C_1  and  O_2
REMARK    2  A    between atoms: O_2  and  C_3
REMARK    3  A    between atoms: C_6  and  C_7
REMARK    4  A    between atoms: C_20  and  O_21
REMARK    5  A    between atoms: O_21  and  C_22
REMARK    6  A    between atoms: C_23  and  O_24
REMARK                            x       y       z     vdW  Elec       q    Type
REMARK                         _______ _______ _______ _____ _____    ______ ____
ROOT
ATOM      1  C   UNL     1       1.586   8.043  18.908  0.00  0.00    +0.000 C 
ATOM      2  C   UNL     1       1.514   8.664  20.344  0.00  0.00    +0.000 C 
ATOM      3  O   UNL     1       1.399  10.117  20.370  0.00  0.00    +0.000 OA
ATOM      4  C   UNL     1       0.336  10.490  19.561  0.00  0.00    +0.000 A 
ATOM      5  C   UNL     1       0.280   9.931  18.272  0.00  0.00    +0.000 A 
ATOM      6  C   UNL     1      -0.898   9.957  17.531  0.00  0.00    +0.000 A 
ATOM      7  C   UNL     1      -2.029  10.606  18.037  0.00  0.00    +0.000 A 
ATOM      8  C   UNL     1      -1.885  11.285  19.248  0.00  0.00    +0.000 A 
ATOM      9  O   UNL     1      -2.852  12.022  19.861  0.00  0.00    +0.000 OA
ATOM     10  C   UNL     1      -2.308  12.516  21.006  0.00  0.00    +0.000 A 
ATOM     11  C   UNL     1      -1.009  12.085  21.151  0.00  0.00    +0.000 A 
ATOM     12  C   UNL     1      -0.728  11.275  20.021  0.00  0.00    +0.000 A 
ATOM     13  C   UNL     1       1.489   9.151  17.862  0.00  0.00    +0.000 C 
ENDROOT
BRANCH   1  17
ATOM     14  C   UNL     1       4.776   5.171  18.228  0.00  0.00    +0.000 A 
ATOM     15  C   UNL     1       4.661   6.318  17.444  0.00  0.00    +0.000 A 
ATOM     16  C   UNL     1       3.662   7.259  17.681  0.00  0.00    +0.000 A 
ATOM     17  C   UNL     1       2.724   7.062  18.702  0.00  0.00    +0.000 A 
ATOM     18  C   UNL     1       2.830   5.908  19.507  0.00  0.00    +0.000 A 
ATOM     19  C   UNL     1       3.851   4.964  19.261  0.00  0.00    +0.000 A 
BRANCH  14  21
ATOM     20  C   UNL     1       7.115   4.827  17.839  0.00  0.00    +0.000 C 
ATOM     21  O   UNL     1       5.783   4.348  17.811  0.00  0.00    +0.000 OA
ENDBRANCH  14  21
BRANCH  18  22
ATOM     22  O   UNL     1       1.801   5.712  20.400  0.00  0.00    +0.000 OA
ATOM     23  C   UNL     1       1.005   4.542  20.255  0.00  0.00    +0.000 C 
ENDBRANCH  18  22
BRANCH  19  24
ATOM     24  O   UNL     1       3.884   3.799  19.978  0.00  0.00    +0.000 OA
ATOM     25  H   UNL     1       3.024   3.376  19.811  0.00  0.00    +0.000 HD
ENDBRANCH  19  24
ENDBRANCH   1  17
TORSDOF 4
ENDMDL
MODEL 4
REMARK VINA RESULT:      -6.5      2.009      2.765
REMARK  Name = 
REMARK  6 active torsions:
REMARK  status: ('A' for Active; 'I' for Inactive)
REMARK    1  A    between atoms: C_1  and  O_2
REMARK    2  A    between atoms: O_2  and  C_3
REMARK    3  A    between atoms: C_6  and  C_7
REMARK    4  A    between atoms: C_20  and  O_21
REMARK    5  A    between atoms: O_21  and  C_22
REMARK    6  A    between atoms: C_23  and  O_24
REMARK                            x       y       z     vdW  Elec       q    Type
REMARK                         _______ _______ _______ _____ _____    ______ ____
ROOT
ATOM      1  C   UNL     1       3.797   7.320  18.095  0.00  0.00    +0.000 C 
ATOM      2  C   UNL     1       3.427   8.719  17.497  0.00  0.00    +0.000 C 
ATOM      3  O   UNL     1       1.997   9.003  17.462  0.00  0.00    +0.000 OA
ATOM      4  C   UNL     1       1.474   8.796  18.729  0.00  0.00    +0.000 A 
ATOM      5  C   UNL     1       1.805   7.591  19.374  0.00  0.00    +0.000 A 
ATOM      6  C   UNL     1       1.633   7.444  20.747  0.00  0.00    +0.000 A 
ATOM      7  C   UNL     1       1.060   8.477  21.496  0.00  0.00    +0.000 A 
ATOM      8  C   UNL     1       0.598   9.592  20.793  0.00  0.00    +0.000 A 
ATOM      9  O   UNL     1      -0.041  10.663  21.341  0.00  0.00    +0.000 OA
ATOM     10  C   UNL     1      -0.324  11.519  20.322  0.00  0.00    +0.000 A 
ATOM     11  C   UNL     1       0.148  11.025  19.127  0.00  0.00    +0.000 A 
ATOM     12  C   UNL     1       0.760   9.779  19.424  0.00  0.00    +0.000 A 
ATOM     13  C   UNL     1       2.526   6.591  18.526  0.00  0.00    +0.000 C 
ENDROOT
BRANCH   1  17
ATOM     14  C   UNL     1       6.432   4.885  15.641  0.00  0.00    +0.000 A 
ATOM     15  C   UNL     1       5.531   5.779  15.062  0.00  0.00    +0.000 A 
ATOM     16  C   UNL     1       4.710   6.587  15.846  0.00  0.00    +0.000 A 
ATOM     17  C   UNL     1       4.748   6.502  17.243  0.00  0.00    +0.000 A 
ATOM     18  C   UNL     1       5.658   5.606  17.843  0.00  0.00    +0.000 A 
ATOM     19  C   UNL     1       6.490   4.796  17.040  0.00  0.00    +0.000 A 
BRANCH  14  21
ATOM     20  C   UNL     1       6.514   3.925  13.448  0.00  0.00    +0.000 C 
ATOM     21  O   UNL     1       7.110   4.148  14.713  0.00  0.00    +0.000 OA
ENDBRANCH  14  21
BRANCH  18  22
ATOM     22  O   UNL     1       5.549   5.477  19.210  0.00  0.00    +0.000 OA
ATOM     23  C   UNL     1       4.904   4.318  19.721  0.00  0.00    +0.000 C 
ENDBRANCH  18  22
BRANCH  19  24
ATOM     24  O   UNL     1       7.294   3.857  17.626  0.00  0.00    +0.000 OA
ATOM     25  H   UNL     1       8.162   3.969  17.201  0.00  0.00    +0.000 HD
ENDBRANCH  19  24
ENDBRANCH   1  17
TORSDOF 4
ENDMDL
MODEL 5
REMARK VINA RESULT:      -6.5      2.057      7.358
REMARK  Name = 
REMARK  6 active torsions:
REMARK  status: ('A' for Active; 'I' for Inactive)
REMARK    1  A    between atoms: C_1  and  O_2
REMARK    2  A    between atoms: O_2  and  C_3
REMARK    3  A    between atoms: C_6  and  C_7
REMARK    4  A    between atoms: C_20  and  O_21
REMARK    5  A    between atoms: O_21  and  C_22
REMARK    6  A    between atoms: C_23  and  O_24
REMARK                            x       y       z     vdW  Elec       q    Type
REMARK                         _______ _______ _______ _____ _____    ______ ____
ROOT
ATOM      1  C   UNL     1       1.539   8.141  18.867  0.00  0.00    +0.000 C 
ATOM      2  C   UNL     1       2.263   7.535  17.617  0.00  0.00    +0.000 C 
ATOM      3  O   UNL     1       3.351   6.618  17.933  0.00  0.00    +0.000 OA
ATOM      4  C   UNL     1       2.874   5.653  18.808  0.00  0.00    +0.000 A 
ATOM      5  C   UNL     1       2.153   6.099  19.930  0.00  0.00    +0.000 A 
ATOM      6  C   UNL     1       1.348   5.227  20.656  0.00  0.00    +0.000 A 
ATOM      7  C   UNL     1       1.301   3.871  20.318  0.00  0.00    +0.000 A 
ATOM      8  C   UNL     1       2.154   3.439  19.300  0.00  0.00    +0.000 A 
ATOM      9  O   UNL     1       2.292   2.151  18.877  0.00  0.00    +0.000 OA
ATOM     10  C   UNL     1       3.218   2.159  17.880  0.00  0.00    +0.000 A 
ATOM     11  C   UNL     1       3.659   3.440  17.637  0.00  0.00    +0.000 A 
ATOM     12  C   UNL     1       2.966   4.281  18.546  0.00  0.00    +0.000 A 
ATOM     13  C   UNL     1       2.160   7.580  20.144  0.00  0.00    +0.000 C 
ENDROOT
BRANCH   1  17
ATOM     14  C   UNL     1       1.182  12.472  18.877  0.00  0.00    +0.000 A 
ATOM     15  C   UNL     1       2.186  11.835  18.149  0.00  0.00    +0.000 A 
ATOM     16  C   UNL     1       2.282  10.446  18.113  0.00  0.00    +0.000 A 
ATOM     17  C   UNL     1       1.385   9.649  18.836  0.00  0.00    +0.000 A 
ATOM     18  C   UNL     1       0.361  10.279  19.575  0.00  0.00    +0.000 A 
ATOM     19  C   UNL     1       0.270  11.689  19.598  0.00  0.00    +0.000 A 
BRANCH  14  21
ATOM     20  C   UNL     1       2.527  14.416  18.490  0.00  0.00    +0.000 C 
ATOM     21  O   UNL     1       1.283  13.833  18.830  0.00  0.00    +0.000 OA
ENDBRANCH  14  21
BRANCH  18  22
ATOM     22  O   UNL     1      -0.399   9.447  20.365  0.00  0.00    +0.000 OA
ATOM     23  C   UNL     1      -0.220   9.518  21.774  0.00  0.00    +0.000 C 
ENDBRANCH  18  22
BRANCH  19  24
ATOM     24  O   UNL     1      -0.660  12.295  20.399  0.00  0.00    +0.000 OA
ATOM     25  H   UNL     1      -0.964  13.067  19.891  0.00  0.00    +0.000 HD
ENDBRANCH  19  24
ENDBRANCH   1  17
TORSDOF 4
ENDMDL
MODEL 6
REMARK VINA RESULT:      -6.4      1.632      7.861
REMARK  Name = 
REMARK  6 active torsions:
REMARK  status: ('A' for Active; 'I' for Inactive)
REMARK    1  A    between atoms: C_1  and  O_2
REMARK    2  A    between atoms: O_2  and  C_3
REMARK    3  A    between atoms: C_6  and  C_7
REMARK    4  A    between atoms: C_20  and  O_21
REMARK    5  A    between atoms: O_21  and  C_22
REMARK    6  A    between atoms: C_23  and  O_24
REMARK                            x       y       z     vdW  Elec       q    Type
REMARK                         _______ _______ _______ _____ _____    ______ ____
ROOT
ATOM      1  C   UNL     1       1.159   8.733  19.075  0.00  0.00    +0.000 C 
ATOM      2  C   UNL     1       2.061   8.752  17.794  0.00  0.00    +0.000 C 
ATOM      3  O   UNL     1       3.354   8.097  17.955  0.00  0.00    +0.000 OA
ATOM      4  C   UNL     1       3.143   6.821  18.454  0.00  0.00    +0.000 A 
ATOM      5  C   UNL     1       2.293   6.696  19.568  0.00  0.00    +0.000 A 
ATOM      6  C   UNL     1       1.746   5.465  19.916  0.00  0.00    +0.000 A 
ATOM      7  C   UNL     1       2.093   4.316  19.199  0.00  0.00    +0.000 A 
ATOM      8  C   UNL     1       3.062   4.456  18.203  0.00  0.00    +0.000 A 
ATOM      9  O   UNL     1       3.571   3.444  17.446  0.00  0.00    +0.000 OA
ATOM     10  C   UNL     1       4.485   3.999  16.606  0.00  0.00    +0.000 A 
ATOM     11  C   UNL     1       4.554   5.361  16.793  0.00  0.00    +0.000 A 
ATOM     12  C   UNL     1       3.626   5.670  17.821  0.00  0.00    +0.000 A 
ATOM     13  C   UNL     1       1.875   7.987  20.199  0.00  0.00    +0.000 C 
ENDROOT
BRANCH   1  17
ATOM     14  C   UNL     1      -0.575  12.541  20.252  0.00  0.00    +0.000 A 
ATOM     15  C   UNL     1       0.353  11.890  21.066  0.00  0.00    +0.000 A 
ATOM     16  C   UNL     1       0.938  10.688  20.675  0.00  0.00    +0.000 A 
ATOM     17  C   UNL     1       0.587  10.083  19.462  0.00  0.00    +0.000 A 
ATOM     18  C   UNL     1      -0.347  10.732  18.626  0.00  0.00    +0.000 A 
ATOM     19  C   UNL     1      -0.929  11.953  19.029  0.00  0.00    +0.000 A 
BRANCH  14  21
ATOM     20  C   UNL     1      -2.122  13.562  21.769  0.00  0.00    +0.000 C 
ATOM     21  O   UNL     1      -1.072  13.675  20.827  0.00  0.00    +0.000 OA
ENDBRANCH  14  21
BRANCH  18  22
ATOM     22  O   UNL     1      -0.745  10.020  17.518  0.00  0.00    +0.000 OA
ATOM     23  C   UNL     1      -2.132   9.743  17.364  0.00  0.00    +0.000 C 
ENDBRANCH  18  22
BRANCH  19  24
ATOM     24  O   UNL     1      -1.910  12.523  18.263  0.00  0.00    +0.000 OA
ATOM     25  H   UNL     1      -2.744  12.285  18.704  0.00  0.00    +0.000 HD
ENDBRANCH  19  24
ENDBRANCH   1  17
TORSDOF 4
ENDMDL
MODEL 7
REMARK VINA RESULT:      -6.4      1.821      7.602
REMARK  Name = 
REMARK  6 active torsions:
REMARK  status: ('A' for Active; 'I' for Inactive)
REMARK    1  A    between atoms: C_1  and  O_2
REMARK    2  A    between atoms: O_2  and  C_3
REMARK    3  A    between atoms: C_6  and  C_7
REMARK    4  A    between atoms: C_20  and  O_21
REMARK    5  A    between atoms: O_21  and  C_22
REMARK    6  A    between atoms: C_23  and  O_24
REMARK                            x       y       z     vdW  Elec       q    Type
REMARK                         _______ _______ _______ _____ _____    ______ ____
ROOT
ATOM      1  C   UNL     1       1.977   8.053  19.677  0.00  0.00    +0.000 C 
ATOM      2  C   UNL     1       1.490   6.916  20.637  0.00  0.00    +0.000 C 
ATOM      3  O   UNL     1       1.384   5.602  20.013  0.00  0.00    +0.000 OA
ATOM      4  C   UNL     1       2.588   5.311  19.390  0.00  0.00    +0.000 A 
ATOM      5  C   UNL     1       3.138   6.301  18.556  0.00  0.00    +0.000 A 
ATOM      6  C   UNL     1       4.476   6.255  18.178  0.00  0.00    +0.000 A 
ATOM      7  C   UNL     1       5.278   5.179  18.568  0.00  0.00    +0.000 A 
ATOM      8  C   UNL     1       4.654   4.138  19.260  0.00  0.00    +0.000 A 
ATOM      9  O   UNL     1       5.256   2.985  19.665  0.00  0.00    +0.000 OA
ATOM     10  C   UNL     1       4.305   2.242  20.294  0.00  0.00    +0.000 A 
ATOM     11  C   UNL     1       3.104   2.914  20.322  0.00  0.00    +0.000 A 
ATOM     12  C   UNL     1       3.322   4.151  19.663  0.00  0.00    +0.000 A 
ATOM     13  C   UNL     1       2.251   7.476  18.290  0.00  0.00    +0.000 C 
ENDROOT
BRANCH   1  17
ATOM     14  C   UNL     1      -0.380  11.706  19.698  0.00  0.00    +0.000 A 
ATOM     15  C   UNL     1      -0.157  10.999  18.516  0.00  0.00    +0.000 A 
ATOM     16  C   UNL     1       0.566   9.809  18.511  0.00  0.00    +0.000 A 
ATOM     17  C   UNL     1       1.118   9.303  19.694  0.00  0.00    +0.000 A 
ATOM     18  C   UNL     1       0.897  10.004  20.899  0.00  0.00    +0.000 A 
ATOM     19  C   UNL     1       0.157  11.206  20.894  0.00  0.00    +0.000 A 
BRANCH  14  21
ATOM     20  C   UNL     1      -0.428  13.925  18.799  0.00  0.00    +0.000 C 
ATOM     21  O   UNL     1      -1.065  12.869  19.494  0.00  0.00    +0.000 OA
ENDBRANCH  14  21
BRANCH  18  22
ATOM     22  O   UNL     1       1.577   9.525  21.997  0.00  0.00    +0.000 OA
ATOM     23  C   UNL     1       0.834   9.267  23.181  0.00  0.00    +0.000 C 
ENDBRANCH  18  22
BRANCH  19  24
ATOM     24  O   UNL     1       0.035  11.934  22.046  0.00  0.00    +0.000 OA
ATOM     25  H   UNL     1       0.700  12.639  21.970  0.00  0.00    +0.000 HD
ENDBRANCH  19  24
ENDBRANCH   1  17
TORSDOF 4
ENDMDL
MODEL 8
REMARK VINA RESULT:      -6.3      2.239      8.666
REMARK  Name = 
REMARK  6 active torsions:
REMARK  status: ('A' for Active; 'I' for Inactive)
REMARK    1  A    between atoms: C_1  and  O_2
REMARK    2  A    between atoms: O_2  and  C_3
REMARK    3  A    between atoms: C_6  and  C_7
REMARK    4  A    between atoms: C_20  and  O_21
REMARK    5  A    between atoms: O_21  and  C_22
REMARK    6  A    between atoms: C_23  and  O_24
REMARK                            x       y       z     vdW  Elec       q    Type
REMARK                         _______ _______ _______ _____ _____    ______ ____
ROOT
ATOM      1  C   UNL     1       0.778  10.407  21.051  0.00  0.00    +0.000 C 
ATOM      2  C   UNL     1       1.299   9.206  21.910  0.00  0.00    +0.000 C 
ATOM      3  O   UNL     1       1.030   7.891  21.340  0.00  0.00    +0.000 OA
ATOM      4  C   UNL     1       1.497   7.872  20.035  0.00  0.00    +0.000 A 
ATOM      5  C   UNL     1       1.133   8.946  19.203  0.00  0.00    +0.000 A 
ATOM      6  C   UNL     1       1.820   9.200  18.021  0.00  0.00    +0.000 A 
ATOM      7  C   UNL     1       2.845   8.342  17.607  0.00  0.00    +0.000 A 
ATOM      8  C   UNL     1       3.068   7.200  18.379  0.00  0.00    +0.000 A 
ATOM      9  O   UNL     1       3.975   6.223  18.100  0.00  0.00    +0.000 OA
ATOM     10  C   UNL     1       3.873   5.294  19.089  0.00  0.00    +0.000 A 
ATOM     11  C   UNL     1       2.929   5.674  20.016  0.00  0.00    +0.000 A 
ATOM     12  C   UNL     1       2.408   6.916  19.571  0.00  0.00    +0.000 A 
ATOM     13  C   UNL     1       0.117   9.881  19.778  0.00  0.00    +0.000 C 
ENDROOT
BRANCH   1  17
ATOM     14  C   UNL     1      -1.644  13.329  23.169  0.00  0.00    +0.000 A 
ATOM     15  C   UNL     1      -1.870  11.961  23.321  0.00  0.00    +0.000 A 
ATOM     16  C   UNL     1      -1.073  11.021  22.673  0.00  0.00    +0.000 A 
ATOM     17  C   UNL     1      -0.036  11.427  21.823  0.00  0.00    +0.000 A 
ATOM     18  C   UNL     1       0.207  12.807  21.663  0.00  0.00    +0.000 A 
ATOM     19  C   UNL     1      -0.603  13.752  22.330  0.00  0.00    +0.000 A 
BRANCH  14  21
ATOM     20  C   UNL     1      -3.748  13.480  24.305  0.00  0.00    +0.000 C 
ATOM     21  O   UNL     1      -2.557  14.090  23.842  0.00  0.00    +0.000 OA
ENDBRANCH  14  21
BRANCH  18  22
ATOM     22  O   UNL     1       1.149  13.137  20.714  0.00  0.00    +0.000 OA
ATOM     23  C   UNL     1       0.690  13.566  19.439  0.00  0.00    +0.000 C 
ENDBRANCH  18  22
BRANCH  19  24
ATOM     24  O   UNL     1      -0.428  15.087  22.089  0.00  0.00    +0.000 OA
ATOM     25  H   UNL     1      -0.992  15.280  21.320  0.00  0.00    +0.000 HD
ENDBRANCH  19  24
ENDBRANCH   1  17
TORSDOF 4
ENDMDL
MODEL 9
REMARK VINA RESULT:      -6.3      1.526      2.198
REMARK  Name = 
REMARK  6 active torsions:
REMARK  status: ('A' for Active; 'I' for Inactive)
REMARK    1  A    between atoms: C_1  and  O_2
REMARK    2  A    between atoms: O_2  and  C_3
REMARK    3  A    between atoms: C_6  and  C_7
REMARK    4  A    between atoms: C_20  and  O_21
REMARK    5  A    between atoms: O_21  and  C_22
REMARK    6  A    between atoms: C_23  and  O_24
REMARK                            x       y       z     vdW  Elec       q    Type
REMARK                         _______ _______ _______ _____ _____    ______ ____
ROOT
ATOM      1  C   UNL     1       3.395   7.188  18.311  0.00  0.00    +0.000 C 
ATOM      2  C   UNL     1       3.162   8.567  17.607  0.00  0.00    +0.000 C 
ATOM      3  O   UNL     1       1.789   9.053  17.667  0.00  0.00    +0.000 OA
ATOM      4  C   UNL     1       1.373   9.039  18.990  0.00  0.00    +0.000 A 
ATOM      5  C   UNL     1       1.600   7.861  19.724  0.00  0.00    +0.000 A 
ATOM      6  C   UNL     1       1.549   7.864  21.115  0.00  0.00    +0.000 A 
ATOM      7  C   UNL     1       1.201   9.032  21.800  0.00  0.00    +0.000 A 
ATOM      8  C   UNL     1       0.829  10.136  21.030  0.00  0.00    +0.000 A 
ATOM      9  O   UNL     1       0.401  11.333  21.518  0.00  0.00    +0.000 OA
ATOM     10  C   UNL     1       0.137  12.127  20.445  0.00  0.00    +0.000 A 
ATOM     11  C   UNL     1       0.413  11.464  19.271  0.00  0.00    +0.000 A 
ATOM     12  C   UNL     1       0.875  10.174  19.639  0.00  0.00    +0.000 A 
ATOM     13  C   UNL     1       2.086   6.695  18.924  0.00  0.00    +0.000 C 
ENDROOT
BRANCH   1  17
ATOM     14  C   UNL     1       5.409   4.254  15.816  0.00  0.00    +0.000 A 
ATOM     15  C   UNL     1       5.459   5.614  15.510  0.00  0.00    +0.000 A 
ATOM     16  C   UNL     1       4.845   6.560  16.327  0.00  0.00    +0.000 A 
ATOM     17  C   UNL     1       4.134   6.167  17.468  0.00  0.00    +0.000 A 
ATOM     18  C   UNL     1       4.079   4.795  17.792  0.00  0.00    +0.000 A 
ATOM     19  C   UNL     1       4.710   3.844  16.960  0.00  0.00    +0.000 A 
BRANCH  14  21
ATOM     20  C   UNL     1       6.279   4.034  13.595  0.00  0.00    +0.000 C 
ATOM     21  O   UNL     1       6.024   3.481  14.873  0.00  0.00    +0.000 OA
ENDBRANCH  14  21
BRANCH  18  22
ATOM     22  O   UNL     1       3.255   4.467  18.845  0.00  0.00    +0.000 OA
ATOM     23  C   UNL     1       3.809   3.713  19.916  0.00  0.00    +0.000 C 
ENDBRANCH  18  22
BRANCH  19  24
ATOM     24  O   UNL     1       4.565   2.509  17.223  0.00  0.00    +0.000 OA
ATOM     25  H   UNL     1       4.837   2.060  16.405  0.00  0.00    +0.000 HD
ENDBRANCH  19  24
ENDBRANCH   1  17
TORSDOF 4
ENDMDL
