MODEL 1
REMARK VINA RESULT:      -7.1      0.000      0.000
REMARK  Name = 
REMARK  5 active torsions:
REMARK  status: ('A' for Active; 'I' for Inactive)
REMARK    1  A    between atoms: C_1  and  O_2
REMARK    2  A    between atoms: O_2  and  C_3
REMARK    3  A    between atoms: C_7  and  C_8
REMARK    4  A    between atoms: C_15  and  O_16
REMARK    5  A    between atoms: O_16  and  C_17
REMARK                            x       y       z     vdW  Elec       q    Type
REMARK                         _______ _______ _______ _____ _____    ______ ____
ROOT
ATOM      1  C   UNL     1      -2.050  13.330  22.164  0.00  0.00    +0.000 A 
ATOM      2  C   UNL     1      -1.745  12.465  23.209  0.00  0.00    +0.000 A 
ATOM      3  C   UNL     1      -1.013  11.308  22.975  0.00  0.00    +0.000 A 
ATOM      4  C   UNL     1      -0.600  10.951  21.681  0.00  0.00    +0.000 A 
ATOM      5  C   UNL     1       0.268   9.764  21.462  0.00  0.00    +0.000 A 
ATOM      6  C   UNL     1       0.592   9.378  20.204  0.00  0.00    +0.000 A 
ATOM      7  N   UNL     1       0.223  10.186  19.126  0.00  0.00    +0.000 N 
ATOM      8  C   UNL     1      -0.599  11.309  19.236  0.00  0.00    +0.000 A 
ATOM      9  O   UNL     1      -1.052  11.842  18.227  0.00  0.00    +0.000 OA
ATOM     10  C   UNL     1      -0.968  11.790  20.603  0.00  0.00    +0.000 A 
ATOM     11  C   UNL     1      -1.636  13.025  20.850  0.00  0.00    +0.000 A 
ATOM     12  C   UNL     1       0.645   9.823  17.766  0.00  0.00    +0.000 C 
ATOM     13  C   UNL     1       2.061   9.261  17.721  0.00  0.00    +0.000 C 
ATOM     14  C   UNL     1       2.160   8.109  18.683  0.00  0.00    +0.000 A 
ATOM     15  C   UNL     1       3.004   7.023  18.388  0.00  0.00    +0.000 A 
ATOM     16  C   UNL     1       3.002   5.958  19.256  0.00  0.00    +0.000 A 
ATOM     17  C   UNL     1       2.159   5.918  20.335  0.00  0.00    +0.000 A 
ATOM     18  C   UNL     1       1.310   6.964  20.640  0.00  0.00    +0.000 A 
ATOM     19  C   UNL     1       1.373   8.134  19.865  0.00  0.00    +0.000 A 
ATOM     20  O   UNL     1       2.291   4.778  21.060  0.00  0.00    +0.000 OA
ATOM     21  C   UNL     1       3.374   4.137  20.356  0.00  0.00    +0.000 C 
ATOM     22  O   UNL     1       3.770   4.842  19.160  0.00  0.00    +0.000 OA
ENDROOT
BRANCH   1  24
ATOM     23  C   UNL     1      -4.068  14.469  22.636  0.00  0.00    +0.000 C 
ATOM     24  O   UNL     1      -2.648  14.489  22.590  0.00  0.00    +0.000 OA
ENDBRANCH   1  24
BRANCH   5  25
ATOM     25  C   UNL     1       0.938   9.069  22.612  0.00  0.00    +0.000 C 
ATOM     26  O   UNL     1       1.971   9.451  23.148  0.00  0.00    +0.000 OA
ENDBRANCH   5  25
BRANCH  11  27
ATOM     27  O   UNL     1      -1.602  14.097  19.987  0.00  0.00    +0.000 OA
ATOM     28  C   UNL     1      -0.431  14.907  19.973  0.00  0.00    +0.000 C 
ENDBRANCH  11  27
TORSDOF 3
ENDMDL
MODEL 2
REMARK VINA RESULT:      -6.5      1.504      7.961
REMARK  Name = 
REMARK  5 active torsions:
REMARK  status: ('A' for Active; 'I' for Inactive)
REMARK    1  A    between atoms: C_1  and  O_2
REMARK    2  A    between atoms: O_2  and  C_3
REMARK    3  A    between atoms: C_7  and  C_8
REMARK    4  A    between atoms: C_15  and  O_16
REMARK    5  A    between atoms: O_16  and  C_17
REMARK                            x       y       z     vdW  Elec       q    Type
REMARK                         _______ _______ _______ _____ _____    ______ ____
ROOT
ATOM      1  C   UNL     1       3.677   6.587  17.817  0.00  0.00    +0.000 A 
ATOM      2  C   UNL     1       3.456   7.721  17.043  0.00  0.00    +0.000 A 
ATOM      3  C   UNL     1       2.626   8.735  17.503  0.00  0.00    +0.000 A 
ATOM      4  C   UNL     1       1.952   8.632  18.730  0.00  0.00    +0.000 A 
ATOM      5  C   UNL     1       1.150   9.770  19.253  0.00  0.00    +0.000 A 
ATOM      6  C   UNL     1       0.434   9.631  20.396  0.00  0.00    +0.000 A 
ATOM      7  N   UNL     1       0.572   8.464  21.151  0.00  0.00    +0.000 N 
ATOM      8  C   UNL     1       1.293   7.344  20.733  0.00  0.00    +0.000 A 
ATOM      9  O   UNL     1       1.195   6.284  21.346  0.00  0.00    +0.000 OA
ATOM     10  C   UNL     1       2.117   7.450  19.490  0.00  0.00    +0.000 A 
ATOM     11  C   UNL     1       3.039   6.448  19.068  0.00  0.00    +0.000 A 
ATOM     12  C   UNL     1      -0.131   8.340  22.436  0.00  0.00    +0.000 C 
ATOM     13  C   UNL     1      -0.144   9.644  23.225  0.00  0.00    +0.000 C 
ATOM     14  C   UNL     1      -0.713  10.734  22.359  0.00  0.00    +0.000 A 
ATOM     15  C   UNL     1      -1.468  11.767  22.942  0.00  0.00    +0.000 A 
ATOM     16  C   UNL     1      -2.035  12.696  22.103  0.00  0.00    +0.000 A 
ATOM     17  C   UNL     1      -1.930  12.586  20.742  0.00  0.00    +0.000 A 
ATOM     18  C   UNL     1      -1.208  11.573  20.142  0.00  0.00    +0.000 A 
ATOM     19  C   UNL     1      -0.493  10.679  20.956  0.00  0.00    +0.000 A 
ATOM     20  O   UNL     1      -2.571  13.587  20.085  0.00  0.00    +0.000 OA
ATOM     21  C   UNL     1      -3.027  14.387  21.196  0.00  0.00    +0.000 C 
ATOM     22  O   UNL     1      -2.762  13.780  22.478  0.00  0.00    +0.000 OA
ENDROOT
BRANCH   1  24
ATOM     23  C   UNL     1       5.799   6.397  16.789  0.00  0.00    +0.000 C 
ATOM     24  O   UNL     1       4.630   5.757  17.283  0.00  0.00    +0.000 OA
ENDBRANCH   1  24
BRANCH   5  25
ATOM     25  C   UNL     1       1.239  11.133  18.633  0.00  0.00    +0.000 C 
ATOM     26  O   UNL     1       2.103  11.961  18.896  0.00  0.00    +0.000 OA
ENDBRANCH   5  25
BRANCH  11  27
ATOM     27  O   UNL     1       3.625   5.542  19.922  0.00  0.00    +0.000 OA
ATOM     28  C   UNL     1       3.255   4.172  19.802  0.00  0.00    +0.000 C 
ENDBRANCH  11  27
TORSDOF 3
ENDMDL
MODEL 3
REMARK VINA RESULT:      -6.4      1.791      8.277
REMARK  Name = 
REMARK  5 active torsions:
REMARK  status: ('A' for Active; 'I' for Inactive)
REMARK    1  A    between atoms: C_1  and  O_2
REMARK    2  A    between atoms: O_2  and  C_3
REMARK    3  A    between atoms: C_7  and  C_8
REMARK    4  A    between atoms: C_15  and  O_16
REMARK    5  A    between atoms: O_16  and  C_17
REMARK                            x       y       z     vdW  Elec       q    Type
REMARK                         _______ _______ _______ _____ _____    ______ ____
ROOT
ATOM      1  C   UNL     1       4.780   5.652  17.358  0.00  0.00    +0.000 A 
ATOM      2  C   UNL     1       4.511   6.687  16.470  0.00  0.00    +0.000 A 
ATOM      3  C   UNL     1       3.616   7.693  16.811  0.00  0.00    +0.000 A 
ATOM      4  C   UNL     1       2.924   7.675  18.033  0.00  0.00    +0.000 A 
ATOM      5  C   UNL     1       2.048   8.811  18.426  0.00  0.00    +0.000 A 
ATOM      6  C   UNL     1       1.319   8.746  19.567  0.00  0.00    +0.000 A 
ATOM      7  N   UNL     1       1.508   7.671  20.438  0.00  0.00    +0.000 N 
ATOM      8  C   UNL     1       2.299   6.559  20.147  0.00  0.00    +0.000 A 
ATOM      9  O   UNL     1       2.249   5.563  20.864  0.00  0.00    +0.000 OA
ATOM     10  C   UNL     1       3.140   6.587  18.912  0.00  0.00    +0.000 A 
ATOM     11  C   UNL     1       4.127   5.604  18.608  0.00  0.00    +0.000 A 
ATOM     12  C   UNL     1       0.787   7.637  21.719  0.00  0.00    +0.000 C 
ATOM     13  C   UNL     1       0.684   9.011  22.371  0.00  0.00    +0.000 C 
ATOM     14  C   UNL     1       0.071   9.973  21.390  0.00  0.00    +0.000 A 
ATOM     15  C   UNL     1      -0.753  11.014  21.854  0.00  0.00    +0.000 A 
ATOM     16  C   UNL     1      -1.354  11.819  20.917  0.00  0.00    +0.000 A 
ATOM     17  C   UNL     1      -1.216  11.578  19.575  0.00  0.00    +0.000 A 
ATOM     18  C   UNL     1      -0.426  10.554  19.092  0.00  0.00    +0.000 A 
ATOM     19  C   UNL     1       0.322   9.789  20.003  0.00  0.00    +0.000 A 
ATOM     20  O   UNL     1      -1.899  12.468  18.811  0.00  0.00    +0.000 OA
ATOM     21  C   UNL     1      -2.422  13.348  19.827  0.00  0.00    +0.000 C 
ATOM     22  O   UNL     1      -2.149  12.890  21.169  0.00  0.00    +0.000 OA
ENDROOT
BRANCH   1  24
ATOM     23  C   UNL     1       5.517   4.089  15.742  0.00  0.00    +0.000 C 
ATOM     24  O   UNL     1       5.789   4.829  16.925  0.00  0.00    +0.000 OA
ENDBRANCH   1  24
BRANCH   5  25
ATOM     25  C   UNL     1       2.072  10.108  17.671  0.00  0.00    +0.000 C 
ATOM     26  O   UNL     1       2.659  11.117  18.043  0.00  0.00    +0.000 OA
ENDBRANCH   5  25
BRANCH  11  27
ATOM     27  O   UNL     1       4.745   4.824  19.558  0.00  0.00    +0.000 OA
ATOM     28  C   UNL     1       4.428   3.436  19.596  0.00  0.00    +0.000 C 
ENDBRANCH  11  27
TORSDOF 3
ENDMDL
MODEL 4
REMARK VINA RESULT:      -6.2      3.263      4.996
REMARK  Name = 
REMARK  5 active torsions:
REMARK  status: ('A' for Active; 'I' for Inactive)
REMARK    1  A    between atoms: C_1  and  O_2
REMARK    2  A    between atoms: O_2  and  C_3
REMARK    3  A    between atoms: C_7  and  C_8
REMARK    4  A    between atoms: C_15  and  O_16
REMARK    5  A    between atoms: O_16  and  C_17
REMARK                            x       y       z     vdW  Elec       q    Type
REMARK                         _______ _______ _______ _____ _____    ______ ____
ROOT
ATOM      1  C   UNL     1      -6.392  13.312  18.394  0.00  0.00    +0.000 A 
ATOM      2  C   UNL     1      -6.043  12.614  17.242  0.00  0.00    +0.000 A 
ATOM      3  C   UNL     1      -4.869  11.873  17.198  0.00  0.00    +0.000 A 
ATOM      4  C   UNL     1      -3.981  11.839  18.285  0.00  0.00    +0.000 A 
ATOM      5  C   UNL     1      -2.782  10.960  18.259  0.00  0.00    +0.000 A 
ATOM      6  C   UNL     1      -1.886  10.997  19.276  0.00  0.00    +0.000 A 
ATOM      7  N   UNL     1      -2.173  11.759  20.411  0.00  0.00    +0.000 N 
ATOM      8  C   UNL     1      -3.266  12.620  20.518  0.00  0.00    +0.000 A 
ATOM      9  O   UNL     1      -3.337  13.413  21.454  0.00  0.00    +0.000 OA
ATOM     10  C   UNL     1      -4.295  12.603  19.434  0.00  0.00    +0.000 A 
ATOM     11  C   UNL     1      -5.542  13.289  19.520  0.00  0.00    +0.000 A 
ATOM     12  C   UNL     1      -1.251  11.737  21.555  0.00  0.00    +0.000 C 
ATOM     13  C   UNL     1      -0.671  10.351  21.814  0.00  0.00    +0.000 C 
ATOM     14  C   UNL     1      -0.034   9.844  20.550  0.00  0.00    +0.000 A 
ATOM     15  C   UNL     1       1.105   9.022  20.622  0.00  0.00    +0.000 A 
ATOM     16  C   UNL     1       1.700   8.649  19.441  0.00  0.00    +0.000 A 
ATOM     17  C   UNL     1       1.246   9.113  18.235  0.00  0.00    +0.000 A 
ATOM     18  C   UNL     1       0.140   9.933  18.135  0.00  0.00    +0.000 A 
ATOM     19  C   UNL     1      -0.588  10.231  19.300  0.00  0.00    +0.000 A 
ATOM     20  O   UNL     1       1.974   8.649  17.188  0.00  0.00    +0.000 OA
ATOM     21  C   UNL     1       2.894   7.771  17.869  0.00  0.00    +0.000 C 
ATOM     22  O   UNL     1       2.778   7.835  19.307  0.00  0.00    +0.000 OA
ENDROOT
BRANCH   1  24
ATOM     23  C   UNL     1      -7.684  15.260  18.032  0.00  0.00    +0.000 C 
ATOM     24  O   UNL     1      -7.644  13.868  18.318  0.00  0.00    +0.000 OA
ENDBRANCH   1  24
BRANCH   5  25
ATOM     25  C   UNL     1      -2.616   9.903  17.206  0.00  0.00    +0.000 C 
ATOM     26  O   UNL     1      -2.357  10.129  16.030  0.00  0.00    +0.000 OA
ENDBRANCH   5  25
BRANCH  11  27
ATOM     27  O   UNL     1      -6.145  13.631  20.710  0.00  0.00    +0.000 OA
ATOM     28  C   UNL     1      -6.779  12.600  21.459  0.00  0.00    +0.000 C 
ENDBRANCH  11  27
TORSDOF 3
ENDMDL
MODEL 5
REMARK VINA RESULT:      -6.2      1.755      7.697
REMARK  Name = 
REMARK  5 active torsions:
REMARK  status: ('A' for Active; 'I' for Inactive)
REMARK    1  A    between atoms: C_1  and  O_2
REMARK    2  A    between atoms: O_2  and  C_3
REMARK    3  A    between atoms: C_7  and  C_8
REMARK    4  A    between atoms: C_15  and  O_16
REMARK    5  A    between atoms: O_16  and  C_17
REMARK                            x       y       z     vdW  Elec       q    Type
REMARK                         _______ _______ _______ _____ _____    ______ ____
ROOT
ATOM      1  C   UNL     1       2.992   3.982  19.567  0.00  0.00    +0.000 A 
ATOM      2  C   UNL     1       2.389   4.144  20.809  0.00  0.00    +0.000 A 
ATOM      3  C   UNL     1       1.833   5.366  21.168  0.00  0.00    +0.000 A 
ATOM      4  C   UNL     1       1.902   6.480  20.316  0.00  0.00    +0.000 A 
ATOM      5  C   UNL     1       1.213   7.750  20.672  0.00  0.00    +0.000 A 
ATOM      6  C   UNL     1       1.355   8.845  19.887  0.00  0.00    +0.000 A 
ATOM      7  N   UNL     1       2.032   8.731  18.670  0.00  0.00    +0.000 N 
ATOM      8  C   UNL     1       2.716   7.585  18.262  0.00  0.00    +0.000 A 
ATOM      9  O   UNL     1       3.462   7.627  17.287  0.00  0.00    +0.000 OA
ATOM     10  C   UNL     1       2.576   6.342  19.081  0.00  0.00    +0.000 A 
ATOM     11  C   UNL     1       3.065   5.068  18.669  0.00  0.00    +0.000 A 
ATOM     12  C   UNL     1       2.116   9.891  17.772  0.00  0.00    +0.000 C 
ATOM     13  C   UNL     1       0.825  10.702  17.740  0.00  0.00    +0.000 C 
ATOM     14  C   UNL     1       0.456  11.088  19.146  0.00  0.00    +0.000 A 
ATOM     15  C   UNL     1      -0.187  12.315  19.388  0.00  0.00    +0.000 A 
ATOM     16  C   UNL     1      -0.433  12.660  20.694  0.00  0.00    +0.000 A 
ATOM     17  C   UNL     1      -0.008  11.875  21.733  0.00  0.00    +0.000 A 
ATOM     18  C   UNL     1       0.640  10.673  21.525  0.00  0.00    +0.000 A 
ATOM     19  C   UNL     1       0.792  10.206  20.208  0.00  0.00    +0.000 A 
ATOM     20  O   UNL     1      -0.327  12.393  22.946  0.00  0.00    +0.000 OA
ATOM     21  C   UNL     1      -1.076  13.560  22.550  0.00  0.00    +0.000 C 
ATOM     22  O   UNL     1      -1.072  13.779  21.123  0.00  0.00    +0.000 OA
ENDROOT
BRANCH   1  24
ATOM     23  C   UNL     1       4.463   2.199  20.070  0.00  0.00    +0.000 C 
ATOM     24  O   UNL     1       3.357   2.683  19.319  0.00  0.00    +0.000 OA
ENDBRANCH   1  24
BRANCH   5  25
ATOM     25  C   UNL     1       0.224   7.808  21.799  0.00  0.00    +0.000 C 
ATOM     26  O   UNL     1      -0.993   7.825  21.656  0.00  0.00    +0.000 OA
ENDBRANCH   5  25
BRANCH  11  27
ATOM     27  O   UNL     1       3.279   4.721  17.354  0.00  0.00    +0.000 OA
ATOM     28  C   UNL     1       4.620   4.508  16.927  0.00  0.00    +0.000 C 
ENDBRANCH  11  27
TORSDOF 3
ENDMDL
MODEL 6
REMARK VINA RESULT:      -6.2      5.162      6.664
REMARK  Name = 
REMARK  5 active torsions:
REMARK  status: ('A' for Active; 'I' for Inactive)
REMARK    1  A    between atoms: C_1  and  O_2
REMARK    2  A    between atoms: O_2  and  C_3
REMARK    3  A    between atoms: C_7  and  C_8
REMARK    4  A    between atoms: C_15  and  O_16
REMARK    5  A    between atoms: O_16  and  C_17
REMARK                            x       y       z     vdW  Elec       q    Type
REMARK                         _______ _______ _______ _____ _____    ______ ____
ROOT
ATOM      1  C   UNL     1      -2.256  15.075  24.845  0.00  0.00    +0.000 A 
ATOM      2  C   UNL     1      -1.098  14.798  24.128  0.00  0.00    +0.000 A 
ATOM      3  C   UNL     1      -1.171  14.189  22.882  0.00  0.00    +0.000 A 
ATOM      4  C   UNL     1      -2.400  13.792  22.331  0.00  0.00    +0.000 A 
ATOM      5  C   UNL     1      -2.469  13.235  20.953  0.00  0.00    +0.000 A 
ATOM      6  C   UNL     1      -3.647  12.777  20.462  0.00  0.00    +0.000 A 
ATOM      7  N   UNL     1      -4.816  12.966  21.202  0.00  0.00    +0.000 N 
ATOM      8  C   UNL     1      -4.844  13.469  22.504  0.00  0.00    +0.000 A 
ATOM      9  O   UNL     1      -5.876  13.407  23.166  0.00  0.00    +0.000 OA
ATOM     10  C   UNL     1      -3.577  14.007  23.086  0.00  0.00    +0.000 A 
ATOM     11  C   UNL     1      -3.516  14.716  24.322  0.00  0.00    +0.000 A 
ATOM     12  C   UNL     1      -6.109  12.552  20.639  0.00  0.00    +0.000 C 
ATOM     13  C   UNL     1      -6.216  12.835  19.145  0.00  0.00    +0.000 C 
ATOM     14  C   UNL     1      -5.050  12.196  18.442  0.00  0.00    +0.000 A 
ATOM     15  C   UNL     1      -5.212  11.688  17.141  0.00  0.00    +0.000 A 
ATOM     16  C   UNL     1      -4.142  11.042  16.570  0.00  0.00    +0.000 A 
ATOM     17  C   UNL     1      -2.980  10.835  17.263  0.00  0.00    +0.000 A 
ATOM     18  C   UNL     1      -2.799  11.309  18.548  0.00  0.00    +0.000 A 
ATOM     19  C   UNL     1      -3.808  12.097  19.126  0.00  0.00    +0.000 A 
ATOM     20  O   UNL     1      -2.049  10.163  16.538  0.00  0.00    +0.000 OA
ATOM     21  C   UNL     1      -2.734  10.039  15.274  0.00  0.00    +0.000 C 
ATOM     22  O   UNL     1      -4.094  10.520  15.317  0.00  0.00    +0.000 OA
ENDROOT
BRANCH   1  24
ATOM     23  C   UNL     1      -0.646  15.999  26.312  0.00  0.00    +0.000 C 
ATOM     24  O   UNL     1      -2.015  15.805  25.982  0.00  0.00    +0.000 OA
ENDBRANCH   1  24
BRANCH   5  25
ATOM     25  C   UNL     1      -1.295  13.314  20.023  0.00  0.00    +0.000 C 
ATOM     26  O   UNL     1      -0.902  14.344  19.487  0.00  0.00    +0.000 OA
ENDBRANCH   5  25
BRANCH  11  27
ATOM     27  O   UNL     1      -4.586  15.386  24.870  0.00  0.00    +0.000 OA
ATOM     28  C   UNL     1      -4.916  16.667  24.342  0.00  0.00    +0.000 C 
ENDBRANCH  11  27
TORSDOF 3
ENDMDL
MODEL 7
REMARK VINA RESULT:      -6.1      1.828      2.567
REMARK  Name = 
REMARK  5 active torsions:
REMARK  status: ('A' for Active; 'I' for Inactive)
REMARK    1  A    between atoms: C_1  and  O_2
REMARK    2  A    between atoms: O_2  and  C_3
REMARK    3  A    between atoms: C_7  and  C_8
REMARK    4  A    between atoms: C_15  and  O_16
REMARK    5  A    between atoms: O_16  and  C_17
REMARK                            x       y       z     vdW  Elec       q    Type
REMARK                         _______ _______ _______ _____ _____    ______ ____
ROOT
ATOM      1  C   UNL     1       0.129  13.098  19.994  0.00  0.00    +0.000 A 
ATOM      2  C   UNL     1      -0.288  12.440  21.146  0.00  0.00    +0.000 A 
ATOM      3  C   UNL     1       0.039  11.105  21.351  0.00  0.00    +0.000 A 
ATOM      4  C   UNL     1       0.753  10.370  20.391  0.00  0.00    +0.000 A 
ATOM      5  C   UNL     1       1.182   8.973  20.671  0.00  0.00    +0.000 A 
ATOM      6  C   UNL     1       1.796   8.243  19.709  0.00  0.00    +0.000 A 
ATOM      7  N   UNL     1       2.150   8.859  18.506  0.00  0.00    +0.000 N 
ATOM      8  C   UNL     1       1.780  10.158  18.154  0.00  0.00    +0.000 A 
ATOM      9  O   UNL     1       1.942  10.554  17.003  0.00  0.00    +0.000 OA
ATOM     10  C   UNL     1       1.119  11.013  19.186  0.00  0.00    +0.000 A 
ATOM     11  C   UNL     1       0.869  12.407  19.012  0.00  0.00    +0.000 A 
ATOM     12  C   UNL     1       2.895   8.100  17.491  0.00  0.00    +0.000 C 
ATOM     13  C   UNL     1       3.946   7.179  18.101  0.00  0.00    +0.000 C 
ATOM     14  C   UNL     1       3.285   6.289  19.117  0.00  0.00    +0.000 A 
ATOM     15  C   UNL     1       3.754   4.977  19.308  0.00  0.00    +0.000 A 
ATOM     16  C   UNL     1       3.070   4.175  20.188  0.00  0.00    +0.000 A 
ATOM     17  C   UNL     1       1.929   4.608  20.810  0.00  0.00    +0.000 A 
ATOM     18  C   UNL     1       1.436   5.885  20.629  0.00  0.00    +0.000 A 
ATOM     19  C   UNL     1       2.175   6.791  19.849  0.00  0.00    +0.000 A 
ATOM     20  O   UNL     1       1.387   3.667  21.625  0.00  0.00    +0.000 OA
ATOM     21  C   UNL     1       2.367   2.615  21.507  0.00  0.00    +0.000 C 
ATOM     22  O   UNL     1       3.391   2.900  20.530  0.00  0.00    +0.000 OA
ENDROOT
BRANCH   1  24
ATOM     23  C   UNL     1       0.217  15.127  21.208  0.00  0.00    +0.000 C 
ATOM     24  O   UNL     1      -0.153  14.441  20.019  0.00  0.00    +0.000 OA
ENDBRANCH   1  24
BRANCH   5  25
ATOM     25  C   UNL     1       1.100   8.398  22.055  0.00  0.00    +0.000 C 
ATOM     26  O   UNL     1       1.461   8.979  23.071  0.00  0.00    +0.000 OA
ENDBRANCH   5  25
BRANCH  11  27
ATOM     27  O   UNL     1       1.581  13.208  18.149  0.00  0.00    +0.000 OA
ATOM     28  C   UNL     1       2.877  13.639  18.552  0.00  0.00    +0.000 C 
ENDBRANCH  11  27
TORSDOF 3
ENDMDL
MODEL 8
REMARK VINA RESULT:      -6.0      2.437      4.647
REMARK  Name = 
REMARK  5 active torsions:
REMARK  status: ('A' for Active; 'I' for Inactive)
REMARK    1  A    between atoms: C_1  and  O_2
REMARK    2  A    between atoms: O_2  and  C_3
REMARK    3  A    between atoms: C_7  and  C_8
REMARK    4  A    between atoms: C_15  and  O_16
REMARK    5  A    between atoms: O_16  and  C_17
REMARK                            x       y       z     vdW  Elec       q    Type
REMARK                         _______ _______ _______ _____ _____    ______ ____
ROOT
ATOM      1  C   UNL     1      -5.562  14.482  21.524  0.00  0.00    +0.000 A 
ATOM      2  C   UNL     1      -5.372  14.336  20.155  0.00  0.00    +0.000 A 
ATOM      3  C   UNL     1      -4.358  13.520  19.669  0.00  0.00    +0.000 A 
ATOM      4  C   UNL     1      -3.472  12.858  20.533  0.00  0.00    +0.000 A 
ATOM      5  C   UNL     1      -2.458  11.909  19.999  0.00  0.00    +0.000 A 
ATOM      6  C   UNL     1      -1.552  11.340  20.831  0.00  0.00    +0.000 A 
ATOM      7  N   UNL     1      -1.670  11.540  22.209  0.00  0.00    +0.000 N 
ATOM      8  C   UNL     1      -2.581  12.420  22.795  0.00  0.00    +0.000 A 
ATOM      9  O   UNL     1      -2.484  12.703  23.987  0.00  0.00    +0.000 OA
ATOM     10  C   UNL     1      -3.615  13.058  21.926  0.00  0.00    +0.000 A 
ATOM     11  C   UNL     1      -4.711  13.818  22.432  0.00  0.00    +0.000 A 
ATOM     12  C   UNL     1      -0.746  10.857  23.125  0.00  0.00    +0.000 C 
ATOM     13  C   UNL     1      -0.430   9.432  22.685  0.00  0.00    +0.000 C 
ATOM     14  C   UNL     1       0.077   9.459  21.269  0.00  0.00    +0.000 A 
ATOM     15  C   UNL     1       1.044   8.525  20.855  0.00  0.00    +0.000 A 
ATOM     16  C   UNL     1       1.535   8.638  19.577  0.00  0.00    +0.000 A 
ATOM     17  C   UNL     1       1.153   9.663  18.754  0.00  0.00    +0.000 A 
ATOM     18  C   UNL     1       0.217  10.603  19.139  0.00  0.00    +0.000 A 
ATOM     19  C   UNL     1      -0.420  10.452  20.383  0.00  0.00    +0.000 A 
ATOM     20  O   UNL     1       1.761   9.615  17.541  0.00  0.00    +0.000 OA
ATOM     21  C   UNL     1       2.514   8.391  17.667  0.00  0.00    +0.000 C 
ATOM     22  O   UNL     1       2.440   7.814  18.989  0.00  0.00    +0.000 OA
ENDROOT
BRANCH   1  24
ATOM     23  C   UNL     1      -6.560  16.616  21.746  0.00  0.00    +0.000 C 
ATOM     24  O   UNL     1      -6.689  15.203  21.830  0.00  0.00    +0.000 OA
ENDBRANCH   1  24
BRANCH   5  25
ATOM     25  C   UNL     1      -2.513  11.433  18.577  0.00  0.00    +0.000 C 
ATOM     26  O   UNL     1      -3.231  10.525  18.176  0.00  0.00    +0.000 OA
ENDBRANCH   5  25
BRANCH  11  27
ATOM     27  O   UNL     1      -5.215  13.675  23.705  0.00  0.00    +0.000 OA
ATOM     28  C   UNL     1      -6.224  12.692  23.918  0.00  0.00    +0.000 C 
ENDBRANCH  11  27
TORSDOF 3
ENDMDL
MODEL 9
REMARK VINA RESULT:      -6.0      4.865      8.252
REMARK  Name = 
REMARK  5 active torsions:
REMARK  status: ('A' for Active; 'I' for Inactive)
REMARK    1  A    between atoms: C_1  and  O_2
REMARK    2  A    between atoms: O_2  and  C_3
REMARK    3  A    between atoms: C_7  and  C_8
REMARK    4  A    between atoms: C_15  and  O_16
REMARK    5  A    between atoms: O_16  and  C_17
REMARK                            x       y       z     vdW  Elec       q    Type
REMARK                         _______ _______ _______ _____ _____    ______ ____
ROOT
ATOM      1  C   UNL     1      -3.362  11.145  17.573  0.00  0.00    +0.000 A 
ATOM      2  C   UNL     1      -2.008  11.433  17.709  0.00  0.00    +0.000 A 
ATOM      3  C   UNL     1      -1.542  12.110  18.829  0.00  0.00    +0.000 A 
ATOM      4  C   UNL     1      -2.417  12.564  19.828  0.00  0.00    +0.000 A 
ATOM      5  C   UNL     1      -1.890  13.196  21.068  0.00  0.00    +0.000 A 
ATOM      6  C   UNL     1      -2.744  13.706  21.988  0.00  0.00    +0.000 A 
ATOM      7  N   UNL     1      -4.117  13.506  21.831  0.00  0.00    +0.000 N 
ATOM      8  C   UNL     1      -4.699  12.934  20.699  0.00  0.00    +0.000 A 
ATOM      9  O   UNL     1      -5.916  12.985  20.539  0.00  0.00    +0.000 OA
ATOM     10  C   UNL     1      -3.803  12.337  19.663  0.00  0.00    +0.000 A 
ATOM     11  C   UNL     1      -4.277  11.561  18.564  0.00  0.00    +0.000 A 
ATOM     12  C   UNL     1      -5.045  13.979  22.868  0.00  0.00    +0.000 C 
ATOM     13  C   UNL     1      -4.501  13.778  24.278  0.00  0.00    +0.000 C 
ATOM     14  C   UNL     1      -3.148  14.427  24.376  0.00  0.00    +0.000 A 
ATOM     15  C   UNL     1      -2.737  15.008  25.589  0.00  0.00    +0.000 A 
ATOM     16  C   UNL     1      -1.527  15.659  25.610  0.00  0.00    +0.000 A 
ATOM     17  C   UNL     1      -0.774  15.800  24.474  0.00  0.00    +0.000 A 
ATOM     18  C   UNL     1      -1.160  15.254  23.266  0.00  0.00    +0.000 A 
ATOM     19  C   UNL     1      -2.319  14.460  23.222  0.00  0.00    +0.000 A 
ATOM     20  O   UNL     1       0.376  16.488  24.691  0.00  0.00    +0.000 OA
ATOM     21  C   UNL     1       0.299  16.695  26.116  0.00  0.00    +0.000 C 
ATOM     22  O   UNL     1      -0.948  16.245  26.688  0.00  0.00    +0.000 OA
ENDROOT
BRANCH   1  24
ATOM     23  C   UNL     1      -3.027  10.752  15.264  0.00  0.00    +0.000 C 
ATOM     24  O   UNL     1      -3.630  10.350  16.488  0.00  0.00    +0.000 OA
ENDBRANCH   1  24
BRANCH   5  25
ATOM     25  C   UNL     1      -0.430  13.138  21.409  0.00  0.00    +0.000 C 
ATOM     26  O   UNL     1       0.120  12.188  21.954  0.00  0.00    +0.000 OA
ENDBRANCH   5  25
BRANCH  11  27
ATOM     27  O   UNL     1      -5.477  10.888  18.566  0.00  0.00    +0.000 OA
ATOM     28  C   UNL     1      -6.563  11.452  17.837  0.00  0.00    +0.000 C 
ENDBRANCH  11  27
TORSDOF 3
ENDMDL
