MODEL 1
REMARK VINA RESULT:      -7.3      0.000      0.000
REMARK  Name = 
REMARK  7 active torsions:
REMARK  status: ('A' for Active; 'I' for Inactive)
REMARK    1  A    between atoms: C_1  and  C_2
REMARK    2  A    between atoms: C_2  and  C_3
REMARK    3  A    between atoms: C_3  and  C_4
REMARK    4  A    between atoms: C_4  and  C_5
REMARK    5  A    between atoms: N_6  and  N_7
REMARK    6  A    between atoms: C_8  and  C_10
REMARK    7  A    between atoms: N_12  and  C_13
REMARK                            x       y       z     vdW  Elec       q    Type
REMARK                         _______ _______ _______ _____ _____    ______ ____
ROOT
ATOM      1  N   UNL     1       6.686   5.361  16.270  0.00  0.00    +0.000 N 
ATOM      2  C   UNL     1       7.242   4.692  17.345  0.00  0.00    +0.000 C 
ATOM      3  O   UNL     1       8.353   4.190  17.438  0.00  0.00    +0.000 OA
ATOM      4  H   UNL     1       5.744   5.720  16.385  0.00  0.00    +0.000 HD
ENDROOT
BRANCH   2   5
ATOM      5  C   UNL     1       6.269   4.582  18.546  0.00  0.00    +0.000 C 
ATOM      6  O   UNL     1       6.552   5.124  19.605  0.00  0.00    +0.000 OA
ATOM      7  N   UNL     1       5.133   3.851  18.275  0.00  0.00    +0.000 N 
ATOM      8  H   UNL     1       5.132   3.369  17.378  0.00  0.00    +0.000 HD
BRANCH   7   9
ATOM      9  C   UNL     1       4.109   3.549  19.268  0.00  0.00    +0.000 C 
ATOM     10  C   UNL     1       3.187   4.754  19.511  0.00  0.00    +0.000 C 
ATOM     11  C   UNL     1       2.273   5.059  18.325  0.00  0.00    +0.000 C 
ATOM     12  C   UNL     1       1.485   3.829  17.881  0.00  0.00    +0.000 C 
ATOM     13  C   UNL     1       2.385   2.619  17.648  0.00  0.00    +0.000 C 
ATOM     14  C   UNL     1       3.272   2.328  18.858  0.00  0.00    +0.000 C 
ENDBRANCH   7   9
ENDBRANCH   2   5
BRANCH   1  16
ATOM     15  C   UNL     1       6.962   4.887  14.033  0.00  0.00    +0.000 C 
ATOM     16  N   UNL     1       7.377   5.510  15.099  0.00  0.00    +0.000 NA
BRANCH  15  18
ATOM     17  C   UNL     1       8.925   6.026  12.804  0.00  0.00    +0.000 C 
ATOM     18  C   UNL     1       7.747   5.058  12.733  0.00  0.00    +0.000 C 
ENDBRANCH  15  18
BRANCH  15  19
ATOM     19  C   UNL     1       5.717   3.987  14.042  0.00  0.00    +0.000 C 
ATOM     20  C   UNL     1       5.142   3.513  12.720  0.00  0.00    +0.000 C 
ENDBRANCH  15  19
ENDBRANCH   1  16
TORSDOF 5
ENDMDL
MODEL 2
REMARK VINA RESULT:      -7.1      2.257      3.097
REMARK  Name = 
REMARK  7 active torsions:
REMARK  status: ('A' for Active; 'I' for Inactive)
REMARK    1  A    between atoms: C_1  and  C_2
REMARK    2  A    between atoms: C_2  and  C_3
REMARK    3  A    between atoms: C_3  and  C_4
REMARK    4  A    between atoms: C_4  and  C_5
REMARK    5  A    between atoms: N_6  and  N_7
REMARK    6  A    between atoms: C_8  and  C_10
REMARK    7  A    between atoms: N_12  and  C_13
REMARK                            x       y       z     vdW  Elec       q    Type
REMARK                         _______ _______ _______ _____ _____    ______ ____
ROOT
ATOM      1  N   UNL     1       5.646   4.137  14.074  0.00  0.00    +0.000 N 
ATOM      2  C   UNL     1       6.318   5.076  14.834  0.00  0.00    +0.000 C 
ATOM      3  O   UNL     1       7.500   5.386  14.792  0.00  0.00    +0.000 OA
ATOM      4  H   UNL     1       4.653   4.026  14.247  0.00  0.00    +0.000 HD
ENDROOT
BRANCH   2   5
ATOM      5  C   UNL     1       5.398   5.777  15.865  0.00  0.00    +0.000 C 
ATOM      6  O   UNL     1       5.113   6.957  15.717  0.00  0.00    +0.000 OA
ATOM      7  N   UNL     1       4.980   4.952  16.886  0.00  0.00    +0.000 N 
ATOM      8  H   UNL     1       5.423   4.036  16.912  0.00  0.00    +0.000 HD
BRANCH   7   9
ATOM      9  C   UNL     1       4.169   5.404  18.011  0.00  0.00    +0.000 C 
ATOM     10  C   UNL     1       2.673   5.153  17.765  0.00  0.00    +0.000 C 
ATOM     11  C   UNL     1       2.301   3.671  17.795  0.00  0.00    +0.000 C 
ATOM     12  C   UNL     1       2.782   2.988  19.072  0.00  0.00    +0.000 C 
ATOM     13  C   UNL     1       4.264   3.239  19.339  0.00  0.00    +0.000 C 
ATOM     14  C   UNL     1       4.601   4.729  19.321  0.00  0.00    +0.000 C 
ENDBRANCH   7   9
ENDBRANCH   2   5
BRANCH   1  16
ATOM     15  C   UNL     1       5.667   2.973  12.086  0.00  0.00    +0.000 C 
ATOM     16  N   UNL     1       6.306   3.377  13.147  0.00  0.00    +0.000 NA
BRANCH  15  18
ATOM     17  C   UNL     1       6.152   0.621  11.141  0.00  0.00    +0.000 C 
ATOM     18  C   UNL     1       6.416   2.121  11.062  0.00  0.00    +0.000 C 
ENDBRANCH  15  18
BRANCH  15  19
ATOM     19  C   UNL     1       4.191   3.320  11.836  0.00  0.00    +0.000 C 
ATOM     20  C   UNL     1       3.686   3.393  10.407  0.00  0.00    +0.000 C 
ENDBRANCH  15  19
ENDBRANCH   1  16
TORSDOF 5
ENDMDL
MODEL 3
REMARK VINA RESULT:      -6.8      0.989      1.115
REMARK  Name = 
REMARK  7 active torsions:
REMARK  status: ('A' for Active; 'I' for Inactive)
REMARK    1  A    between atoms: C_1  and  C_2
REMARK    2  A    between atoms: C_2  and  C_3
REMARK    3  A    between atoms: C_3  and  C_4
REMARK    4  A    between atoms: C_4  and  C_5
REMARK    5  A    between atoms: N_6  and  N_7
REMARK    6  A    between atoms: C_8  and  C_10
REMARK    7  A    between atoms: N_12  and  C_13
REMARK                            x       y       z     vdW  Elec       q    Type
REMARK                         _______ _______ _______ _____ _____    ______ ____
ROOT
ATOM      1  N   UNL     1       6.864   5.086  16.144  0.00  0.00    +0.000 N 
ATOM      2  C   UNL     1       6.865   6.005  17.176  0.00  0.00    +0.000 C 
ATOM      3  O   UNL     1       7.351   7.127  17.196  0.00  0.00    +0.000 OA
ATOM      4  H   UNL     1       6.397   4.201  16.313  0.00  0.00    +0.000 HD
ENDROOT
BRANCH   2   5
ATOM      5  C   UNL     1       6.160   5.473  18.448  0.00  0.00    +0.000 C 
ATOM      6  O   UNL     1       6.807   5.303  19.472  0.00  0.00    +0.000 OA
ATOM      7  N   UNL     1       4.812   5.241  18.280  0.00  0.00    +0.000 N 
ATOM      8  H   UNL     1       4.476   5.319  17.322  0.00  0.00    +0.000 HD
BRANCH   7   9
ATOM      9  C   UNL     1       3.954   4.671  19.312  0.00  0.00    +0.000 C 
ATOM     10  C   UNL     1       2.479   5.044  19.089  0.00  0.00    +0.000 C 
ATOM     11  C   UNL     1       1.864   4.353  17.873  0.00  0.00    +0.000 C 
ATOM     12  C   UNL     1       2.061   2.840  17.915  0.00  0.00    +0.000 C 
ATOM     13  C   UNL     1       3.519   2.453  18.150  0.00  0.00    +0.000 C 
ATOM     14  C   UNL     1       4.099   3.144  19.383  0.00  0.00    +0.000 C 
ENDBRANCH   7   9
ENDBRANCH   2   5
BRANCH   1  16
ATOM     15  C   UNL     1       7.033   4.819  13.861  0.00  0.00    +0.000 C 
ATOM     16  N   UNL     1       7.488   5.357  14.957  0.00  0.00    +0.000 NA
BRANCH  15  18
ATOM     17  C   UNL     1       8.921   6.093  12.648  0.00  0.00    +0.000 C 
ATOM     18  C   UNL     1       7.744   5.128  12.544  0.00  0.00    +0.000 C 
ENDBRANCH  15  18
BRANCH  15  19
ATOM     19  C   UNL     1       5.811   3.887  13.853  0.00  0.00    +0.000 C 
ATOM     20  C   UNL     1       5.257   3.416  12.521  0.00  0.00    +0.000 C 
ENDBRANCH  15  19
ENDBRANCH   1  16
TORSDOF 5
ENDMDL
MODEL 4
REMARK VINA RESULT:      -6.4      1.334      1.660
REMARK  Name = 
REMARK  7 active torsions:
REMARK  status: ('A' for Active; 'I' for Inactive)
REMARK    1  A    between atoms: C_1  and  C_2
REMARK    2  A    between atoms: C_2  and  C_3
REMARK    3  A    between atoms: C_3  and  C_4
REMARK    4  A    between atoms: C_4  and  C_5
REMARK    5  A    between atoms: N_6  and  N_7
REMARK    6  A    between atoms: C_8  and  C_10
REMARK    7  A    between atoms: N_12  and  C_13
REMARK                            x       y       z     vdW  Elec       q    Type
REMARK                         _______ _______ _______ _____ _____    ______ ____
ROOT
ATOM      1  N   UNL     1       6.378   5.188  14.955  0.00  0.00    +0.000 N 
ATOM      2  C   UNL     1       6.868   4.851  16.203  0.00  0.00    +0.000 C 
ATOM      3  O   UNL     1       7.944   4.345  16.488  0.00  0.00    +0.000 OA
ATOM      4  H   UNL     1       5.457   5.613  14.919  0.00  0.00    +0.000 HD
ENDROOT
BRANCH   2   5
ATOM      5  C   UNL     1       5.866   5.166  17.342  0.00  0.00    +0.000 C 
ATOM      6  O   UNL     1       5.737   6.318  17.733  0.00  0.00    +0.000 OA
ATOM      7  N   UNL     1       5.195   4.059  17.812  0.00  0.00    +0.000 N 
ATOM      8  H   UNL     1       5.528   3.166  17.453  0.00  0.00    +0.000 HD
BRANCH   7   9
ATOM      9  C   UNL     1       4.257   4.094  18.928  0.00  0.00    +0.000 C 
ATOM     10  C   UNL     1       2.893   4.660  18.502  0.00  0.00    +0.000 C 
ATOM     11  C   UNL     1       2.116   3.720  17.580  0.00  0.00    +0.000 C 
ATOM     12  C   UNL     1       1.983   2.320  18.173  0.00  0.00    +0.000 C 
ATOM     13  C   UNL     1       3.328   1.749  18.615  0.00  0.00    +0.000 C 
ATOM     14  C   UNL     1       4.071   2.702  19.550  0.00  0.00    +0.000 C 
ENDBRANCH   7   9
ENDBRANCH   2   5
BRANCH   1  16
ATOM     15  C   UNL     1       6.580   4.186  12.890  0.00  0.00    +0.000 C 
ATOM     16  N   UNL     1       7.101   4.934  13.822  0.00  0.00    +0.000 NA
BRANCH  15  18
ATOM     17  C   UNL     1       7.518   2.437  11.240  0.00  0.00    +0.000 C 
ATOM     18  C   UNL     1       7.402   3.907  11.632  0.00  0.00    +0.000 C 
ENDBRANCH  15  18
BRANCH  15  19
ATOM     19  C   UNL     1       5.175   3.577  13.018  0.00  0.00    +0.000 C 
ATOM     20  C   UNL     1       4.329   3.416  11.769  0.00  0.00    +0.000 C 
ENDBRANCH  15  19
ENDBRANCH   1  16
TORSDOF 5
ENDMDL
MODEL 5
REMARK VINA RESULT:      -6.3      3.126      4.133
REMARK  Name = 
REMARK  7 active torsions:
REMARK  status: ('A' for Active; 'I' for Inactive)
REMARK    1  A    between atoms: C_1  and  C_2
REMARK    2  A    between atoms: C_2  and  C_3
REMARK    3  A    between atoms: C_3  and  C_4
REMARK    4  A    between atoms: C_4  and  C_5
REMARK    5  A    between atoms: N_6  and  N_7
REMARK    6  A    between atoms: C_8  and  C_10
REMARK    7  A    between atoms: N_12  and  C_13
REMARK                            x       y       z     vdW  Elec       q    Type
REMARK                         _______ _______ _______ _____ _____    ______ ____
ROOT
ATOM      1  N   UNL     1       5.795   6.083  16.796  0.00  0.00    +0.000 N 
ATOM      2  C   UNL     1       4.491   6.009  17.251  0.00  0.00    +0.000 C 
ATOM      3  O   UNL     1       3.764   6.916  17.629  0.00  0.00    +0.000 OA
ATOM      4  H   UNL     1       6.236   5.214  16.514  0.00  0.00    +0.000 HD
ENDROOT
BRANCH   2   5
ATOM      5  C   UNL     1       3.951   4.557  17.278  0.00  0.00    +0.000 C 
ATOM      6  O   UNL     1       4.363   3.743  16.463  0.00  0.00    +0.000 OA
ATOM      7  N   UNL     1       3.020   4.330  18.268  0.00  0.00    +0.000 N 
ATOM      8  H   UNL     1       2.708   5.160  18.767  0.00  0.00    +0.000 HD
BRANCH   7   9
ATOM      9  C   UNL     1       2.318   3.063  18.443  0.00  0.00    +0.000 C 
ATOM     10  C   UNL     1       3.057   2.141  19.426  0.00  0.00    +0.000 C 
ATOM     11  C   UNL     1       3.000   2.636  20.871  0.00  0.00    +0.000 C 
ATOM     12  C   UNL     1       1.569   2.910  21.324  0.00  0.00    +0.000 C 
ATOM     13  C   UNL     1       0.817   3.814  20.352  0.00  0.00    +0.000 C 
ATOM     14  C   UNL     1       0.875   3.283  18.920  0.00  0.00    +0.000 C 
ENDBRANCH   7   9
ENDBRANCH   2   5
BRANCH   1  16
ATOM     15  C   UNL     1       7.404   7.512  17.619  0.00  0.00    +0.000 C 
ATOM     16  N   UNL     1       6.460   7.278  16.753  0.00  0.00    +0.000 NA
BRANCH  15  18
ATOM     17  C   UNL     1       8.815   9.282  18.857  0.00  0.00    +0.000 C 
ATOM     18  C   UNL     1       8.133   8.853  17.562  0.00  0.00    +0.000 C 
ENDBRANCH  15  18
BRANCH  15  19
ATOM     19  C   UNL     1       7.802   6.488  18.694  0.00  0.00    +0.000 C 
ATOM     20  C   UNL     1       7.950   5.030  18.300  0.00  0.00    +0.000 C 
ENDBRANCH  15  19
ENDBRANCH   1  16
TORSDOF 5
ENDMDL
MODEL 6
REMARK VINA RESULT:      -6.2      4.305      5.324
REMARK  Name = 
REMARK  7 active torsions:
REMARK  status: ('A' for Active; 'I' for Inactive)
REMARK    1  A    between atoms: C_1  and  C_2
REMARK    2  A    between atoms: C_2  and  C_3
REMARK    3  A    between atoms: C_3  and  C_4
REMARK    4  A    between atoms: C_4  and  C_5
REMARK    5  A    between atoms: N_6  and  N_7
REMARK    6  A    between atoms: C_8  and  C_10
REMARK    7  A    between atoms: N_12  and  C_13
REMARK                            x       y       z     vdW  Elec       q    Type
REMARK                         _______ _______ _______ _____ _____    ______ ____
ROOT
ATOM      1  N   UNL     1       8.236   8.226  18.527  0.00  0.00    +0.000 N 
ATOM      2  C   UNL     1       7.717   7.182  17.784  0.00  0.00    +0.000 C 
ATOM      3  O   UNL     1       7.636   7.077  16.569  0.00  0.00    +0.000 OA
ATOM      4  H   UNL     1       8.225   8.126  19.536  0.00  0.00    +0.000 HD
ENDROOT
BRANCH   2   5
ATOM      5  C   UNL     1       7.164   6.037  18.670  0.00  0.00    +0.000 C 
ATOM      6  O   UNL     1       7.907   5.472  19.461  0.00  0.00    +0.000 OA
ATOM      7  N   UNL     1       5.829   5.769  18.461  0.00  0.00    +0.000 N 
ATOM      8  H   UNL     1       5.408   6.255  17.673  0.00  0.00    +0.000 HD
BRANCH   7   9
ATOM      9  C   UNL     1       5.107   4.689  19.125  0.00  0.00    +0.000 C 
ATOM     10  C   UNL     1       3.789   5.185  19.739  0.00  0.00    +0.000 C 
ATOM     11  C   UNL     1       2.740   5.551  18.689  0.00  0.00    +0.000 C 
ATOM     12  C   UNL     1       2.506   4.415  17.696  0.00  0.00    +0.000 C 
ATOM     13  C   UNL     1       3.807   3.901  17.088  0.00  0.00    +0.000 C 
ATOM     14  C   UNL     1       4.828   3.526  18.162  0.00  0.00    +0.000 C 
ENDBRANCH   7   9
ENDBRANCH   2   5
BRANCH   1  16
ATOM     15  C   UNL     1       9.213  10.309  18.651  0.00  0.00    +0.000 C 
ATOM     16  N   UNL     1       8.722   9.351  17.918  0.00  0.00    +0.000 NA
BRANCH  15  18
ATOM     17  C   UNL     1      11.265  11.705  17.945  0.00  0.00    +0.000 C 
ATOM     18  C   UNL     1       9.746  11.561  17.957  0.00  0.00    +0.000 C 
ENDBRANCH  15  18
BRANCH  15  19
ATOM     19  C   UNL     1       9.267  10.221  20.185  0.00  0.00    +0.000 C 
ATOM     20  C   UNL     1       9.194  11.501  20.997  0.00  0.00    +0.000 C 
ENDBRANCH  15  19
ENDBRANCH   1  16
TORSDOF 5
ENDMDL
MODEL 7
REMARK VINA RESULT:      -6.2      1.866      1.989
REMARK  Name = 
REMARK  7 active torsions:
REMARK  status: ('A' for Active; 'I' for Inactive)
REMARK    1  A    between atoms: C_1  and  C_2
REMARK    2  A    between atoms: C_2  and  C_3
REMARK    3  A    between atoms: C_3  and  C_4
REMARK    4  A    between atoms: C_4  and  C_5
REMARK    5  A    between atoms: N_6  and  N_7
REMARK    6  A    between atoms: C_8  and  C_10
REMARK    7  A    between atoms: N_12  and  C_13
REMARK                            x       y       z     vdW  Elec       q    Type
REMARK                         _______ _______ _______ _____ _____    ______ ____
ROOT
ATOM      1  N   UNL     1       6.419   5.520  15.930  0.00  0.00    +0.000 N 
ATOM      2  C   UNL     1       5.311   6.343  15.993  0.00  0.00    +0.000 C 
ATOM      3  O   UNL     1       4.937   7.181  15.184  0.00  0.00    +0.000 OA
ATOM      4  H   UNL     1       6.561   4.875  16.700  0.00  0.00    +0.000 HD
ENDROOT
BRANCH   2   5
ATOM      5  C   UNL     1       4.490   6.140  17.291  0.00  0.00    +0.000 C 
ATOM      6  O   UNL     1       3.953   7.102  17.824  0.00  0.00    +0.000 OA
ATOM      7  N   UNL     1       4.453   4.833  17.725  0.00  0.00    +0.000 N 
ATOM      8  H   UNL     1       5.066   4.193  17.224  0.00  0.00    +0.000 HD
BRANCH   7   9
ATOM      9  C   UNL     1       3.805   4.409  18.961  0.00  0.00    +0.000 C 
ATOM     10  C   UNL     1       2.280   4.587  18.889  0.00  0.00    +0.000 C 
ATOM     11  C   UNL     1       1.607   3.606  17.930  0.00  0.00    +0.000 C 
ATOM     12  C   UNL     1       1.991   2.160  18.231  0.00  0.00    +0.000 C 
ATOM     13  C   UNL     1       3.502   1.969  18.320  0.00  0.00    +0.000 C 
ATOM     14  C   UNL     1       4.143   2.950  19.300  0.00  0.00    +0.000 C 
ENDBRANCH   7   9
ENDBRANCH   2   5
BRANCH   1  16
ATOM     15  C   UNL     1       7.094   4.848  13.832  0.00  0.00    +0.000 C 
ATOM     16  N   UNL     1       7.294   5.595  14.881  0.00  0.00    +0.000 NA
BRANCH  15  18
ATOM     17  C   UNL     1       7.932   6.166  11.778  0.00  0.00    +0.000 C 
ATOM     18  C   UNL     1       8.083   4.939  12.671  0.00  0.00    +0.000 C 
ENDBRANCH  15  18
BRANCH  15  19
ATOM     19  C   UNL     1       5.903   3.882  13.728  0.00  0.00    +0.000 C 
ATOM     20  C   UNL     1       5.564   3.276  12.379  0.00  0.00    +0.000 C 
ENDBRANCH  15  19
ENDBRANCH   1  16
TORSDOF 5
ENDMDL
MODEL 8
REMARK VINA RESULT:      -6.1      1.203      1.446
REMARK  Name = 
REMARK  7 active torsions:
REMARK  status: ('A' for Active; 'I' for Inactive)
REMARK    1  A    between atoms: C_1  and  C_2
REMARK    2  A    between atoms: C_2  and  C_3
REMARK    3  A    between atoms: C_3  and  C_4
REMARK    4  A    between atoms: C_4  and  C_5
REMARK    5  A    between atoms: N_6  and  N_7
REMARK    6  A    between atoms: C_8  and  C_10
REMARK    7  A    between atoms: N_12  and  C_13
REMARK                            x       y       z     vdW  Elec       q    Type
REMARK                         _______ _______ _______ _____ _____    ______ ____
ROOT
ATOM      1  N   UNL     1       6.998   5.109  16.714  0.00  0.00    +0.000 N 
ATOM      2  C   UNL     1       6.097   5.896  17.407  0.00  0.00    +0.000 C 
ATOM      3  O   UNL     1       5.668   7.002  17.112  0.00  0.00    +0.000 OA
ATOM      4  H   UNL     1       7.228   4.206  17.116  0.00  0.00    +0.000 HD
ENDROOT
BRANCH   2   5
ATOM      5  C   UNL     1       5.625   5.239  18.728  0.00  0.00    +0.000 C 
ATOM      6  O   UNL     1       6.375   5.214  19.694  0.00  0.00    +0.000 OA
ATOM      7  N   UNL     1       4.346   4.730  18.668  0.00  0.00    +0.000 N 
ATOM      8  H   UNL     1       3.923   4.729  17.742  0.00  0.00    +0.000 HD
BRANCH   7   9
ATOM      9  C   UNL     1       3.713   4.002  19.762  0.00  0.00    +0.000 C 
ATOM     10  C   UNL     1       2.216   4.334  19.869  0.00  0.00    +0.000 C 
ATOM     11  C   UNL     1       1.393   3.769  18.712  0.00  0.00    +0.000 C 
ATOM     12  C   UNL     1       1.625   2.272  18.524  0.00  0.00    +0.000 C 
ATOM     13  C   UNL     1       3.107   1.924  18.430  0.00  0.00    +0.000 C 
ATOM     14  C   UNL     1       3.899   2.485  19.610  0.00  0.00    +0.000 C 
ENDBRANCH   7   9
ENDBRANCH   2   5
BRANCH   1  16
ATOM     15  C   UNL     1       7.257   4.957  14.430  0.00  0.00    +0.000 C 
ATOM     16  N   UNL     1       7.567   5.547  15.550  0.00  0.00    +0.000 NA
BRANCH  15  18
ATOM     17  C   UNL     1       7.529   4.680  11.879  0.00  0.00    +0.000 C 
ATOM     18  C   UNL     1       7.905   5.454  13.138  0.00  0.00    +0.000 C 
ENDBRANCH  15  18
BRANCH  15  19
ATOM     19  C   UNL     1       6.269   3.782  14.369  0.00  0.00    +0.000 C 
ATOM     20  C   UNL     1       4.966   3.956  13.610  0.00  0.00    +0.000 C 
ENDBRANCH  15  19
ENDBRANCH   1  16
TORSDOF 5
ENDMDL
MODEL 9
REMARK VINA RESULT:      -6.1      4.906      7.743
REMARK  Name = 
REMARK  7 active torsions:
REMARK  status: ('A' for Active; 'I' for Inactive)
REMARK    1  A    between atoms: C_1  and  C_2
REMARK    2  A    between atoms: C_2  and  C_3
REMARK    3  A    between atoms: C_3  and  C_4
REMARK    4  A    between atoms: C_4  and  C_5
REMARK    5  A    between atoms: N_6  and  N_7
REMARK    6  A    between atoms: C_8  and  C_10
REMARK    7  A    between atoms: N_12  and  C_13
REMARK                            x       y       z     vdW  Elec       q    Type
REMARK                         _______ _______ _______ _____ _____    ______ ____
ROOT
ATOM      1  N   UNL     1       1.443   8.710  19.417  0.00  0.00    +0.000 N 
ATOM      2  C   UNL     1       2.166   8.499  18.258  0.00  0.00    +0.000 C 
ATOM      3  O   UNL     1       2.204   9.187  17.248  0.00  0.00    +0.000 OA
ATOM      4  H   UNL     1       1.549   8.027  20.159  0.00  0.00    +0.000 HD
ENDROOT
BRANCH   2   5
ATOM      5  C   UNL     1       2.999   7.194  18.305  0.00  0.00    +0.000 C 
ATOM      6  O   UNL     1       3.957   7.061  17.556  0.00  0.00    +0.000 OA
ATOM      7  N   UNL     1       2.549   6.281  19.233  0.00  0.00    +0.000 N 
ATOM      8  H   UNL     1       1.662   6.515  19.674  0.00  0.00    +0.000 HD
BRANCH   7   9
ATOM      9  C   UNL     1       3.126   4.953  19.409  0.00  0.00    +0.000 C 
ATOM     10  C   UNL     1       2.603   4.275  20.685  0.00  0.00    +0.000 C 
ATOM     11  C   UNL     1       1.131   3.874  20.589  0.00  0.00    +0.000 C 
ATOM     12  C   UNL     1       0.849   3.031  19.348  0.00  0.00    +0.000 C 
ATOM     13  C   UNL     1       1.375   3.685  18.074  0.00  0.00    +0.000 C 
ATOM     14  C   UNL     1       2.853   4.056  18.193  0.00  0.00    +0.000 C 
ENDBRANCH   7   9
ENDBRANCH   2   5
BRANCH   1  16
ATOM     15  C   UNL     1       0.049  10.029  20.692  0.00  0.00    +0.000 C 
ATOM     16  N   UNL     1       0.605   9.785  19.539  0.00  0.00    +0.000 NA
BRANCH  15  18
ATOM     17  C   UNL     1      -0.378  12.523  20.182  0.00  0.00    +0.000 C 
ATOM     18  C   UNL     1      -0.888  11.230  20.812  0.00  0.00    +0.000 C 
ENDBRANCH  15  18
BRANCH  15  19
ATOM     19  C   UNL     1       0.301   9.150  21.927  0.00  0.00    +0.000 C 
ATOM     20  C   UNL     1      -0.209   9.617  23.277  0.00  0.00    +0.000 C 
ENDBRANCH  15  19
ENDBRANCH   1  16
TORSDOF 5
ENDMDL
