MODEL 1
REMARK VINA RESULT:      -8.6      0.000      0.000
REMARK  Name = 
REMARK  7 active torsions:
REMARK  status: ('A' for Active; 'I' for Inactive)
REMARK    1  A    between atoms: C_1  and  C_2
REMARK    2  A    between atoms: N_4  and  C_5
REMARK    3  A    between atoms: C_5  and  C_6
REMARK    4  A    between atoms: N_8  and  C_9
REMARK    5  A    between atoms: N_20  and  C_21
REMARK    6  A    between atoms: C_21  and  C_22
REMARK    7  A    between atoms: C_21  and  C_23
REMARK                            x       y       z     vdW  Elec       q    Type
REMARK                         _______ _______ _______ _____ _____    ______ ____
ROOT
ATOM      1  C   UNL     1       3.174   6.934  18.724  0.00  0.00    +0.000 A 
ATOM      2  C   UNL     1       2.980   7.806  17.646  0.00  0.00    +0.000 A 
ATOM      3  C   UNL     1       2.013   8.815  17.686  0.00  0.00    +0.000 A 
ATOM      4  C   UNL     1       1.225   8.985  18.823  0.00  0.00    +0.000 A 
ATOM      5  C   UNL     1       1.373   8.095  19.910  0.00  0.00    +0.000 A 
ATOM      6  C   UNL     1       2.330   7.068  19.839  0.00  0.00    +0.000 A 
ATOM      7  C   UNL     1       0.536   8.272  21.163  0.00  0.00    +0.000 C 
ATOM      8  C   UNL     1       0.916   9.487  22.032  0.00  0.00    +0.000 C 
ATOM      9  C   UNL     1       1.208  10.798  21.287  0.00  0.00    +0.000 C 
ATOM     10  C   UNL     1       0.343  11.002  20.093  0.00  0.00    +0.000 A 
ATOM     11  C   UNL     1      -0.599  12.004  19.757  0.00  0.00    +0.000 A 
ATOM     12  N   UNL     1      -0.949  13.007  20.586  0.00  0.00    +0.000 N 
ATOM     13  N   UNL     1      -1.073  11.825  18.520  0.00  0.00    +0.000 NA
ATOM     14  N   UNL     1      -0.489  10.695  18.094  0.00  0.00    +0.000 N 
ATOM     15  C   UNL     1       0.396  10.171  18.986  0.00  0.00    +0.000 A 
ATOM     16  H   UNL     1      -0.748  12.966  21.577  0.00  0.00    +0.000 HD
ATOM     17  H   UNL     1      -0.750  10.332  17.184  0.00  0.00    +0.000 HD
ENDROOT
BRANCH   1  20
ATOM     18  C   UNL     1       6.273   4.948  18.612  0.00  0.00    +0.000 C 
ATOM     19  C   UNL     1       5.533   6.219  18.251  0.00  0.00    +0.000 C 
ATOM     20  N   UNL     1       4.203   5.955  18.705  0.00  0.00    +0.000 N 
ATOM     21  C   UNL     1       4.043   4.592  18.922  0.00  0.00    +0.000 C 
ATOM     22  O   UNL     1       3.028   3.973  19.182  0.00  0.00    +0.000 OA
ATOM     23  O   UNL     1       5.246   3.954  18.739  0.00  0.00    +0.000 OA
BRANCH  18  24
ATOM     24  C   UNL     1       7.263   4.521  17.531  0.00  0.00    +0.000 C 
BRANCH  24  28
ATOM     25  C   UNL     1       6.061   3.945  13.987  0.00  0.00    +0.000 C 
ATOM     26  C   UNL     1       6.857   4.577  15.096  0.00  0.00    +0.000 C 
ATOM     27  O   UNL     1       7.638   5.504  14.916  0.00  0.00    +0.000 OA
ATOM     28  N   UNL     1       6.595   4.038  16.334  0.00  0.00    +0.000 N 
ATOM     29  H   UNL     1       6.135   3.137  16.383  0.00  0.00    +0.000 HD
ENDBRANCH  24  28
ENDBRANCH  18  24
ENDBRANCH   1  20
BRANCH  12  30
ATOM     30  C   UNL     1      -1.470  14.267  20.071  0.00  0.00    +0.000 C 
ATOM     31  C   UNL     1      -2.310  14.981  21.127  0.00  0.00    +0.000 C 
ATOM     32  C   UNL     1      -0.303  15.157  19.640  0.00  0.00    +0.000 C 
ENDBRANCH  12  30
TORSDOF 4
ENDMDL
MODEL 2
REMARK VINA RESULT:      -8.3      1.658      2.548
REMARK  Name = 
REMARK  7 active torsions:
REMARK  status: ('A' for Active; 'I' for Inactive)
REMARK    1  A    between atoms: C_1  and  C_2
REMARK    2  A    between atoms: N_4  and  C_5
REMARK    3  A    between atoms: C_5  and  C_6
REMARK    4  A    between atoms: N_8  and  C_9
REMARK    5  A    between atoms: N_20  and  C_21
REMARK    6  A    between atoms: C_21  and  C_22
REMARK    7  A    between atoms: C_21  and  C_23
REMARK                            x       y       z     vdW  Elec       q    Type
REMARK                         _______ _______ _______ _____ _____    ______ ____
ROOT
ATOM      1  C   UNL     1       2.385   6.931  19.495  0.00  0.00    +0.000 A 
ATOM      2  C   UNL     1       1.869   6.961  20.797  0.00  0.00    +0.000 A 
ATOM      3  C   UNL     1       1.158   8.065  21.276  0.00  0.00    +0.000 A 
ATOM      4  C   UNL     1       0.930   9.164  20.449  0.00  0.00    +0.000 A 
ATOM      5  C   UNL     1       1.471   9.175  19.144  0.00  0.00    +0.000 A 
ATOM      6  C   UNL     1       2.210   8.069  18.690  0.00  0.00    +0.000 A 
ATOM      7  C   UNL     1       1.221  10.354  18.223  0.00  0.00    +0.000 C 
ATOM      8  C   UNL     1      -0.219  10.468  17.687  0.00  0.00    +0.000 C 
ATOM      9  C   UNL     1      -1.348  10.216  18.699  0.00  0.00    +0.000 C 
ATOM     10  C   UNL     1      -1.039  10.724  20.064  0.00  0.00    +0.000 A 
ATOM     11  C   UNL     1      -1.662  11.695  20.885  0.00  0.00    +0.000 A 
ATOM     12  N   UNL     1      -2.710  12.444  20.489  0.00  0.00    +0.000 N 
ATOM     13  N   UNL     1      -1.083  11.753  22.087  0.00  0.00    +0.000 NA
ATOM     14  N   UNL     1      -0.069  10.876  22.018  0.00  0.00    +0.000 N 
ATOM     15  C   UNL     1      -0.012  10.206  20.835  0.00  0.00    +0.000 A 
ATOM     16  H   UNL     1      -2.956  12.532  19.512  0.00  0.00    +0.000 HD
ATOM     17  H   UNL     1       0.551  10.794  22.815  0.00  0.00    +0.000 HD
ENDROOT
BRANCH   1  20
ATOM     18  C   UNL     1       4.611   4.125  18.638  0.00  0.00    +0.000 C 
ATOM     19  C   UNL     1       4.445   5.534  19.167  0.00  0.00    +0.000 C 
ATOM     20  N   UNL     1       3.047   5.780  18.990  0.00  0.00    +0.000 N 
ATOM     21  C   UNL     1       2.516   4.848  18.107  0.00  0.00    +0.000 C 
ATOM     22  O   UNL     1       1.405   4.811  17.611  0.00  0.00    +0.000 OA
ATOM     23  O   UNL     1       3.479   3.925  17.780  0.00  0.00    +0.000 OA
BRANCH  18  24
ATOM     24  C   UNL     1       5.896   3.953  17.831  0.00  0.00    +0.000 C 
BRANCH  24  28
ATOM     25  C   UNL     1       6.066   3.936  14.049  0.00  0.00    +0.000 C 
ATOM     26  C   UNL     1       6.520   4.211  15.456  0.00  0.00    +0.000 C 
ATOM     27  O   UNL     1       7.562   4.799  15.721  0.00  0.00    +0.000 OA
ATOM     28  N   UNL     1       5.635   3.772  16.413  0.00  0.00    +0.000 N 
ATOM     29  H   UNL     1       4.929   3.096  16.147  0.00  0.00    +0.000 HD
ENDBRANCH  24  28
ENDBRANCH  18  24
ENDBRANCH   1  20
BRANCH  12  30
ATOM     30  C   UNL     1      -3.639  13.015  21.456  0.00  0.00    +0.000 C 
ATOM     31  C   UNL     1      -3.494  14.533  21.521  0.00  0.00    +0.000 C 
ATOM     32  C   UNL     1      -5.070  12.642  21.063  0.00  0.00    +0.000 C 
ENDBRANCH  12  30
TORSDOF 4
ENDMDL
MODEL 3
REMARK VINA RESULT:      -7.9      2.070      2.909
REMARK  Name = 
REMARK  7 active torsions:
REMARK  status: ('A' for Active; 'I' for Inactive)
REMARK    1  A    between atoms: C_1  and  C_2
REMARK    2  A    between atoms: N_4  and  C_5
REMARK    3  A    between atoms: C_5  and  C_6
REMARK    4  A    between atoms: N_8  and  C_9
REMARK    5  A    between atoms: N_20  and  C_21
REMARK    6  A    between atoms: C_21  and  C_22
REMARK    7  A    between atoms: C_21  and  C_23
REMARK                            x       y       z     vdW  Elec       q    Type
REMARK                         _______ _______ _______ _____ _____    ______ ____
ROOT
ATOM      1  C   UNL     1       2.311   6.374  19.321  0.00  0.00    +0.000 A 
ATOM      2  C   UNL     1       1.813   6.211  20.619  0.00  0.00    +0.000 A 
ATOM      3  C   UNL     1       1.253   7.280  21.327  0.00  0.00    +0.000 A 
ATOM      4  C   UNL     1       1.163   8.539  20.737  0.00  0.00    +0.000 A 
ATOM      5  C   UNL     1       1.692   8.740  19.443  0.00  0.00    +0.000 A 
ATOM      6  C   UNL     1       2.279   7.661  18.759  0.00  0.00    +0.000 A 
ATOM      7  C   UNL     1       1.590  10.100  18.777  0.00  0.00    +0.000 C 
ATOM      8  C   UNL     1       0.173  10.495  18.320  0.00  0.00    +0.000 C 
ATOM      9  C   UNL     1      -0.973  10.193  19.298  0.00  0.00    +0.000 C 
ATOM     10  C   UNL     1      -0.592  10.378  20.726  0.00  0.00    +0.000 A 
ATOM     11  C   UNL     1      -1.079  11.239  21.739  0.00  0.00    +0.000 A 
ATOM     12  N   UNL     1      -2.024  12.176  21.531  0.00  0.00    +0.000 N 
ATOM     13  N   UNL     1      -0.489  10.986  22.911  0.00  0.00    +0.000 NA
ATOM     14  N   UNL     1       0.403  10.020  22.640  0.00  0.00    +0.000 N 
ATOM     15  C   UNL     1       0.365   9.594  21.348  0.00  0.00    +0.000 A 
ATOM     16  H   UNL     1      -2.263  12.485  20.597  0.00  0.00    +0.000 HD
ATOM     17  H   UNL     1       1.013   9.706  23.386  0.00  0.00    +0.000 HD
ENDROOT
BRANCH   1  20
ATOM     18  C   UNL     1       4.205   3.615  17.784  0.00  0.00    +0.000 C 
ATOM     19  C   UNL     1       4.208   4.950  18.498  0.00  0.00    +0.000 C 
ATOM     20  N   UNL     1       2.817   5.271  18.581  0.00  0.00    +0.000 N 
ATOM     21  C   UNL     1       2.099   4.482  17.691  0.00  0.00    +0.000 C 
ATOM     22  O   UNL     1       0.924   4.553  17.382  0.00  0.00    +0.000 OA
ATOM     23  O   UNL     1       2.942   3.571  17.104  0.00  0.00    +0.000 OA
BRANCH  18  24
ATOM     24  C   UNL     1       5.335   3.496  16.764  0.00  0.00    +0.000 C 
BRANCH  24  28
ATOM     25  C   UNL     1       7.665   6.479  16.801  0.00  0.00    +0.000 C 
ATOM     26  C   UNL     1       7.143   5.123  17.188  0.00  0.00    +0.000 C 
ATOM     27  O   UNL     1       7.673   4.418  18.039  0.00  0.00    +0.000 OA
ATOM     28  N   UNL     1       5.993   4.768  16.521  0.00  0.00    +0.000 N 
ATOM     29  H   UNL     1       5.747   5.272  15.678  0.00  0.00    +0.000 HD
ENDBRANCH  24  28
ENDBRANCH  18  24
ENDBRANCH   1  20
BRANCH  12  30
ATOM     30  C   UNL     1      -2.866  12.657  22.619  0.00  0.00    +0.000 C 
ATOM     31  C   UNL     1      -2.423  14.043  23.079  0.00  0.00    +0.000 C 
ATOM     32  C   UNL     1      -4.322  12.700  22.151  0.00  0.00    +0.000 C 
ENDBRANCH  12  30
TORSDOF 4
ENDMDL
MODEL 4
REMARK VINA RESULT:      -7.7      2.068      2.898
REMARK  Name = 
REMARK  7 active torsions:
REMARK  status: ('A' for Active; 'I' for Inactive)
REMARK    1  A    between atoms: C_1  and  C_2
REMARK    2  A    between atoms: N_4  and  C_5
REMARK    3  A    between atoms: C_5  and  C_6
REMARK    4  A    between atoms: N_8  and  C_9
REMARK    5  A    between atoms: N_20  and  C_21
REMARK    6  A    between atoms: C_21  and  C_22
REMARK    7  A    between atoms: C_21  and  C_23
REMARK                            x       y       z     vdW  Elec       q    Type
REMARK                         _______ _______ _______ _____ _____    ______ ____
ROOT
ATOM      1  C   UNL     1       2.294   5.846  19.159  0.00  0.00    +0.000 A 
ATOM      2  C   UNL     1       1.880   5.739  20.492  0.00  0.00    +0.000 A 
ATOM      3  C   UNL     1       1.442   6.853  21.213  0.00  0.00    +0.000 A 
ATOM      4  C   UNL     1       1.391   8.105  20.604  0.00  0.00    +0.000 A 
ATOM      5  C   UNL     1       1.838   8.249  19.272  0.00  0.00    +0.000 A 
ATOM      6  C   UNL     1       2.305   7.123  18.573  0.00  0.00    +0.000 A 
ATOM      7  C   UNL     1       1.776   9.601  18.586  0.00  0.00    +0.000 C 
ATOM      8  C   UNL     1       0.358  10.080  18.221  0.00  0.00    +0.000 C 
ATOM      9  C   UNL     1      -0.732   9.870  19.283  0.00  0.00    +0.000 C 
ATOM     10  C   UNL     1      -0.239  10.055  20.676  0.00  0.00    +0.000 A 
ATOM     11  C   UNL     1      -0.596  10.962  21.702  0.00  0.00    +0.000 A 
ATOM     12  N   UNL     1      -1.492  11.956  21.540  0.00  0.00    +0.000 N 
ATOM     13  N   UNL     1       0.058  10.691  22.835  0.00  0.00    +0.000 NA
ATOM     14  N   UNL     1       0.865   9.665  22.523  0.00  0.00    +0.000 N 
ATOM     15  C   UNL     1       0.708   9.220  21.247  0.00  0.00    +0.000 A 
ATOM     16  H   UNL     1      -1.777  12.264  20.619  0.00  0.00    +0.000 HD
ATOM     17  H   UNL     1       1.505   9.324  23.231  0.00  0.00    +0.000 HD
ENDROOT
BRANCH   1  20
ATOM     18  C   UNL     1       3.857   2.888  17.618  0.00  0.00    +0.000 C 
ATOM     19  C   UNL     1       4.012   4.197  18.364  0.00  0.00    +0.000 C 
ATOM     20  N   UNL     1       2.674   4.700  18.409  0.00  0.00    +0.000 N 
ATOM     21  C   UNL     1       1.890   4.032  17.477  0.00  0.00    +0.000 C 
ATOM     22  O   UNL     1       0.746   4.266  17.132  0.00  0.00    +0.000 OA
ATOM     23  O   UNL     1       2.624   3.027  16.896  0.00  0.00    +0.000 OA
BRANCH  18  24
ATOM     24  C   UNL     1       4.996   2.638  16.633  0.00  0.00    +0.000 C 
BRANCH  24  28
ATOM     25  C   UNL     1       7.166   5.536  15.523  0.00  0.00    +0.000 C 
ATOM     26  C   UNL     1       6.177   4.411  15.384  0.00  0.00    +0.000 C 
ATOM     27  O   UNL     1       5.675   4.090  14.314  0.00  0.00    +0.000 OA
ATOM     28  N   UNL     1       5.921   3.757  16.566  0.00  0.00    +0.000 N 
ATOM     29  H   UNL     1       6.173   4.212  17.436  0.00  0.00    +0.000 HD
ENDBRANCH  24  28
ENDBRANCH  18  24
ENDBRANCH   1  20
BRANCH  12  30
ATOM     30  C   UNL     1      -2.222  12.509  22.674  0.00  0.00    +0.000 C 
ATOM     31  C   UNL     1      -1.604  13.829  23.127  0.00  0.00    +0.000 C 
ATOM     32  C   UNL     1      -3.684  12.723  22.278  0.00  0.00    +0.000 C 
ENDBRANCH  12  30
TORSDOF 4
ENDMDL
MODEL 5
REMARK VINA RESULT:      -7.7      2.164      3.033
REMARK  Name = 
REMARK  7 active torsions:
REMARK  status: ('A' for Active; 'I' for Inactive)
REMARK    1  A    between atoms: C_1  and  C_2
REMARK    2  A    between atoms: N_4  and  C_5
REMARK    3  A    between atoms: C_5  and  C_6
REMARK    4  A    between atoms: N_8  and  C_9
REMARK    5  A    between atoms: N_20  and  C_21
REMARK    6  A    between atoms: C_21  and  C_22
REMARK    7  A    between atoms: C_21  and  C_23
REMARK                            x       y       z     vdW  Elec       q    Type
REMARK                         _______ _______ _______ _____ _____    ______ ____
ROOT
ATOM      1  C   UNL     1       2.245   7.058  19.643  0.00  0.00    +0.000 A 
ATOM      2  C   UNL     1       1.689   7.087  20.927  0.00  0.00    +0.000 A 
ATOM      3  C   UNL     1       0.965   8.192  21.385  0.00  0.00    +0.000 A 
ATOM      4  C   UNL     1       0.765   9.292  20.554  0.00  0.00    +0.000 A 
ATOM      5  C   UNL     1       1.347   9.305  19.266  0.00  0.00    +0.000 A 
ATOM      6  C   UNL     1       2.098   8.198  18.835  0.00  0.00    +0.000 A 
ATOM      7  C   UNL     1       1.129  10.486  18.340  0.00  0.00    +0.000 C 
ATOM      8  C   UNL     1      -0.293  10.603  17.759  0.00  0.00    +0.000 C 
ATOM      9  C   UNL     1      -1.454  10.352  18.733  0.00  0.00    +0.000 C 
ATOM     10  C   UNL     1      -1.188  10.857  20.108  0.00  0.00    +0.000 A 
ATOM     11  C   UNL     1      -1.835  11.828  20.910  0.00  0.00    +0.000 A 
ATOM     12  N   UNL     1      -2.868  12.580  20.483  0.00  0.00    +0.000 N 
ATOM     13  N   UNL     1      -1.294  11.883  22.131  0.00  0.00    +0.000 NA
ATOM     14  N   UNL     1      -0.281  11.004  22.093  0.00  0.00    +0.000 N 
ATOM     15  C   UNL     1      -0.187  10.335  20.911  0.00  0.00    +0.000 A 
ATOM     16  H   UNL     1      -3.083  12.670  19.498  0.00  0.00    +0.000 HD
ATOM     17  H   UNL     1       0.314  10.920  22.909  0.00  0.00    +0.000 HD
ENDROOT
BRANCH   1  20
ATOM     18  C   UNL     1       4.481   4.236  18.870  0.00  0.00    +0.000 C 
ATOM     19  C   UNL     1       4.302   5.637  19.415  0.00  0.00    +0.000 C 
ATOM     20  N   UNL     1       2.922   5.907  19.158  0.00  0.00    +0.000 N 
ATOM     21  C   UNL     1       2.432   4.999  18.226  0.00  0.00    +0.000 C 
ATOM     22  O   UNL     1       1.353   4.988  17.663  0.00  0.00    +0.000 OA
ATOM     23  O   UNL     1       3.400   4.068  17.941  0.00  0.00    +0.000 OA
BRANCH  18  24
ATOM     24  C   UNL     1       5.811   4.059  18.140  0.00  0.00    +0.000 C 
BRANCH  24  28
ATOM     25  C   UNL     1       7.953   7.179  18.046  0.00  0.00    +0.000 C 
ATOM     26  C   UNL     1       7.455   5.853  18.553  0.00  0.00    +0.000 C 
ATOM     27  O   UNL     1       7.902   5.309  19.556  0.00  0.00    +0.000 OA
ATOM     28  N   UNL     1       6.427   5.331  17.804  0.00  0.00    +0.000 N 
ATOM     29  H   UNL     1       6.271   5.698  16.872  0.00  0.00    +0.000 HD
ENDBRANCH  24  28
ENDBRANCH  18  24
ENDBRANCH   1  20
BRANCH  12  30
ATOM     30  C   UNL     1      -3.827  13.150  21.421  0.00  0.00    +0.000 C 
ATOM     31  C   UNL     1      -3.839  14.674  21.327  0.00  0.00    +0.000 C 
ATOM     32  C   UNL     1      -5.220  12.596  21.119  0.00  0.00    +0.000 C 
ENDBRANCH  12  30
TORSDOF 4
ENDMDL
MODEL 6
REMARK VINA RESULT:      -7.7      2.421      3.720
REMARK  Name = 
REMARK  7 active torsions:
REMARK  status: ('A' for Active; 'I' for Inactive)
REMARK    1  A    between atoms: C_1  and  C_2
REMARK    2  A    between atoms: N_4  and  C_5
REMARK    3  A    between atoms: C_5  and  C_6
REMARK    4  A    between atoms: N_8  and  C_9
REMARK    5  A    between atoms: N_20  and  C_21
REMARK    6  A    between atoms: C_21  and  C_22
REMARK    7  A    between atoms: C_21  and  C_23
REMARK                            x       y       z     vdW  Elec       q    Type
REMARK                         _______ _______ _______ _____ _____    ______ ____
ROOT
ATOM      1  C   UNL     1       2.306   7.013  18.876  0.00  0.00    +0.000 A 
ATOM      2  C   UNL     1       2.076   7.000  20.257  0.00  0.00    +0.000 A 
ATOM      3  C   UNL     1       1.501   8.093  20.912  0.00  0.00    +0.000 A 
ATOM      4  C   UNL     1       1.124   9.224  20.190  0.00  0.00    +0.000 A 
ATOM      5  C   UNL     1       1.378   9.278  18.801  0.00  0.00    +0.000 A 
ATOM      6  C   UNL     1       1.986   8.181  18.165  0.00  0.00    +0.000 A 
ATOM      7  C   UNL     1       0.961  10.493  17.994  0.00  0.00    +0.000 C 
ATOM      8  C   UNL     1      -0.557  10.640  17.778  0.00  0.00    +0.000 C 
ATOM      9  C   UNL     1      -1.453  10.363  18.995  0.00  0.00    +0.000 C 
ATOM     10  C   UNL     1      -0.855  10.817  20.280  0.00  0.00    +0.000 A 
ATOM     11  C   UNL     1      -1.274  11.763  21.246  0.00  0.00    +0.000 A 
ATOM     12  N   UNL     1      -2.369  12.537  21.106  0.00  0.00    +0.000 N 
ATOM     13  N   UNL     1      -0.454  11.771  22.301  0.00  0.00    +0.000 NA
ATOM     14  N   UNL     1       0.506  10.888  21.991  0.00  0.00    +0.000 N 
ATOM     15  C   UNL     1       0.302  10.260  20.800  0.00  0.00    +0.000 A 
ATOM     16  H   UNL     1      -2.813  12.664  20.206  0.00  0.00    +0.000 HD
ATOM     17  H   UNL     1       1.279  10.770  22.636  0.00  0.00    +0.000 HD
ENDROOT
BRANCH   1  20
ATOM     18  C   UNL     1       3.007   3.806  17.206  0.00  0.00    +0.000 C 
ATOM     19  C   UNL     1       2.179   4.600  18.195  0.00  0.00    +0.000 C 
ATOM     20  N   UNL     1       2.827   5.875  18.204  0.00  0.00    +0.000 N 
ATOM     21  C   UNL     1       4.094   5.760  17.645  0.00  0.00    +0.000 C 
ATOM     22  O   UNL     1       4.986   6.587  17.597  0.00  0.00    +0.000 OA
ATOM     23  O   UNL     1       4.269   4.487  17.161  0.00  0.00    +0.000 OA
BRANCH  18  24
ATOM     24  C   UNL     1       3.224   2.362  17.652  0.00  0.00    +0.000 C 
BRANCH  24  28
ATOM     25  C   UNL     1       3.187   2.113  21.430  0.00  0.00    +0.000 C 
ATOM     26  C   UNL     1       3.752   2.391  20.064  0.00  0.00    +0.000 C 
ATOM     27  O   UNL     1       4.906   2.759  19.879  0.00  0.00    +0.000 OA
ATOM     28  N   UNL     1       2.860   2.156  19.044  0.00  0.00    +0.000 N 
ATOM     29  H   UNL     1       1.874   2.090  19.267  0.00  0.00    +0.000 HD
ENDBRANCH  24  28
ENDBRANCH  18  24
ENDBRANCH   1  20
BRANCH  12  30
ATOM     30  C   UNL     1      -3.064  13.081  22.266  0.00  0.00    +0.000 C 
ATOM     31  C   UNL     1      -2.802  14.578  22.405  0.00  0.00    +0.000 C 
ATOM     32  C   UNL     1      -4.565  12.823  22.122  0.00  0.00    +0.000 C 
ENDBRANCH  12  30
TORSDOF 4
ENDMDL
MODEL 7
REMARK VINA RESULT:      -7.6      1.423      1.694
REMARK  Name = 
REMARK  7 active torsions:
REMARK  status: ('A' for Active; 'I' for Inactive)
REMARK    1  A    between atoms: C_1  and  C_2
REMARK    2  A    between atoms: N_4  and  C_5
REMARK    3  A    between atoms: C_5  and  C_6
REMARK    4  A    between atoms: N_8  and  C_9
REMARK    5  A    between atoms: N_20  and  C_21
REMARK    6  A    between atoms: C_21  and  C_22
REMARK    7  A    between atoms: C_21  and  C_23
REMARK                            x       y       z     vdW  Elec       q    Type
REMARK                         _______ _______ _______ _____ _____    ______ ____
ROOT
ATOM      1  C   UNL     1       2.180   7.433  19.250  0.00  0.00    +0.000 A 
ATOM      2  C   UNL     1       2.200   8.127  18.034  0.00  0.00    +0.000 A 
ATOM      3  C   UNL     1       1.500   9.326  17.866  0.00  0.00    +0.000 A 
ATOM      4  C   UNL     1       0.775   9.868  18.925  0.00  0.00    +0.000 A 
ATOM      5  C   UNL     1       0.708   9.169  20.151  0.00  0.00    +0.000 A 
ATOM      6  C   UNL     1       1.393   7.950  20.292  0.00  0.00    +0.000 A 
ATOM      7  C   UNL     1      -0.063   9.750  21.322  0.00  0.00    +0.000 C 
ATOM      8  C   UNL     1       0.595  10.973  21.990  0.00  0.00    +0.000 C 
ATOM      9  C   UNL     1       1.191  12.031  21.049  0.00  0.00    +0.000 C 
ATOM     10  C   UNL     1       0.398  12.223  19.804  0.00  0.00    +0.000 A 
ATOM     11  C   UNL     1      -0.278  13.345  19.267  0.00  0.00    +0.000 A 
ATOM     12  N   UNL     1      -0.380  14.529  19.902  0.00  0.00    +0.000 N 
ATOM     13  N   UNL     1      -0.781  13.072  18.060  0.00  0.00    +0.000 NA
ATOM     14  N   UNL     1      -0.483  11.781  17.852  0.00  0.00    +0.000 N 
ATOM     15  C   UNL     1       0.252  11.226  18.854  0.00  0.00    +0.000 A 
ATOM     16  H   UNL     1      -0.194  14.613  20.893  0.00  0.00    +0.000 HD
ATOM     17  H   UNL     1      -0.822  11.339  17.005  0.00  0.00    +0.000 HD
ENDROOT
BRANCH   1  20
ATOM     18  C   UNL     1       4.662   4.715  19.371  0.00  0.00    +0.000 C 
ATOM     19  C   UNL     1       4.114   5.940  18.671  0.00  0.00    +0.000 C 
ATOM     20  N   UNL     1       2.947   6.251  19.437  0.00  0.00    +0.000 N 
ATOM     21  C   UNL     1       2.592   5.157  20.216  0.00  0.00    +0.000 C 
ATOM     22  O   UNL     1       1.595   4.992  20.894  0.00  0.00    +0.000 OA
ATOM     23  O   UNL     1       3.541   4.174  20.085  0.00  0.00    +0.000 OA
BRANCH  18  24
ATOM     24  C   UNL     1       5.194   3.671  18.392  0.00  0.00    +0.000 C 
BRANCH  24  28
ATOM     25  C   UNL     1       7.158   4.934  15.412  0.00  0.00    +0.000 C 
ATOM     26  C   UNL     1       5.984   4.360  16.157  0.00  0.00    +0.000 C 
ATOM     27  O   UNL     1       4.942   4.024  15.607  0.00  0.00    +0.000 OA
ATOM     28  N   UNL     1       6.209   4.214  17.506  0.00  0.00    +0.000 N 
ATOM     29  H   UNL     1       6.978   4.722  17.927  0.00  0.00    +0.000 HD
ENDBRANCH  24  28
ENDBRANCH  18  24
ENDBRANCH   1  20
BRANCH  12  30
ATOM     30  C   UNL     1      -0.586  15.769  19.163  0.00  0.00    +0.000 C 
ATOM     31  C   UNL     1      -1.475  16.729  19.948  0.00  0.00    +0.000 C 
ATOM     32  C   UNL     1       0.769  16.421  18.882  0.00  0.00    +0.000 C 
ENDBRANCH  12  30
TORSDOF 4
ENDMDL
MODEL 8
REMARK VINA RESULT:      -7.6      2.310      3.509
REMARK  Name = 
REMARK  7 active torsions:
REMARK  status: ('A' for Active; 'I' for Inactive)
REMARK    1  A    between atoms: C_1  and  C_2
REMARK    2  A    between atoms: N_4  and  C_5
REMARK    3  A    between atoms: C_5  and  C_6
REMARK    4  A    between atoms: N_8  and  C_9
REMARK    5  A    between atoms: N_20  and  C_21
REMARK    6  A    between atoms: C_21  and  C_22
REMARK    7  A    between atoms: C_21  and  C_23
REMARK                            x       y       z     vdW  Elec       q    Type
REMARK                         _______ _______ _______ _____ _____    ______ ____
ROOT
ATOM      1  C   UNL     1       1.767   7.913  19.873  0.00  0.00    +0.000 A 
ATOM      2  C   UNL     1       1.203   7.806  21.150  0.00  0.00    +0.000 A 
ATOM      3  C   UNL     1       0.494   8.863  21.728  0.00  0.00    +0.000 A 
ATOM      4  C   UNL     1       0.318  10.054  21.025  0.00  0.00    +0.000 A 
ATOM      5  C   UNL     1       0.908  10.203  19.750  0.00  0.00    +0.000 A 
ATOM      6  C   UNL     1       1.644   9.139  19.199  0.00  0.00    +0.000 A 
ATOM      7  C   UNL     1       0.716  11.485  18.962  0.00  0.00    +0.000 C 
ATOM      8  C   UNL     1      -0.701  11.691  18.393  0.00  0.00    +0.000 C 
ATOM      9  C   UNL     1      -1.872  11.351  19.327  0.00  0.00    +0.000 C 
ATOM     10  C   UNL     1      -1.606  11.693  20.752  0.00  0.00    +0.000 A 
ATOM     11  C   UNL     1      -2.241  12.577  21.656  0.00  0.00    +0.000 A 
ATOM     12  N   UNL     1      -3.260  13.390  21.312  0.00  0.00    +0.000 N 
ATOM     13  N   UNL     1      -1.707  12.484  22.877  0.00  0.00    +0.000 NA
ATOM     14  N   UNL     1      -0.708  11.599  22.744  0.00  0.00    +0.000 N 
ATOM     15  C   UNL     1      -0.618  11.066  21.495  0.00  0.00    +0.000 A 
ATOM     16  H   UNL     1      -3.466  13.595  20.343  0.00  0.00    +0.000 HD
ATOM     17  H   UNL     1      -0.120  11.412  23.548  0.00  0.00    +0.000 HD
ENDROOT
BRANCH   1  20
ATOM     18  C   UNL     1       3.206   4.689  18.825  0.00  0.00    +0.000 C 
ATOM     19  C   UNL     1       2.679   5.574  19.934  0.00  0.00    +0.000 C 
ATOM     20  N   UNL     1       2.427   6.812  19.263  0.00  0.00    +0.000 N 
ATOM     21  C   UNL     1       3.089   6.826  18.041  0.00  0.00    +0.000 C 
ATOM     22  O   UNL     1       3.222   7.745  17.255  0.00  0.00    +0.000 OA
ATOM     23  O   UNL     1       3.675   5.604  17.824  0.00  0.00    +0.000 OA
BRANCH  18  24
ATOM     24  C   UNL     1       4.362   3.803  19.285  0.00  0.00    +0.000 C 
BRANCH  24  28
ATOM     25  C   UNL     1       7.696   4.674  17.714  0.00  0.00    +0.000 C 
ATOM     26  C   UNL     1       6.605   4.687  18.750  0.00  0.00    +0.000 C 
ATOM     27  O   UNL     1       6.666   5.350  19.779  0.00  0.00    +0.000 OA
ATOM     28  N   UNL     1       5.519   3.913  18.413  0.00  0.00    +0.000 N 
ATOM     29  H   UNL     1       5.628   3.216  17.685  0.00  0.00    +0.000 HD
ENDBRANCH  24  28
ENDBRANCH  18  24
ENDBRANCH   1  20
BRANCH  12  30
ATOM     30  C   UNL     1      -4.214  13.868  22.305  0.00  0.00    +0.000 C 
ATOM     31  C   UNL     1      -4.441  15.370  22.164  0.00  0.00    +0.000 C 
ATOM     32  C   UNL     1      -5.538  13.119  22.133  0.00  0.00    +0.000 C 
ENDBRANCH  12  30
TORSDOF 4
ENDMDL
MODEL 9
REMARK VINA RESULT:      -7.5      1.873      2.866
REMARK  Name = 
REMARK  7 active torsions:
REMARK  status: ('A' for Active; 'I' for Inactive)
REMARK    1  A    between atoms: C_1  and  C_2
REMARK    2  A    between atoms: N_4  and  C_5
REMARK    3  A    between atoms: C_5  and  C_6
REMARK    4  A    between atoms: N_8  and  C_9
REMARK    5  A    between atoms: N_20  and  C_21
REMARK    6  A    between atoms: C_21  and  C_22
REMARK    7  A    between atoms: C_21  and  C_23
REMARK                            x       y       z     vdW  Elec       q    Type
REMARK                         _______ _______ _______ _____ _____    ______ ____
ROOT
ATOM      1  C   UNL     1       2.002   7.124  20.173  0.00  0.00    +0.000 A 
ATOM      2  C   UNL     1       1.538   7.474  21.447  0.00  0.00    +0.000 A 
ATOM      3  C   UNL     1       0.906   8.699  21.684  0.00  0.00    +0.000 A 
ATOM      4  C   UNL     1       0.707   9.598  20.639  0.00  0.00    +0.000 A 
ATOM      5  C   UNL     1       1.198   9.286  19.351  0.00  0.00    +0.000 A 
ATOM      6  C   UNL     1       1.858   8.064  19.139  0.00  0.00    +0.000 A 
ATOM      7  C   UNL     1       0.978  10.245  18.196  0.00  0.00    +0.000 C 
ATOM      8  C   UNL     1      -0.473  10.324  17.684  0.00  0.00    +0.000 C 
ATOM      9  C   UNL     1      -1.575  10.373  18.754  0.00  0.00    +0.000 C 
ATOM     10  C   UNL     1      -1.188  11.151  19.962  0.00  0.00    +0.000 A 
ATOM     11  C   UNL     1      -1.726  12.317  20.560  0.00  0.00    +0.000 A 
ATOM     12  N   UNL     1      -2.746  13.022  20.033  0.00  0.00    +0.000 N 
ATOM     13  N   UNL     1      -1.099  12.605  21.705  0.00  0.00    +0.000 NA
ATOM     14  N   UNL     1      -0.138  11.674  21.808  0.00  0.00    +0.000 N 
ATOM     15  C   UNL     1      -0.162  10.755  20.805  0.00  0.00    +0.000 A 
ATOM     16  H   UNL     1      -3.023  12.906  19.067  0.00  0.00    +0.000 HD
ATOM     17  H   UNL     1       0.506  11.733  22.588  0.00  0.00    +0.000 HD
ENDROOT
BRANCH   1  20
ATOM     18  C   UNL     1       4.104   4.187  19.457  0.00  0.00    +0.000 C 
ATOM     19  C   UNL     1       3.867   5.676  19.322  0.00  0.00    +0.000 C 
ATOM     20  N   UNL     1       2.581   5.852  19.923  0.00  0.00    +0.000 N 
ATOM     21  C   UNL     1       1.940   4.623  20.026  0.00  0.00    +0.000 C 
ATOM     22  O   UNL     1       0.794   4.384  20.358  0.00  0.00    +0.000 OA
ATOM     23  O   UNL     1       2.794   3.626  19.623  0.00  0.00    +0.000 OA
BRANCH  18  24
ATOM     24  C   UNL     1       4.761   3.585  18.217  0.00  0.00    +0.000 C 
BRANCH  24  28
ATOM     25  C   UNL     1       7.201   5.974  16.582  0.00  0.00    +0.000 C 
ATOM     26  C   UNL     1       6.732   4.901  17.526  0.00  0.00    +0.000 C 
ATOM     27  O   UNL     1       7.462   4.377  18.360  0.00  0.00    +0.000 OA
ATOM     28  N   UNL     1       5.399   4.593  17.388  0.00  0.00    +0.000 N 
ATOM     29  H   UNL     1       4.921   4.878  16.542  0.00  0.00    +0.000 HD
ENDBRANCH  24  28
ENDBRANCH  18  24
ENDBRANCH   1  20
BRANCH  12  30
ATOM     30  C   UNL     1      -3.606  13.849  20.870  0.00  0.00    +0.000 C 
ATOM     31  C   UNL     1      -3.213  15.320  20.768  0.00  0.00    +0.000 C 
ATOM     32  C   UNL     1      -5.061  13.664  20.437  0.00  0.00    +0.000 C 
ENDBRANCH  12  30
TORSDOF 4
ENDMDL
