MODEL 1
REMARK VINA RESULT:      -9.0      0.000      0.000
REMARK  Name = 
REMARK  5 active torsions:
REMARK  status: ('A' for Active; 'I' for Inactive)
REMARK    1  A    between atoms: C_1  and  S_2
REMARK    2  A    between atoms: S_2  and  C_3
REMARK    3  A    between atoms: C_8  and  C_9
REMARK    4  A    between atoms: N_11  and  C_12
REMARK    5  A    between atoms: C_15  and  C_16
REMARK                            x       y       z     vdW  Elec       q    Type
REMARK                         _______ _______ _______ _____ _____    ______ ____
ROOT
ATOM      1  C   UNL     1       1.458   8.119  20.259  0.00  0.00    +0.000 A 
ATOM      2  C   UNL     1       1.726   8.962  19.172  0.00  0.00    +0.000 A 
ATOM      3  C   UNL     1       1.068  10.176  19.006  0.00  0.00    +0.000 A 
ATOM      4  C   UNL     1       0.126  10.578  19.948  0.00  0.00    +0.000 A 
ATOM      5  C   UNL     1      -0.162   9.750  21.041  0.00  0.00    +0.000 A 
ATOM      6  C   UNL     1       0.508   8.530  21.205  0.00  0.00    +0.000 A 
ENDROOT
BRANCH   4   7
ATOM      7  C   UNL     1      -0.556  11.888  19.832  0.00  0.00    +0.000 C 
ATOM      8  O   UNL     1       0.168  12.879  19.941  0.00  0.00    +0.000 OA
ATOM      9  N   UNL     1      -1.960  11.955  19.628  0.00  0.00    +0.000 N 
ATOM     10  C   UNL     1      -2.487  13.325  19.767  0.00  0.00    +0.000 C 
ATOM     11  C   UNL     1      -3.733  13.398  20.574  0.00  0.00    +0.000 A 
ATOM     12  C   UNL     1      -4.028  14.260  21.616  0.00  0.00    +0.000 A 
ATOM     13  C   UNL     1      -5.364  14.033  22.008  0.00  0.00    +0.000 A 
ATOM     14  C   UNL     1      -5.851  13.034  21.201  0.00  0.00    +0.000 A 
ATOM     15  N   UNL     1      -4.855  12.656  20.325  0.00  0.00    +0.000 N 
ATOM     16  C   UNL     1      -5.050  11.625  19.316  0.00  0.00    +0.000 C 
ATOM     17  C   UNL     1      -3.976  11.425  18.272  0.00  0.00    +0.000 A 
ATOM     18  C   UNL     1      -4.399  11.294  16.933  0.00  0.00    +0.000 A 
ATOM     19  C   UNL     1      -3.533  10.828  15.947  0.00  0.00    +0.000 A 
ATOM     20  C   UNL     1      -2.294  10.344  16.310  0.00  0.00    +0.000 A 
ATOM     21  C   UNL     1      -1.850  10.502  17.622  0.00  0.00    +0.000 A 
ATOM     22  C   UNL     1      -2.616  11.197  18.572  0.00  0.00    +0.000 A 
ENDBRANCH   4   7
BRANCH   1  25
ATOM     23  C   UNL     1       2.380   5.947  19.459  0.00  0.00    +0.000 C 
ATOM     24  O   UNL     1       2.203   6.141  18.258  0.00  0.00    +0.000 OA
ATOM     25  N   UNL     1       2.082   6.865  20.447  0.00  0.00    +0.000 N 
ATOM     26  H   UNL     1       2.309   6.606  21.401  0.00  0.00    +0.000 HD
BRANCH  23  32
ATOM     27  C   UNL     1       4.156   4.027  19.373  0.00  0.00    +0.000 A 
ATOM     28  C   UNL     1       4.513   2.748  19.858  0.00  0.00    +0.000 A 
ATOM     29  C   UNL     1       3.747   2.082  20.806  0.00  0.00    +0.000 A 
ATOM     30  C   UNL     1       2.584   2.671  21.297  0.00  0.00    +0.000 A 
ATOM     31  C   UNL     1       2.205   3.917  20.818  0.00  0.00    +0.000 A 
ATOM     32  C   UNL     1       2.965   4.618  19.846  0.00  0.00    +0.000 A 
BRANCH  27  34
ATOM     33  C   UNL     1       4.580   4.004  16.633  0.00  0.00    +0.000 C 
ATOM     34  S   UNL     1       5.247   4.756  18.148  0.00  0.00    +0.000 S 
ENDBRANCH  27  34
ENDBRANCH  23  32
ENDBRANCH   1  25
TORSDOF 4
ENDMDL
MODEL 2
REMARK VINA RESULT:      -8.7      1.130      1.354
REMARK  Name = 
REMARK  5 active torsions:
REMARK  status: ('A' for Active; 'I' for Inactive)
REMARK    1  A    between atoms: C_1  and  S_2
REMARK    2  A    between atoms: S_2  and  C_3
REMARK    3  A    between atoms: C_8  and  C_9
REMARK    4  A    between atoms: N_11  and  C_12
REMARK    5  A    between atoms: C_15  and  C_16
REMARK                            x       y       z     vdW  Elec       q    Type
REMARK                         _______ _______ _______ _____ _____    ______ ____
ROOT
ATOM      1  C   UNL     1       2.099   8.043  19.619  0.00  0.00    +0.000 A 
ATOM      2  C   UNL     1       2.290   8.681  18.387  0.00  0.00    +0.000 A 
ATOM      3  C   UNL     1       1.757   9.938  18.122  0.00  0.00    +0.000 A 
ATOM      4  C   UNL     1       1.023  10.592  19.107  0.00  0.00    +0.000 A 
ATOM      5  C   UNL     1       0.815   9.971  20.346  0.00  0.00    +0.000 A 
ATOM      6  C   UNL     1       1.358   8.707  20.609  0.00  0.00    +0.000 A 
ENDROOT
BRANCH   4   7
ATOM      7  C   UNL     1       0.485  11.953  18.879  0.00  0.00    +0.000 C 
ATOM      8  O   UNL     1       1.292  12.783  18.460  0.00  0.00    +0.000 OA
ATOM      9  N   UNL     1      -0.878  12.246  19.156  0.00  0.00    +0.000 N 
ATOM     10  C   UNL     1      -1.171  13.689  19.088  0.00  0.00    +0.000 C 
ATOM     11  C   UNL     1      -2.002  14.176  20.219  0.00  0.00    +0.000 A 
ATOM     12  C   UNL     1      -1.791  15.282  21.023  0.00  0.00    +0.000 A 
ATOM     13  C   UNL     1      -2.894  15.410  21.893  0.00  0.00    +0.000 A 
ATOM     14  C   UNL     1      -3.749  14.375  21.606  0.00  0.00    +0.000 A 
ATOM     15  N   UNL     1      -3.204  13.630  20.580  0.00  0.00    +0.000 N 
ATOM     16  C   UNL     1      -3.871  12.464  20.020  0.00  0.00    +0.000 C 
ATOM     17  C   UNL     1      -3.300  11.838  18.768  0.00  0.00    +0.000 A 
ATOM     18  C   UNL     1      -4.211  11.506  17.744  0.00  0.00    +0.000 A 
ATOM     19  C   UNL     1      -3.836  10.679  16.689  0.00  0.00    +0.000 A 
ATOM     20  C   UNL     1      -2.608  10.053  16.724  0.00  0.00    +0.000 A 
ATOM     21  C   UNL     1      -1.685  10.402  17.709  0.00  0.00    +0.000 A 
ATOM     22  C   UNL     1      -1.958  11.421  18.636  0.00  0.00    +0.000 A 
ENDBRANCH   4   7
BRANCH   1  25
ATOM     23  C   UNL     1       2.376   5.605  19.183  0.00  0.00    +0.000 C 
ATOM     24  O   UNL     1       1.765   5.572  18.117  0.00  0.00    +0.000 OA
ATOM     25  N   UNL     1       2.597   6.754  19.917  0.00  0.00    +0.000 N 
ATOM     26  H   UNL     1       3.149   6.662  20.763  0.00  0.00    +0.000 HD
BRANCH  23  32
ATOM     27  C   UNL     1       3.954   3.518  19.153  0.00  0.00    +0.000 A 
ATOM     28  C   UNL     1       4.282   2.297  19.783  0.00  0.00    +0.000 A 
ATOM     29  C   UNL     1       3.632   1.866  20.932  0.00  0.00    +0.000 A 
ATOM     30  C   UNL     1       2.616   2.641  21.487  0.00  0.00    +0.000 A 
ATOM     31  C   UNL     1       2.264   3.833  20.870  0.00  0.00    +0.000 A 
ATOM     32  C   UNL     1       2.908   4.295  19.693  0.00  0.00    +0.000 A 
BRANCH  27  34
ATOM     33  C   UNL     1       6.315   4.773  18.418  0.00  0.00    +0.000 C 
ATOM     34  S   UNL     1       4.884   3.935  17.674  0.00  0.00    +0.000 S 
ENDBRANCH  27  34
ENDBRANCH  23  32
ENDBRANCH   1  25
TORSDOF 4
ENDMDL
MODEL 3
REMARK VINA RESULT:      -8.7      1.205      2.008
REMARK  Name = 
REMARK  5 active torsions:
REMARK  status: ('A' for Active; 'I' for Inactive)
REMARK    1  A    between atoms: C_1  and  S_2
REMARK    2  A    between atoms: S_2  and  C_3
REMARK    3  A    between atoms: C_8  and  C_9
REMARK    4  A    between atoms: N_11  and  C_12
REMARK    5  A    between atoms: C_15  and  C_16
REMARK                            x       y       z     vdW  Elec       q    Type
REMARK                         _______ _______ _______ _____ _____    ______ ____
ROOT
ATOM      1  C   UNL     1       1.235   8.623  20.239  0.00  0.00    +0.000 A 
ATOM      2  C   UNL     1       0.245   8.844  21.205  0.00  0.00    +0.000 A 
ATOM      3  C   UNL     1      -0.518  10.007  21.220  0.00  0.00    +0.000 A 
ATOM      4  C   UNL     1      -0.305  10.978  20.246  0.00  0.00    +0.000 A 
ATOM      5  C   UNL     1       0.683  10.781  19.272  0.00  0.00    +0.000 A 
ATOM      6  C   UNL     1       1.445   9.605  19.259  0.00  0.00    +0.000 A 
ENDROOT
BRANCH   4   7
ATOM      7  C   UNL     1      -1.134  12.205  20.200  0.00  0.00    +0.000 C 
ATOM      8  O   UNL     1      -0.542  13.258  20.443  0.00  0.00    +0.000 OA
ATOM      9  N   UNL     1      -2.522  12.128  19.909  0.00  0.00    +0.000 N 
ATOM     10  C   UNL     1      -3.219  13.408  20.132  0.00  0.00    +0.000 C 
ATOM     11  C   UNL     1      -4.507  13.260  20.857  0.00  0.00    +0.000 A 
ATOM     12  C   UNL     1      -4.962  13.979  21.949  0.00  0.00    +0.000 A 
ATOM     13  C   UNL     1      -6.281  13.563  22.229  0.00  0.00    +0.000 A 
ATOM     14  C   UNL     1      -6.597  12.595  21.308  0.00  0.00    +0.000 A 
ATOM     15  N   UNL     1      -5.515  12.419  20.470  0.00  0.00    +0.000 N 
ATOM     16  C   UNL     1      -5.527  11.473  19.364  0.00  0.00    +0.000 C 
ATOM     17  C   UNL     1      -4.380  11.498  18.381  0.00  0.00    +0.000 A 
ATOM     18  C   UNL     1      -4.709  11.446  17.010  0.00  0.00    +0.000 A 
ATOM     19  C   UNL     1      -3.739  11.179  16.047  0.00  0.00    +0.000 A 
ATOM     20  C   UNL     1      -2.472  10.810  16.448  0.00  0.00    +0.000 A 
ATOM     21  C   UNL     1      -2.125  10.894  17.796  0.00  0.00    +0.000 A 
ATOM     22  C   UNL     1      -3.021  11.402  18.750  0.00  0.00    +0.000 A 
ENDBRANCH   4   7
BRANCH   1  25
ATOM     23  C   UNL     1       2.429   6.769  19.078  0.00  0.00    +0.000 C 
ATOM     24  O   UNL     1       2.156   7.110  17.929  0.00  0.00    +0.000 OA
ATOM     25  N   UNL     1       2.052   7.470  20.207  0.00  0.00    +0.000 N 
ATOM     26  H   UNL     1       2.370   7.112  21.101  0.00  0.00    +0.000 HD
BRANCH  23  32
ATOM     27  C   UNL     1       2.774   4.238  19.646  0.00  0.00    +0.000 A 
ATOM     28  C   UNL     1       3.710   3.183  19.743  0.00  0.00    +0.000 A 
ATOM     29  C   UNL     1       5.047   3.355  19.408  0.00  0.00    +0.000 A 
ATOM     30  C   UNL     1       5.500   4.598  18.974  0.00  0.00    +0.000 A 
ATOM     31  C   UNL     1       4.601   5.652  18.892  0.00  0.00    +0.000 A 
ATOM     32  C   UNL     1       3.231   5.507  19.232  0.00  0.00    +0.000 A 
BRANCH  27  34
ATOM     33  C   UNL     1       1.381   2.765  21.537  0.00  0.00    +0.000 C 
ATOM     34  S   UNL     1       1.084   3.859  20.116  0.00  0.00    +0.000 S 
ENDBRANCH  27  34
ENDBRANCH  23  32
ENDBRANCH   1  25
TORSDOF 4
ENDMDL
MODEL 4
REMARK VINA RESULT:      -8.7      1.342      1.735
REMARK  Name = 
REMARK  5 active torsions:
REMARK  status: ('A' for Active; 'I' for Inactive)
REMARK    1  A    between atoms: C_1  and  S_2
REMARK    2  A    between atoms: S_2  and  C_3
REMARK    3  A    between atoms: C_8  and  C_9
REMARK    4  A    between atoms: N_11  and  C_12
REMARK    5  A    between atoms: C_15  and  C_16
REMARK                            x       y       z     vdW  Elec       q    Type
REMARK                         _______ _______ _______ _____ _____    ______ ____
ROOT
ATOM      1  C   UNL     1       2.038   7.793  19.270  0.00  0.00    +0.000 A 
ATOM      2  C   UNL     1       1.370   8.393  20.346  0.00  0.00    +0.000 A 
ATOM      3  C   UNL     1       0.907   9.703  20.282  0.00  0.00    +0.000 A 
ATOM      4  C   UNL     1       1.097  10.441  19.117  0.00  0.00    +0.000 A 
ATOM      5  C   UNL     1       1.767   9.863  18.030  0.00  0.00    +0.000 A 
ATOM      6  C   UNL     1       2.227   8.541  18.098  0.00  0.00    +0.000 A 
ENDROOT
BRANCH   4   7
ATOM      7  C   UNL     1       0.572  11.820  18.994  0.00  0.00    +0.000 C 
ATOM      8  O   UNL     1       1.395  12.679  18.675  0.00  0.00    +0.000 OA
ATOM      9  N   UNL     1      -0.797  12.096  19.255  0.00  0.00    +0.000 N 
ATOM     10  C   UNL     1      -1.083  13.542  19.306  0.00  0.00    +0.000 C 
ATOM     11  C   UNL     1      -1.947  13.932  20.450  0.00  0.00    +0.000 A 
ATOM     12  C   UNL     1      -1.756  14.962  21.354  0.00  0.00    +0.000 A 
ATOM     13  C   UNL     1      -2.885  15.020  22.198  0.00  0.00    +0.000 A 
ATOM     14  C   UNL     1      -3.735  14.019  21.794  0.00  0.00    +0.000 A 
ATOM     15  N   UNL     1      -3.161  13.365  20.724  0.00  0.00    +0.000 N 
ATOM     16  C   UNL     1      -3.815  12.257  20.043  0.00  0.00    +0.000 C 
ATOM     17  C   UNL     1      -3.208  11.740  18.759  0.00  0.00    +0.000 A 
ATOM     18  C   UNL     1      -4.088  11.506  17.682  0.00  0.00    +0.000 A 
ATOM     19  C   UNL     1      -3.683  10.773  16.569  0.00  0.00    +0.000 A 
ATOM     20  C   UNL     1      -2.460  10.138  16.586  0.00  0.00    +0.000 A 
ATOM     21  C   UNL     1      -1.567  10.392  17.626  0.00  0.00    +0.000 A 
ATOM     22  C   UNL     1      -1.864  11.327  18.631  0.00  0.00    +0.000 A 
ENDBRANCH   4   7
BRANCH   1  25
ATOM     23  C   UNL     1       2.236   5.455  18.433  0.00  0.00    +0.000 C 
ATOM     24  O   UNL     1       1.509   5.585  17.450  0.00  0.00    +0.000 OA
ATOM     25  N   UNL     1       2.551   6.477  19.306  0.00  0.00    +0.000 N 
ATOM     26  H   UNL     1       3.193   6.257  20.060  0.00  0.00    +0.000 HD
BRANCH  23  32
ATOM     27  C   UNL     1       4.153   3.738  18.907  0.00  0.00    +0.000 A 
ATOM     28  C   UNL     1       4.478   2.374  19.084  0.00  0.00    +0.000 A 
ATOM     29  C   UNL     1       3.507   1.381  19.069  0.00  0.00    +0.000 A 
ATOM     30  C   UNL     1       2.171   1.718  18.862  0.00  0.00    +0.000 A 
ATOM     31  C   UNL     1       1.835   3.049  18.664  0.00  0.00    +0.000 A 
ATOM     32  C   UNL     1       2.806   4.085  18.670  0.00  0.00    +0.000 A 
BRANCH  27  34
ATOM     33  C   UNL     1       6.119   4.761  17.240  0.00  0.00    +0.000 C 
ATOM     34  S   UNL     1       5.519   4.902  18.950  0.00  0.00    +0.000 S 
ENDBRANCH  27  34
ENDBRANCH  23  32
ENDBRANCH   1  25
TORSDOF 4
ENDMDL
MODEL 5
REMARK VINA RESULT:      -8.5      1.947      2.527
REMARK  Name = 
REMARK  5 active torsions:
REMARK  status: ('A' for Active; 'I' for Inactive)
REMARK    1  A    between atoms: C_1  and  S_2
REMARK    2  A    between atoms: S_2  and  C_3
REMARK    3  A    between atoms: C_8  and  C_9
REMARK    4  A    between atoms: N_11  and  C_12
REMARK    5  A    between atoms: C_15  and  C_16
REMARK                            x       y       z     vdW  Elec       q    Type
REMARK                         _______ _______ _______ _____ _____    ______ ____
ROOT
ATOM      1  C   UNL     1       1.640   8.472  19.501  0.00  0.00    +0.000 A 
ATOM      2  C   UNL     1       1.600   9.422  18.472  0.00  0.00    +0.000 A 
ATOM      3  C   UNL     1       1.176  10.727  18.695  0.00  0.00    +0.000 A 
ATOM      4  C   UNL     1       0.790  11.113  19.975  0.00  0.00    +0.000 A 
ATOM      5  C   UNL     1       0.818  10.179  21.020  0.00  0.00    +0.000 A 
ATOM      6  C   UNL     1       1.250   8.866  20.790  0.00  0.00    +0.000 A 
ENDROOT
BRANCH   4   7
ATOM      7  C   UNL     1       0.383  12.508  20.261  0.00  0.00    +0.000 C 
ATOM      8  O   UNL     1       1.187  13.379  19.925  0.00  0.00    +0.000 OA
ATOM      9  N   UNL     1      -0.856  12.781  20.900  0.00  0.00    +0.000 N 
ATOM     10  C   UNL     1      -0.984  14.193  21.305  0.00  0.00    +0.000 C 
ATOM     11  C   UNL     1      -1.519  14.366  22.680  0.00  0.00    +0.000 A 
ATOM     12  C   UNL     1      -1.027  15.168  23.695  0.00  0.00    +0.000 A 
ATOM     13  C   UNL     1      -1.920  15.092  24.785  0.00  0.00    +0.000 A 
ATOM     14  C   UNL     1      -2.930  14.240  24.414  0.00  0.00    +0.000 A 
ATOM     15  N   UNL     1      -2.684  13.806  23.128  0.00  0.00    +0.000 N 
ATOM     16  C   UNL     1      -3.580  12.900  22.423  0.00  0.00    +0.000 C 
ATOM     17  C   UNL     1      -3.338  12.645  20.953  0.00  0.00    +0.000 A 
ATOM     18  C   UNL     1      -4.462  12.686  20.102  0.00  0.00    +0.000 A 
ATOM     19  C   UNL     1      -4.398  12.192  18.802  0.00  0.00    +0.000 A 
ATOM     20  C   UNL     1      -3.269  11.516  18.391  0.00  0.00    +0.000 A 
ATOM     21  C   UNL     1      -2.139  11.502  19.208  0.00  0.00    +0.000 A 
ATOM     22  C   UNL     1      -2.106  12.211  20.419  0.00  0.00    +0.000 A 
ENDBRANCH   4   7
BRANCH   1  25
ATOM     23  C   UNL     1       2.947   6.672  18.379  0.00  0.00    +0.000 C 
ATOM     24  O   UNL     1       3.598   7.400  17.634  0.00  0.00    +0.000 OA
ATOM     25  N   UNL     1       2.035   7.129  19.310  0.00  0.00    +0.000 N 
ATOM     26  H   UNL     1       1.586   6.433  19.897  0.00  0.00    +0.000 HD
BRANCH  23  32
ATOM     27  C   UNL     1       4.369   4.480  18.530  0.00  0.00    +0.000 A 
ATOM     28  C   UNL     1       4.383   3.083  18.317  0.00  0.00    +0.000 A 
ATOM     29  C   UNL     1       3.258   2.397  17.878  0.00  0.00    +0.000 A 
ATOM     30  C   UNL     1       2.076   3.090  17.624  0.00  0.00    +0.000 A 
ATOM     31  C   UNL     1       2.049   4.466  17.807  0.00  0.00    +0.000 A 
ATOM     32  C   UNL     1       3.185   5.193  18.250  0.00  0.00    +0.000 A 
BRANCH  27  34
ATOM     33  C   UNL     1       6.843   5.247  17.541  0.00  0.00    +0.000 C 
ATOM     34  S   UNL     1       5.903   5.222  19.096  0.00  0.00    +0.000 S 
ENDBRANCH  27  34
ENDBRANCH  23  32
ENDBRANCH   1  25
TORSDOF 4
ENDMDL
MODEL 6
REMARK VINA RESULT:      -8.5      1.571      2.244
REMARK  Name = 
REMARK  5 active torsions:
REMARK  status: ('A' for Active; 'I' for Inactive)
REMARK    1  A    between atoms: C_1  and  S_2
REMARK    2  A    between atoms: S_2  and  C_3
REMARK    3  A    between atoms: C_8  and  C_9
REMARK    4  A    between atoms: N_11  and  C_12
REMARK    5  A    between atoms: C_15  and  C_16
REMARK                            x       y       z     vdW  Elec       q    Type
REMARK                         _______ _______ _______ _____ _____    ______ ____
ROOT
ATOM      1  C   UNL     1       2.189   7.736  18.939  0.00  0.00    +0.000 A 
ATOM      2  C   UNL     1       2.338   8.560  17.816  0.00  0.00    +0.000 A 
ATOM      3  C   UNL     1       1.826   9.852  17.782  0.00  0.00    +0.000 A 
ATOM      4  C   UNL     1       1.155  10.352  18.894  0.00  0.00    +0.000 A 
ATOM      5  C   UNL     1       0.990   9.545  20.027  0.00  0.00    +0.000 A 
ATOM      6  C   UNL     1       1.513   8.245  20.058  0.00  0.00    +0.000 A 
ENDROOT
BRANCH   4   7
ATOM      7  C   UNL     1       0.642  11.742  18.913  0.00  0.00    +0.000 C 
ATOM      8  O   UNL     1       1.467  12.620  18.656  0.00  0.00    +0.000 OA
ATOM      9  N   UNL     1      -0.717  12.004  19.232  0.00  0.00    +0.000 N 
ATOM     10  C   UNL     1      -0.986  13.441  19.424  0.00  0.00    +0.000 C 
ATOM     11  C   UNL     1      -1.818  13.730  20.620  0.00  0.00    +0.000 A 
ATOM     12  C   UNL     1      -1.595  14.669  21.612  0.00  0.00    +0.000 A 
ATOM     13  C   UNL     1      -2.704  14.657  22.485  0.00  0.00    +0.000 A 
ATOM     14  C   UNL     1      -3.573  13.706  22.011  0.00  0.00    +0.000 A 
ATOM     15  N   UNL     1      -3.032  13.150  20.870  0.00  0.00    +0.000 N 
ATOM     16  C   UNL     1      -3.714  12.117  20.105  0.00  0.00    +0.000 C 
ATOM     17  C   UNL     1      -3.142  11.717  18.764  0.00  0.00    +0.000 A 
ATOM     18  C   UNL     1      -4.050  11.592  17.691  0.00  0.00    +0.000 A 
ATOM     19  C   UNL     1      -3.680  10.963  16.506  0.00  0.00    +0.000 A 
ATOM     20  C   UNL     1      -2.463  10.319  16.434  0.00  0.00    +0.000 A 
ATOM     21  C   UNL     1      -1.543  10.467  17.471  0.00  0.00    +0.000 A 
ATOM     22  C   UNL     1      -1.807  11.306  18.565  0.00  0.00    +0.000 A 
ENDBRANCH   4   7
BRANCH   1  25
ATOM     23  C   UNL     1       2.160   5.324  18.312  0.00  0.00    +0.000 C 
ATOM     24  O   UNL     1       1.255   5.395  17.483  0.00  0.00    +0.000 OA
ATOM     25  N   UNL     1       2.668   6.407  19.002  0.00  0.00    +0.000 N 
ATOM     26  H   UNL     1       3.442   6.231  19.633  0.00  0.00    +0.000 HD
BRANCH  23  32
ATOM     27  C   UNL     1       2.837   3.279  19.797  0.00  0.00    +0.000 A 
ATOM     28  C   UNL     1       3.435   1.999  19.813  0.00  0.00    +0.000 A 
ATOM     29  C   UNL     1       3.885   1.384  18.652  0.00  0.00    +0.000 A 
ATOM     30  C   UNL     1       3.763   2.037  17.428  0.00  0.00    +0.000 A 
ATOM     31  C   UNL     1       3.197   3.304  17.394  0.00  0.00    +0.000 A 
ATOM     32  C   UNL     1       2.734   3.959  18.565  0.00  0.00    +0.000 A 
BRANCH  27  34
ATOM     33  C   UNL     1       1.281   2.565  21.977  0.00  0.00    +0.000 C 
ATOM     34  S   UNL     1       2.309   3.939  21.380  0.00  0.00    +0.000 S 
ENDBRANCH  27  34
ENDBRANCH  23  32
ENDBRANCH   1  25
TORSDOF 4
ENDMDL
MODEL 7
REMARK VINA RESULT:      -8.4      1.935      2.532
REMARK  Name = 
REMARK  5 active torsions:
REMARK  status: ('A' for Active; 'I' for Inactive)
REMARK    1  A    between atoms: C_1  and  S_2
REMARK    2  A    between atoms: S_2  and  C_3
REMARK    3  A    between atoms: C_8  and  C_9
REMARK    4  A    between atoms: N_11  and  C_12
REMARK    5  A    between atoms: C_15  and  C_16
REMARK                            x       y       z     vdW  Elec       q    Type
REMARK                         _______ _______ _______ _____ _____    ______ ____
ROOT
ATOM      1  C   UNL     1       1.829   8.226  19.010  0.00  0.00    +0.000 A 
ATOM      2  C   UNL     1       1.369   8.604  20.278  0.00  0.00    +0.000 A 
ATOM      3  C   UNL     1       1.027   9.919  20.572  0.00  0.00    +0.000 A 
ATOM      4  C   UNL     1       1.129  10.891  19.581  0.00  0.00    +0.000 A 
ATOM      5  C   UNL     1       1.590  10.537  18.305  0.00  0.00    +0.000 A 
ATOM      6  C   UNL     1       1.929   9.209  18.014  0.00  0.00    +0.000 A 
ENDROOT
BRANCH   4   7
ATOM      7  C   UNL     1       0.723  12.291  19.842  0.00  0.00    +0.000 C 
ATOM      8  O   UNL     1       1.518  13.156  19.471  0.00  0.00    +0.000 OA
ATOM      9  N   UNL     1      -0.505  12.577  20.498  0.00  0.00    +0.000 N 
ATOM     10  C   UNL     1      -0.629  13.997  20.872  0.00  0.00    +0.000 C 
ATOM     11  C   UNL     1      -1.138  14.200  22.253  0.00  0.00    +0.000 A 
ATOM     12  C   UNL     1      -0.630  15.027  23.240  0.00  0.00    +0.000 A 
ATOM     13  C   UNL     1      -1.502  14.974  24.348  0.00  0.00    +0.000 A 
ATOM     14  C   UNL     1      -2.517  14.111  24.015  0.00  0.00    +0.000 A 
ATOM     15  N   UNL     1      -2.294  13.648  22.735  0.00  0.00    +0.000 N 
ATOM     16  C   UNL     1      -3.200  12.724  22.068  0.00  0.00    +0.000 C 
ATOM     17  C   UNL     1      -2.985  12.436  20.600  0.00  0.00    +0.000 A 
ATOM     18  C   UNL     1      -4.125  12.455  19.769  0.00  0.00    +0.000 A 
ATOM     19  C   UNL     1      -4.083  11.931  18.480  0.00  0.00    +0.000 A 
ATOM     20  C   UNL     1      -2.960  11.248  18.064  0.00  0.00    +0.000 A 
ATOM     21  C   UNL     1      -1.816  11.255  18.859  0.00  0.00    +0.000 A 
ATOM     22  C   UNL     1      -1.762  11.993  20.054  0.00  0.00    +0.000 A 
ENDBRANCH   4   7
BRANCH   1  25
ATOM     23  C   UNL     1       2.161   5.809  19.515  0.00  0.00    +0.000 C 
ATOM     24  O   UNL     1       1.690   5.826  20.650  0.00  0.00    +0.000 OA
ATOM     25  N   UNL     1       2.216   6.907  18.680  0.00  0.00    +0.000 N 
ATOM     26  H   UNL     1       2.593   6.761  17.750  0.00  0.00    +0.000 HD
BRANCH  23  32
ATOM     27  C   UNL     1       4.049   4.121  18.857  0.00  0.00    +0.000 A 
ATOM     28  C   UNL     1       4.335   2.827  18.366  0.00  0.00    +0.000 A 
ATOM     29  C   UNL     1       3.332   1.908  18.090  0.00  0.00    +0.000 A 
ATOM     30  C   UNL     1       1.997   2.257  18.285  0.00  0.00    +0.000 A 
ATOM     31  C   UNL     1       1.694   3.531  18.746  0.00  0.00    +0.000 A 
ATOM     32  C   UNL     1       2.699   4.492  19.031  0.00  0.00    +0.000 A 
BRANCH  27  34
ATOM     33  C   UNL     1       5.574   6.038  17.559  0.00  0.00    +0.000 C 
ATOM     34  S   UNL     1       5.456   5.193  19.164  0.00  0.00    +0.000 S 
ENDBRANCH  27  34
ENDBRANCH  23  32
ENDBRANCH   1  25
TORSDOF 4
ENDMDL
MODEL 8
REMARK VINA RESULT:      -8.3      1.478      2.435
REMARK  Name = 
REMARK  5 active torsions:
REMARK  status: ('A' for Active; 'I' for Inactive)
REMARK    1  A    between atoms: C_1  and  S_2
REMARK    2  A    between atoms: S_2  and  C_3
REMARK    3  A    between atoms: C_8  and  C_9
REMARK    4  A    between atoms: N_11  and  C_12
REMARK    5  A    between atoms: C_15  and  C_16
REMARK                            x       y       z     vdW  Elec       q    Type
REMARK                         _______ _______ _______ _____ _____    ______ ____
ROOT
ATOM      1  C   UNL     1       1.056   9.485  19.653  0.00  0.00    +0.000 A 
ATOM      2  C   UNL     1       1.147  10.584  18.789  0.00  0.00    +0.000 A 
ATOM      3  C   UNL     1       0.328  11.699  18.932  0.00  0.00    +0.000 A 
ATOM      4  C   UNL     1      -0.602  11.737  19.967  0.00  0.00    +0.000 A 
ATOM      5  C   UNL     1      -0.714  10.647  20.841  0.00  0.00    +0.000 A 
ATOM      6  C   UNL     1       0.117   9.529  20.695  0.00  0.00    +0.000 A 
ENDROOT
BRANCH   4   7
ATOM      7  C   UNL     1      -1.455  12.929  20.182  0.00  0.00    +0.000 C 
ATOM      8  O   UNL     1      -0.860  14.005  20.257  0.00  0.00    +0.000 OA
ATOM      9  N   UNL     1      -2.863  12.795  20.308  0.00  0.00    +0.000 N 
ATOM     10  C   UNL     1      -3.514  14.044  20.742  0.00  0.00    +0.000 C 
ATOM     11  C   UNL     1      -4.527  13.842  21.810  0.00  0.00    +0.000 A 
ATOM     12  C   UNL     1      -4.671  14.539  22.997  0.00  0.00    +0.000 A 
ATOM     13  C   UNL     1      -5.833  14.068  23.644  0.00  0.00    +0.000 A 
ATOM     14  C   UNL     1      -6.367  13.090  22.842  0.00  0.00    +0.000 A 
ATOM     15  N   UNL     1      -5.570  12.961  21.722  0.00  0.00    +0.000 N 
ATOM     16  C   UNL     1      -5.868  12.018  20.655  0.00  0.00    +0.000 C 
ATOM     17  C   UNL     1      -5.061  12.092  19.380  0.00  0.00    +0.000 A 
ATOM     18  C   UNL     1      -5.774  12.029  18.164  0.00  0.00    +0.000 A 
ATOM     19  C   UNL     1      -5.118  11.804  16.957  0.00  0.00    +0.000 A 
ATOM     20  C   UNL     1      -3.776  11.487  16.965  0.00  0.00    +0.000 A 
ATOM     21  C   UNL     1      -3.053  11.583  18.153  0.00  0.00    +0.000 A 
ATOM     22  C   UNL     1      -3.651  12.052  19.335  0.00  0.00    +0.000 A 
ENDBRANCH   4   7
BRANCH   1  25
ATOM     23  C   UNL     1       2.436   7.862  18.361  0.00  0.00    +0.000 C 
ATOM     24  O   UNL     1       2.404   8.458  17.287  0.00  0.00    +0.000 OA
ATOM     25  N   UNL     1       1.848   8.322  19.523  0.00  0.00    +0.000 N 
ATOM     26  H   UNL     1       1.975   7.760  20.358  0.00  0.00    +0.000 HD
BRANCH  23  32
ATOM     27  C   UNL     1       2.966   5.456  19.243  0.00  0.00    +0.000 A 
ATOM     28  C   UNL     1       3.795   4.320  19.102  0.00  0.00    +0.000 A 
ATOM     29  C   UNL     1       4.774   4.243  18.120  0.00  0.00    +0.000 A 
ATOM     30  C   UNL     1       4.968   5.312  17.247  0.00  0.00    +0.000 A 
ATOM     31  C   UNL     1       4.179   6.445  17.384  0.00  0.00    +0.000 A 
ATOM     32  C   UNL     1       3.175   6.553  18.381  0.00  0.00    +0.000 A 
BRANCH  27  34
ATOM     33  C   UNL     1       2.153   3.798  21.312  0.00  0.00    +0.000 C 
ATOM     34  S   UNL     1       1.749   5.404  20.561  0.00  0.00    +0.000 S 
ENDBRANCH  27  34
ENDBRANCH  23  32
ENDBRANCH   1  25
TORSDOF 4
ENDMDL
MODEL 9
REMARK VINA RESULT:      -8.3      1.022      1.522
REMARK  Name = 
REMARK  5 active torsions:
REMARK  status: ('A' for Active; 'I' for Inactive)
REMARK    1  A    between atoms: C_1  and  S_2
REMARK    2  A    between atoms: S_2  and  C_3
REMARK    3  A    between atoms: C_8  and  C_9
REMARK    4  A    between atoms: N_11  and  C_12
REMARK    5  A    between atoms: C_15  and  C_16
REMARK                            x       y       z     vdW  Elec       q    Type
REMARK                         _______ _______ _______ _____ _____    ______ ____
ROOT
ATOM      1  C   UNL     1       1.386   8.361  20.591  0.00  0.00    +0.000 A 
ATOM      2  C   UNL     1       0.771   9.075  21.629  0.00  0.00    +0.000 A 
ATOM      3  C   UNL     1       0.316  10.377  21.452  0.00  0.00    +0.000 A 
ATOM      4  C   UNL     1       0.461  10.991  20.212  0.00  0.00    +0.000 A 
ATOM      5  C   UNL     1       1.077  10.299  19.161  0.00  0.00    +0.000 A 
ATOM      6  C   UNL     1       1.529   8.985  19.343  0.00  0.00    +0.000 A 
ENDROOT
BRANCH   4   7
ATOM      7  C   UNL     1      -0.059  12.358  19.973  0.00  0.00    +0.000 C 
ATOM      8  O   UNL     1       0.783  13.204  19.669  0.00  0.00    +0.000 OA
ATOM      9  N   UNL     1      -1.444  12.638  20.115  0.00  0.00    +0.000 N 
ATOM     10  C   UNL     1      -1.737  14.082  20.064  0.00  0.00    +0.000 C 
ATOM     11  C   UNL     1      -2.686  14.529  21.116  0.00  0.00    +0.000 A 
ATOM     12  C   UNL     1      -2.567  15.609  21.973  0.00  0.00    +0.000 A 
ATOM     13  C   UNL     1      -3.756  15.705  22.726  0.00  0.00    +0.000 A 
ATOM     14  C   UNL     1      -4.570  14.677  22.317  0.00  0.00    +0.000 A 
ATOM     15  N   UNL     1      -3.916  13.968  21.331  0.00  0.00    +0.000 N 
ATOM     16  C   UNL     1      -4.513  12.820  20.666  0.00  0.00    +0.000 C 
ATOM     17  C   UNL     1      -3.810  12.237  19.462  0.00  0.00    +0.000 A 
ATOM     18  C   UNL     1      -4.606  11.936  18.337  0.00  0.00    +0.000 A 
ATOM     19  C   UNL     1      -4.117  11.145  17.301  0.00  0.00    +0.000 A 
ATOM     20  C   UNL     1      -2.896  10.522  17.445  0.00  0.00    +0.000 A 
ATOM     21  C   UNL     1      -2.084  10.840  18.532  0.00  0.00    +0.000 A 
ATOM     22  C   UNL     1      -2.459  11.827  19.458  0.00  0.00    +0.000 A 
ENDBRANCH   4   7
BRANCH   1  25
ATOM     23  C   UNL     1       2.441   6.271  19.739  0.00  0.00    +0.000 C 
ATOM     24  O   UNL     1       2.633   6.657  18.588  0.00  0.00    +0.000 OA
ATOM     25  N   UNL     1       1.890   7.049  20.738  0.00  0.00    +0.000 N 
ATOM     26  H   UNL     1       1.816   6.632  21.660  0.00  0.00    +0.000 HD
BRANCH  23  32
ATOM     27  C   UNL     1       3.878   4.103  19.452  0.00  0.00    +0.000 A 
ATOM     28  C   UNL     1       4.077   2.772  19.883  0.00  0.00    +0.000 A 
ATOM     29  C   UNL     1       3.316   2.208  20.898  0.00  0.00    +0.000 A 
ATOM     30  C   UNL     1       2.313   2.955  21.512  0.00  0.00    +0.000 A 
ATOM     31  C   UNL     1       2.088   4.257  21.088  0.00  0.00    +0.000 A 
ATOM     32  C   UNL     1       2.847   4.857  20.050  0.00  0.00    +0.000 A 
BRANCH  27  34
ATOM     33  C   UNL     1       6.324   5.359  19.098  0.00  0.00    +0.000 C 
ATOM     34  S   UNL     1       4.941   4.687  18.128  0.00  0.00    +0.000 S 
ENDBRANCH  27  34
ENDBRANCH  23  32
ENDBRANCH   1  25
TORSDOF 4
ENDMDL
