MODEL 1
REMARK VINA RESULT:      -7.8      0.000      0.000
REMARK  Name = 
REMARK  4 active torsions:
REMARK  status: ('A' for Active; 'I' for Inactive)
REMARK    1  A    between atoms: C_1  and  O_2
REMARK    2  A    between atoms: O_2  and  C_3
REMARK    3  A    between atoms: C_6  and  C_7
REMARK    4  A    between atoms: C_9  and  C_10
REMARK                            x       y       z     vdW  Elec       q    Type
REMARK                         _______ _______ _______ _____ _____    ______ ____
ROOT
ATOM      1  C   UNL     1       6.430   4.681  17.764  0.00  0.00    +0.000 A 
ATOM      2  C   UNL     1       7.432   4.852  16.803  0.00  0.00    +0.000 A 
ATOM      3  C   UNL     1       7.175   4.592  15.453  0.00  0.00    +0.000 A 
ATOM      4  C   UNL     1       5.914   4.161  15.039  0.00  0.00    +0.000 A 
ATOM      5  C   UNL     1       5.637   3.876  13.593  0.00  0.00    +0.000 C 
ATOM      6  C   UNL     1       4.904   3.998  15.996  0.00  0.00    +0.000 A 
ATOM      7  C   UNL     1       5.155   4.251  17.356  0.00  0.00    +0.000 A 
ENDROOT
BRANCH   7   8
ATOM      8  C   UNL     1       4.066   4.040  18.315  0.00  0.00    +0.000 A 
ATOM      9  C   UNL     1       2.741   4.731  18.169  0.00  0.00    +0.000 A 
ATOM     10  N   UNL     1       1.725   4.642  18.974  0.00  0.00    +0.000 NA
ATOM     11  C   UNL     1       1.892   3.819  20.052  0.00  0.00    +0.000 A 
ATOM     12  N   UNL     1       1.074   3.517  21.042  0.00  0.00    +0.000 NA
ATOM     13  N   UNL     1       1.713   2.632  21.886  0.00  0.00    +0.000 NA
ATOM     14  C   UNL     1       2.909   2.412  21.393  0.00  0.00    +0.000 A 
ATOM     15  N   UNL     1       3.081   3.130  20.247  0.00  0.00    +0.000 N 
ATOM     16  C   UNL     1       4.165   3.239  19.389  0.00  0.00    +0.000 A 
ENDBRANCH   7   8
BRANCH   1  18
ATOM     17  C   UNL     1       7.685   5.743  19.493  0.00  0.00    +0.000 C 
ATOM     18  O   UNL     1       6.601   4.904  19.108  0.00  0.00    +0.000 OA
ENDBRANCH   1  18
TORSDOF 2
ENDMDL
MODEL 2
REMARK VINA RESULT:      -7.6      3.351      6.121
REMARK  Name = 
REMARK  4 active torsions:
REMARK  status: ('A' for Active; 'I' for Inactive)
REMARK    1  A    between atoms: C_1  and  O_2
REMARK    2  A    between atoms: O_2  and  C_3
REMARK    3  A    between atoms: C_6  and  C_7
REMARK    4  A    between atoms: C_9  and  C_10
REMARK                            x       y       z     vdW  Elec       q    Type
REMARK                         _______ _______ _______ _____ _____    ______ ____
ROOT
ATOM      1  C   UNL     1       3.495   3.552  19.664  0.00  0.00    +0.000 A 
ATOM      2  C   UNL     1       2.510   3.542  20.658  0.00  0.00    +0.000 A 
ATOM      3  C   UNL     1       1.837   4.717  21.005  0.00  0.00    +0.000 A 
ATOM      4  C   UNL     1       2.132   5.922  20.364  0.00  0.00    +0.000 A 
ATOM      5  C   UNL     1       1.416   7.185  20.738  0.00  0.00    +0.000 C 
ATOM      6  C   UNL     1       3.110   5.936  19.362  0.00  0.00    +0.000 A 
ATOM      7  C   UNL     1       3.797   4.761  19.010  0.00  0.00    +0.000 A 
ENDROOT
BRANCH   7   8
ATOM      8  C   UNL     1       4.827   4.841  17.971  0.00  0.00    +0.000 A 
ATOM      9  C   UNL     1       6.226   5.290  18.280  0.00  0.00    +0.000 A 
ATOM     10  N   UNL     1       7.203   5.430  17.434  0.00  0.00    +0.000 NA
ATOM     11  C   UNL     1       6.914   5.115  16.137  0.00  0.00    +0.000 A 
ATOM     12  N   UNL     1       7.664   5.151  15.053  0.00  0.00    +0.000 NA
ATOM     13  N   UNL     1       6.905   4.733  13.978  0.00  0.00    +0.000 NA
ATOM     14  C   UNL     1       5.706   4.451  14.429  0.00  0.00    +0.000 A 
ATOM     15  N   UNL     1       5.648   4.674  15.774  0.00  0.00    +0.000 N 
ATOM     16  C   UNL     1       4.608   4.540  16.680  0.00  0.00    +0.000 A 
ENDBRANCH   7   8
BRANCH   1  18
ATOM     17  C   UNL     1       3.516   1.468  18.506  0.00  0.00    +0.000 C 
ATOM     18  O   UNL     1       4.210   2.449  19.271  0.00  0.00    +0.000 OA
ENDBRANCH   1  18
TORSDOF 2
ENDMDL
MODEL 3
REMARK VINA RESULT:      -7.5      3.355      6.124
REMARK  Name = 
REMARK  4 active torsions:
REMARK  status: ('A' for Active; 'I' for Inactive)
REMARK    1  A    between atoms: C_1  and  O_2
REMARK    2  A    between atoms: O_2  and  C_3
REMARK    3  A    between atoms: C_6  and  C_7
REMARK    4  A    between atoms: C_9  and  C_10
REMARK                            x       y       z     vdW  Elec       q    Type
REMARK                         _______ _______ _______ _____ _____    ______ ____
ROOT
ATOM      1  C   UNL     1       2.913   6.238  19.255  0.00  0.00    +0.000 A 
ATOM      2  C   UNL     1       1.902   6.238  20.221  0.00  0.00    +0.000 A 
ATOM      3  C   UNL     1       1.624   5.083  20.959  0.00  0.00    +0.000 A 
ATOM      4  C   UNL     1       2.352   3.911  20.749  0.00  0.00    +0.000 A 
ATOM      5  C   UNL     1       2.052   2.670  21.535  0.00  0.00    +0.000 C 
ATOM      6  C   UNL     1       3.372   3.909  19.790  0.00  0.00    +0.000 A 
ATOM      7  C   UNL     1       3.656   5.063  19.038  0.00  0.00    +0.000 A 
ENDROOT
BRANCH   7   8
ATOM      8  C   UNL     1       4.719   4.994  18.032  0.00  0.00    +0.000 A 
ATOM      9  C   UNL     1       6.148   5.300  18.372  0.00  0.00    +0.000 A 
ATOM     10  N   UNL     1       7.160   5.302  17.555  0.00  0.00    +0.000 NA
ATOM     11  C   UNL     1       6.876   4.974  16.260  0.00  0.00    +0.000 A 
ATOM     12  N   UNL     1       7.657   4.890  15.200  0.00  0.00    +0.000 NA
ATOM     13  N   UNL     1       6.890   4.518  14.116  0.00  0.00    +0.000 NA
ATOM     14  C   UNL     1       5.653   4.384  14.535  0.00  0.00    +0.000 A 
ATOM     15  N   UNL     1       5.581   4.661  15.869  0.00  0.00    +0.000 N 
ATOM     16  C   UNL     1       4.506   4.672  16.745  0.00  0.00    +0.000 A 
ENDBRANCH   7   8
BRANCH   1  18
ATOM     17  C   UNL     1       2.172   8.133  18.010  0.00  0.00    +0.000 C 
ATOM     18  O   UNL     1       3.244   7.322  18.480  0.00  0.00    +0.000 OA
ENDBRANCH   1  18
TORSDOF 2
ENDMDL
MODEL 4
REMARK VINA RESULT:      -7.4      1.728      2.080
REMARK  Name = 
REMARK  4 active torsions:
REMARK  status: ('A' for Active; 'I' for Inactive)
REMARK    1  A    between atoms: C_1  and  O_2
REMARK    2  A    between atoms: O_2  and  C_3
REMARK    3  A    between atoms: C_6  and  C_7
REMARK    4  A    between atoms: C_9  and  C_10
REMARK                            x       y       z     vdW  Elec       q    Type
REMARK                         _______ _______ _______ _____ _____    ______ ____
ROOT
ATOM      1  C   UNL     1       4.300   6.325  17.199  0.00  0.00    +0.000 A 
ATOM      2  C   UNL     1       5.140   6.863  16.218  0.00  0.00    +0.000 A 
ATOM      3  C   UNL     1       5.751   6.034  15.273  0.00  0.00    +0.000 A 
ATOM      4  C   UNL     1       5.533   4.655  15.287  0.00  0.00    +0.000 A 
ATOM      5  C   UNL     1       6.192   3.764  14.278  0.00  0.00    +0.000 C 
ATOM      6  C   UNL     1       4.685   4.113  16.261  0.00  0.00    +0.000 A 
ATOM      7  C   UNL     1       4.071   4.937  17.220  0.00  0.00    +0.000 A 
ENDROOT
BRANCH   7   8
ATOM      8  C   UNL     1       3.213   4.310  18.229  0.00  0.00    +0.000 A 
ATOM      9  C   UNL     1       1.736   4.142  18.016  0.00  0.00    +0.000 A 
ATOM     10  N   UNL     1       0.882   3.633  18.853  0.00  0.00    +0.000 NA
ATOM     11  C   UNL     1       1.402   3.196  20.039  0.00  0.00    +0.000 A 
ATOM     12  N   UNL     1       0.818   2.646  21.086  0.00  0.00    +0.000 NA
ATOM     13  N   UNL     1       1.781   2.381  22.038  0.00  0.00    +0.000 NA
ATOM     14  C   UNL     1       2.935   2.776  21.552  0.00  0.00    +0.000 A 
ATOM     15  N   UNL     1       2.760   3.300  20.304  0.00  0.00    +0.000 N 
ATOM     16  C   UNL     1       3.663   3.854  19.410  0.00  0.00    +0.000 A 
ENDBRANCH   7   8
BRANCH   1  18
ATOM     17  C   UNL     1       2.725   8.035  17.731  0.00  0.00    +0.000 C 
ATOM     18  O   UNL     1       3.670   7.064  18.169  0.00  0.00    +0.000 OA
ENDBRANCH   1  18
TORSDOF 2
ENDMDL
MODEL 5
REMARK VINA RESULT:      -7.4      0.936      1.315
REMARK  Name = 
REMARK  4 active torsions:
REMARK  status: ('A' for Active; 'I' for Inactive)
REMARK    1  A    between atoms: C_1  and  O_2
REMARK    2  A    between atoms: O_2  and  C_3
REMARK    3  A    between atoms: C_6  and  C_7
REMARK    4  A    between atoms: C_9  and  C_10
REMARK                            x       y       z     vdW  Elec       q    Type
REMARK                         _______ _______ _______ _____ _____    ______ ____
ROOT
ATOM      1  C   UNL     1       6.528   4.480  17.358  0.00  0.00    +0.000 A 
ATOM      2  C   UNL     1       7.429   4.850  16.353  0.00  0.00    +0.000 A 
ATOM      3  C   UNL     1       7.084   4.718  15.005  0.00  0.00    +0.000 A 
ATOM      4  C   UNL     1       5.833   4.219  14.635  0.00  0.00    +0.000 A 
ATOM      5  C   UNL     1       5.463   4.072  13.190  0.00  0.00    +0.000 C 
ATOM      6  C   UNL     1       4.925   3.856  15.637  0.00  0.00    +0.000 A 
ATOM      7  C   UNL     1       5.264   3.979  16.995  0.00  0.00    +0.000 A 
ENDROOT
BRANCH   7   8
ATOM      8  C   UNL     1       4.282   3.561  17.999  0.00  0.00    +0.000 A 
ATOM      9  C   UNL     1       3.696   2.179  18.002  0.00  0.00    +0.000 A 
ATOM     10  N   UNL     1       2.798   1.715  18.820  0.00  0.00    +0.000 NA
ATOM     11  C   UNL     1       2.366   2.585  19.781  0.00  0.00    +0.000 A 
ATOM     12  N   UNL     1       1.477   2.435  20.743  0.00  0.00    +0.000 NA
ATOM     13  N   UNL     1       1.397   3.615  21.456  0.00  0.00    +0.000 NA
ATOM     14  C   UNL     1       2.240   4.461  20.913  0.00  0.00    +0.000 A 
ATOM     15  N   UNL     1       2.874   3.875  19.857  0.00  0.00    +0.000 N 
ATOM     16  C   UNL     1       3.823   4.365  18.973  0.00  0.00    +0.000 A 
ENDBRANCH   7   8
BRANCH   1  18
ATOM     17  C   UNL     1       7.531   5.699  19.146  0.00  0.00    +0.000 C 
ATOM     18  O   UNL     1       6.790   4.567  18.702  0.00  0.00    +0.000 OA
ENDBRANCH   1  18
TORSDOF 2
ENDMDL
MODEL 6
REMARK VINA RESULT:      -7.2      1.654      2.419
REMARK  Name = 
REMARK  4 active torsions:
REMARK  status: ('A' for Active; 'I' for Inactive)
REMARK    1  A    between atoms: C_1  and  O_2
REMARK    2  A    between atoms: O_2  and  C_3
REMARK    3  A    between atoms: C_6  and  C_7
REMARK    4  A    between atoms: C_9  and  C_10
REMARK                            x       y       z     vdW  Elec       q    Type
REMARK                         _______ _______ _______ _____ _____    ______ ____
ROOT
ATOM      1  C   UNL     1       4.455   6.208  17.117  0.00  0.00    +0.000 A 
ATOM      2  C   UNL     1       4.938   6.775  15.933  0.00  0.00    +0.000 A 
ATOM      3  C   UNL     1       5.451   5.966  14.914  0.00  0.00    +0.000 A 
ATOM      4  C   UNL     1       5.487   4.578  15.058  0.00  0.00    +0.000 A 
ATOM      5  C   UNL     1       6.042   3.708  13.970  0.00  0.00    +0.000 C 
ATOM      6  C   UNL     1       4.996   4.005  16.238  0.00  0.00    +0.000 A 
ATOM      7  C   UNL     1       4.484   4.810  17.270  0.00  0.00    +0.000 A 
ENDROOT
BRANCH   7   8
ATOM      8  C   UNL     1       4.006   4.156  18.491  0.00  0.00    +0.000 A 
ATOM      9  C   UNL     1       4.917   3.327  19.350  0.00  0.00    +0.000 A 
ATOM     10  N   UNL     1       4.592   2.679  20.430  0.00  0.00    +0.000 NA
ATOM     11  C   UNL     1       3.286   2.788  20.816  0.00  0.00    +0.000 A 
ATOM     12  N   UNL     1       2.644   2.262  21.841  0.00  0.00    +0.000 NA
ATOM     13  N   UNL     1       1.328   2.676  21.794  0.00  0.00    +0.000 NA
ATOM     14  C   UNL     1       1.194   3.446  20.740  0.00  0.00    +0.000 A 
ATOM     15  N   UNL     1       2.386   3.551  20.085  0.00  0.00    +0.000 N 
ATOM     16  C   UNL     1       2.738   4.230  18.929  0.00  0.00    +0.000 A 
ENDBRANCH   7   8
BRANCH   1  18
ATOM     17  C   UNL     1       2.861   7.807  17.886  0.00  0.00    +0.000 C 
ATOM     18  O   UNL     1       3.946   6.929  18.168  0.00  0.00    +0.000 OA
ENDBRANCH   1  18
TORSDOF 2
ENDMDL
MODEL 7
REMARK VINA RESULT:      -7.1      3.401      6.162
REMARK  Name = 
REMARK  4 active torsions:
REMARK  status: ('A' for Active; 'I' for Inactive)
REMARK    1  A    between atoms: C_1  and  O_2
REMARK    2  A    between atoms: O_2  and  C_3
REMARK    3  A    between atoms: C_6  and  C_7
REMARK    4  A    between atoms: C_9  and  C_10
REMARK                            x       y       z     vdW  Elec       q    Type
REMARK                         _______ _______ _______ _____ _____    ______ ____
ROOT
ATOM      1  C   UNL     1       2.710   4.594  19.943  0.00  0.00    +0.000 A 
ATOM      2  C   UNL     1       1.618   4.923  20.752  0.00  0.00    +0.000 A 
ATOM      3  C   UNL     1       1.188   6.248  20.863  0.00  0.00    +0.000 A 
ATOM      4  C   UNL     1       1.837   7.268  20.165  0.00  0.00    +0.000 A 
ATOM      5  C   UNL     1       1.382   8.692  20.286  0.00  0.00    +0.000 C 
ATOM      6  C   UNL     1       2.925   6.943  19.345  0.00  0.00    +0.000 A 
ATOM      7  C   UNL     1       3.369   5.614  19.232  0.00  0.00    +0.000 A 
ENDROOT
BRANCH   7   8
ATOM      8  C   UNL     1       4.528   5.337  18.378  0.00  0.00    +0.000 A 
ATOM      9  C   UNL     1       5.832   4.861  18.949  0.00  0.00    +0.000 A 
ATOM     10  N   UNL     1       6.927   4.618  18.291  0.00  0.00    +0.000 NA
ATOM     11  C   UNL     1       6.861   4.807  16.939  0.00  0.00    +0.000 A 
ATOM     12  N   UNL     1       7.776   4.658  16.002  0.00  0.00    +0.000 NA
ATOM     13  N   UNL     1       7.213   4.973  14.782  0.00  0.00    +0.000 NA
ATOM     14  C   UNL     1       5.963   5.309  15.001  0.00  0.00    +0.000 A 
ATOM     15  N   UNL     1       5.685   5.228  16.334  0.00  0.00    +0.000 N 
ATOM     16  C   UNL     1       4.525   5.495  17.044  0.00  0.00    +0.000 A 
ENDBRANCH   7   8
BRANCH   1  18
ATOM     17  C   UNL     1       3.143   2.461  20.919  0.00  0.00    +0.000 C 
ATOM     18  O   UNL     1       3.203   3.322  19.786  0.00  0.00    +0.000 OA
ENDBRANCH   1  18
TORSDOF 2
ENDMDL
MODEL 8
REMARK VINA RESULT:      -7.0      3.912      6.201
REMARK  Name = 
REMARK  4 active torsions:
REMARK  status: ('A' for Active; 'I' for Inactive)
REMARK    1  A    between atoms: C_1  and  O_2
REMARK    2  A    between atoms: O_2  and  C_3
REMARK    3  A    between atoms: C_6  and  C_7
REMARK    4  A    between atoms: C_9  and  C_10
REMARK                            x       y       z     vdW  Elec       q    Type
REMARK                         _______ _______ _______ _____ _____    ______ ____
ROOT
ATOM      1  C   UNL     1       3.396   6.070  19.292  0.00  0.00    +0.000 A 
ATOM      2  C   UNL     1       2.381   6.571  20.113  0.00  0.00    +0.000 A 
ATOM      3  C   UNL     1       1.697   7.740  19.765  0.00  0.00    +0.000 A 
ATOM      4  C   UNL     1       2.010   8.425  18.590  0.00  0.00    +0.000 A 
ATOM      5  C   UNL     1       1.281   9.682  18.218  0.00  0.00    +0.000 C 
ATOM      6  C   UNL     1       3.019   7.922  17.760  0.00  0.00    +0.000 A 
ATOM      7  C   UNL     1       3.717   6.752  18.104  0.00  0.00    +0.000 A 
ENDROOT
BRANCH   7   8
ATOM      8  C   UNL     1       4.780   6.286  17.208  0.00  0.00    +0.000 A 
ATOM      9  C   UNL     1       6.182   6.811  17.308  0.00  0.00    +0.000 A 
ATOM     10  N   UNL     1       7.188   6.494  16.548  0.00  0.00    +0.000 NA
ATOM     11  C   UNL     1       6.927   5.574  15.572  0.00  0.00    +0.000 A 
ATOM     12  N   UNL     1       7.709   5.052  14.648  0.00  0.00    +0.000 NA
ATOM     13  N   UNL     1       6.969   4.161  13.896  0.00  0.00    +0.000 NA
ATOM     14  C   UNL     1       5.748   4.160  14.377  0.00  0.00    +0.000 A 
ATOM     15  N   UNL     1       5.659   5.029  15.426  0.00  0.00    +0.000 N 
ATOM     16  C   UNL     1       4.589   5.381  16.234  0.00  0.00    +0.000 A 
ENDBRANCH   7   8
BRANCH   1  18
ATOM     17  C   UNL     1       3.408   3.709  19.631  0.00  0.00    +0.000 C 
ATOM     18  O   UNL     1       4.124   4.938  19.563  0.00  0.00    +0.000 OA
ENDBRANCH   1  18
TORSDOF 2
ENDMDL
MODEL 9
REMARK VINA RESULT:      -6.9      3.686      6.050
REMARK  Name = 
REMARK  4 active torsions:
REMARK  status: ('A' for Active; 'I' for Inactive)
REMARK    1  A    between atoms: C_1  and  O_2
REMARK    2  A    between atoms: O_2  and  C_3
REMARK    3  A    between atoms: C_6  and  C_7
REMARK    4  A    between atoms: C_9  and  C_10
REMARK                            x       y       z     vdW  Elec       q    Type
REMARK                         _______ _______ _______ _____ _____    ______ ____
ROOT
ATOM      1  C   UNL     1       2.373   6.536  19.997  0.00  0.00    +0.000 A 
ATOM      2  C   UNL     1       1.538   7.384  20.732  0.00  0.00    +0.000 A 
ATOM      3  C   UNL     1       1.129   8.612  20.204  0.00  0.00    +0.000 A 
ATOM      4  C   UNL     1       1.542   9.013  18.932  0.00  0.00    +0.000 A 
ATOM      5  C   UNL     1       1.110  10.333  18.365  0.00  0.00    +0.000 C 
ATOM      6  C   UNL     1       2.370   8.164  18.188  0.00  0.00    +0.000 A 
ATOM      7  C   UNL     1       2.792   6.930  18.713  0.00  0.00    +0.000 A 
ENDROOT
BRANCH   7   8
ATOM      8  C   UNL     1       3.678   6.093  17.898  0.00  0.00    +0.000 A 
ATOM      9  C   UNL     1       3.267   4.724  17.439  0.00  0.00    +0.000 A 
ATOM     10  N   UNL     1       3.983   3.889  16.745  0.00  0.00    +0.000 NA
ATOM     11  C   UNL     1       5.229   4.326  16.393  0.00  0.00    +0.000 A 
ATOM     12  N   UNL     1       6.188   3.734  15.708  0.00  0.00    +0.000 NA
ATOM     13  N   UNL     1       7.262   4.597  15.619  0.00  0.00    +0.000 NA
ATOM     14  C   UNL     1       6.936   5.698  16.254  0.00  0.00    +0.000 A 
ATOM     15  N   UNL     1       5.675   5.587  16.764  0.00  0.00    +0.000 N 
ATOM     16  C   UNL     1       4.910   6.467  17.513  0.00  0.00    +0.000 A 
ENDBRANCH   7   8
BRANCH   1  18
ATOM     17  C   UNL     1       1.854   4.401  20.924  0.00  0.00    +0.000 C 
ATOM     18  O   UNL     1       2.829   5.321  20.444  0.00  0.00    +0.000 OA
ENDBRANCH   1  18
TORSDOF 2
ENDMDL
