MODEL 1
REMARK VINA RESULT:      -7.0      0.000      0.000
REMARK  Name = 
REMARK  7 active torsions:
REMARK  status: ('A' for Active; 'I' for Inactive)
REMARK    1  A    between atoms: C_1  and  C_2
REMARK    2  A    between atoms: C_2  and  C_3
REMARK    3  A    between atoms: C_3  and  O_4
REMARK    4  A    between atoms: C_3  and  C_5
REMARK    5  A    between atoms: C_5  and  N_6
REMARK    6  A    between atoms: C_10  and  C_12
REMARK    7  A    between atoms: C_16  and  C_17
REMARK                            x       y       z     vdW  Elec       q    Type
REMARK                         _______ _______ _______ _____ _____    ______ ____
ROOT
ATOM      1  N   UNL     1       6.541   6.705  16.808  0.00  0.00    +0.000 NA
ATOM      2  C   UNL     1       7.186   5.555  17.478  0.00  0.00    +0.000 C 
ATOM      3  C   UNL     1       6.515   5.111  18.792  0.00  0.00    +0.000 C 
ATOM      4  N   UNL     1       5.091   4.827  18.598  0.00  0.00    +0.000 N 
ATOM      5  C   UNL     1       4.533   3.700  19.241  0.00  0.00    +0.000 C 
ATOM      6  O   UNL     1       5.279   2.919  19.841  0.00  0.00    +0.000 OA
ATOM      7  C   UNL     1       4.365   5.883  17.883  0.00  0.00    +0.000 C 
ATOM      8  C   UNL     1       5.107   6.413  16.637  0.00  0.00    +0.000 C 
ENDROOT
BRANCH   5   9
ATOM      9  C   UNL     1       3.096   3.419  19.141  0.00  0.00    +0.000 A 
ATOM     10  S   UNL     1       2.470   2.395  17.895  0.00  0.00    +0.000 S 
ATOM     11  C   UNL     1       0.924   2.353  18.610  0.00  0.00    +0.000 A 
ATOM     12  C   UNL     1       0.796   3.323  19.571  0.00  0.00    +0.000 A 
ATOM     13  C   UNL     1       2.028   4.003  19.819  0.00  0.00    +0.000 A 
BRANCH  13  14
ATOM     14  C   UNL     1       2.135   5.211  20.760  0.00  0.00    +0.000 C 
ATOM     15  C   UNL     1       2.229   6.593  20.125  0.00  0.00    +0.000 C 
ATOM     16  C   UNL     1       0.992   6.201  20.856  0.00  0.00    +0.000 C 
ENDBRANCH  13  14
ENDBRANCH   5   9
BRANCH   1  17
ATOM     17  C   UNL     1       6.768   7.990  17.488  0.00  0.00    +0.000 C 
BRANCH  17  18
ATOM     18  C   UNL     1       8.253   8.301  17.809  0.00  0.00    +0.000 C 
BRANCH  18  20
ATOM     19  C   UNL     1       9.267  10.141  19.232  0.00  0.00    +0.000 C 
ATOM     20  C   UNL     1       8.527   9.807  17.943  0.00  0.00    +0.000 C 
ENDBRANCH  18  20
BRANCH  18  21
ATOM     21  O   UNL     1       8.622   7.634  19.020  0.00  0.00    +0.000 OA
ATOM     22  H   UNL     1       7.807   7.385  19.489  0.00  0.00    +0.000 HD
ENDBRANCH  18  21
ENDBRANCH  17  18
ENDBRANCH   1  17
TORSDOF 6
ENDMDL
MODEL 2
REMARK VINA RESULT:      -6.5      3.032      4.128
REMARK  Name = 
REMARK  7 active torsions:
REMARK  status: ('A' for Active; 'I' for Inactive)
REMARK    1  A    between atoms: C_1  and  C_2
REMARK    2  A    between atoms: C_2  and  C_3
REMARK    3  A    between atoms: C_3  and  O_4
REMARK    4  A    between atoms: C_3  and  C_5
REMARK    5  A    between atoms: C_5  and  N_6
REMARK    6  A    between atoms: C_10  and  C_12
REMARK    7  A    between atoms: C_16  and  C_17
REMARK                            x       y       z     vdW  Elec       q    Type
REMARK                         _______ _______ _______ _____ _____    ______ ____
ROOT
ATOM      1  N   UNL     1       6.788   3.886  15.323  0.00  0.00    +0.000 NA
ATOM      2  C   UNL     1       7.472   4.429  16.517  0.00  0.00    +0.000 C 
ATOM      3  C   UNL     1       6.627   5.406  17.358  0.00  0.00    +0.000 C 
ATOM      4  N   UNL     1       5.351   4.806  17.756  0.00  0.00    +0.000 N 
ATOM      5  C   UNL     1       4.881   5.029  19.070  0.00  0.00    +0.000 C 
ATOM      6  O   UNL     1       5.610   5.612  19.879  0.00  0.00    +0.000 OA
ATOM      7  C   UNL     1       4.616   4.179  16.651  0.00  0.00    +0.000 C 
ATOM      8  C   UNL     1       5.499   3.304  15.736  0.00  0.00    +0.000 C 
ENDROOT
BRANCH   5   9
ATOM      9  C   UNL     1       3.572   4.516  19.491  0.00  0.00    +0.000 A 
ATOM     10  S   UNL     1       3.402   2.914  20.123  0.00  0.00    +0.000 S 
ATOM     11  C   UNL     1       1.792   3.200  20.602  0.00  0.00    +0.000 A 
ATOM     12  C   UNL     1       1.299   4.344  20.028  0.00  0.00    +0.000 A 
ATOM     13  C   UNL     1       2.304   5.063  19.310  0.00  0.00    +0.000 A 
BRANCH  13  14
ATOM     14  C   UNL     1       1.993   6.313  18.474  0.00  0.00    +0.000 C 
ATOM     15  C   UNL     1       2.158   7.669  19.147  0.00  0.00    +0.000 C 
ATOM     16  C   UNL     1       3.109   7.257  18.077  0.00  0.00    +0.000 C 
ENDBRANCH  13  14
ENDBRANCH   5   9
BRANCH   1  17
ATOM     17  C   UNL     1       6.632   4.863  14.234  0.00  0.00    +0.000 C 
BRANCH  17  18
ATOM     18  C   UNL     1       7.645   4.707  13.071  0.00  0.00    +0.000 C 
BRANCH  18  20
ATOM     19  C   UNL     1       5.709   3.359  12.137  0.00  0.00    +0.000 C 
ATOM     20  C   UNL     1       7.020   4.068  11.821  0.00  0.00    +0.000 C 
ENDBRANCH  18  20
BRANCH  18  21
ATOM     21  O   UNL     1       8.181   5.993  12.739  0.00  0.00    +0.000 OA
ATOM     22  H   UNL     1       8.313   6.025  11.776  0.00  0.00    +0.000 HD
ENDBRANCH  18  21
ENDBRANCH  17  18
ENDBRANCH   1  17
TORSDOF 6
ENDMDL
MODEL 3
REMARK VINA RESULT:      -6.2      3.616      6.320
REMARK  Name = 
REMARK  7 active torsions:
REMARK  status: ('A' for Active; 'I' for Inactive)
REMARK    1  A    between atoms: C_1  and  C_2
REMARK    2  A    between atoms: C_2  and  C_3
REMARK    3  A    between atoms: C_3  and  O_4
REMARK    4  A    between atoms: C_3  and  C_5
REMARK    5  A    between atoms: C_5  and  N_6
REMARK    6  A    between atoms: C_10  and  C_12
REMARK    7  A    between atoms: C_16  and  C_17
REMARK                            x       y       z     vdW  Elec       q    Type
REMARK                         _______ _______ _______ _____ _____    ______ ____
ROOT
ATOM      1  N   UNL     1       4.698   5.173  18.484  0.00  0.00    +0.000 NA
ATOM      2  C   UNL     1       4.911   6.375  17.648  0.00  0.00    +0.000 C 
ATOM      3  C   UNL     1       3.621   7.092  17.205  0.00  0.00    +0.000 C 
ATOM      4  N   UNL     1       2.778   7.438  18.352  0.00  0.00    +0.000 N 
ATOM      5  C   UNL     1       2.140   8.699  18.366  0.00  0.00    +0.000 C 
ATOM      6  O   UNL     1       2.408   9.518  17.482  0.00  0.00    +0.000 OA
ATOM      7  C   UNL     1       2.554   6.327  19.284  0.00  0.00    +0.000 C 
ATOM      8  C   UNL     1       3.834   5.532  19.622  0.00  0.00    +0.000 C 
ENDROOT
BRANCH   5   9
ATOM      9  C   UNL     1       1.224   9.060  19.454  0.00  0.00    +0.000 A 
ATOM     10  S   UNL     1       1.301   8.263  20.988  0.00  0.00    +0.000 S 
ATOM     11  C   UNL     1       0.220   9.374  21.697  0.00  0.00    +0.000 A 
ATOM     12  C   UNL     1      -0.417  10.123  20.742  0.00  0.00    +0.000 A 
ATOM     13  C   UNL     1       0.099   9.880  19.431  0.00  0.00    +0.000 A 
BRANCH  13  14
ATOM     14  C   UNL     1      -0.518  10.498  18.169  0.00  0.00    +0.000 C 
ATOM     15  C   UNL     1      -1.708   9.782  17.543  0.00  0.00    +0.000 C 
ATOM     16  C   UNL     1      -1.909  11.094  18.217  0.00  0.00    +0.000 C 
ENDBRANCH  13  14
ENDBRANCH   5   9
BRANCH   1  17
ATOM     17  C   UNL     1       4.180   4.017  17.737  0.00  0.00    +0.000 C 
BRANCH  17  18
ATOM     18  C   UNL     1       3.414   2.978  18.597  0.00  0.00    +0.000 C 
BRANCH  18  20
ATOM     19  C   UNL     1       0.960   2.384  18.851  0.00  0.00    +0.000 C 
ATOM     20  C   UNL     1       2.149   2.451  17.901  0.00  0.00    +0.000 C 
ENDBRANCH  18  20
BRANCH  18  21
ATOM     21  O   UNL     1       4.287   1.885  18.902  0.00  0.00    +0.000 OA
ATOM     22  H   UNL     1       5.188   2.237  19.005  0.00  0.00    +0.000 HD
ENDBRANCH  18  21
ENDBRANCH  17  18
ENDBRANCH   1  17
TORSDOF 6
ENDMDL
MODEL 4
REMARK VINA RESULT:      -6.1      4.840      6.334
REMARK  Name = 
REMARK  7 active torsions:
REMARK  status: ('A' for Active; 'I' for Inactive)
REMARK    1  A    between atoms: C_1  and  C_2
REMARK    2  A    between atoms: C_2  and  C_3
REMARK    3  A    between atoms: C_3  and  O_4
REMARK    4  A    between atoms: C_3  and  C_5
REMARK    5  A    between atoms: C_5  and  N_6
REMARK    6  A    between atoms: C_10  and  C_12
REMARK    7  A    between atoms: C_16  and  C_17
REMARK                            x       y       z     vdW  Elec       q    Type
REMARK                         _______ _______ _______ _____ _____    ______ ____
ROOT
ATOM      1  N   UNL     1       1.043  10.800  18.926  0.00  0.00    +0.000 NA
ATOM      2  C   UNL     1       1.294  10.160  20.237  0.00  0.00    +0.000 C 
ATOM      3  C   UNL     1       1.050   8.639  20.271  0.00  0.00    +0.000 C 
ATOM      4  N   UNL     1       1.822   7.948  19.234  0.00  0.00    +0.000 N 
ATOM      5  C   UNL     1       2.448   6.725  19.561  0.00  0.00    +0.000 C 
ATOM      6  O   UNL     1       2.435   6.336  20.733  0.00  0.00    +0.000 OA
ATOM      7  C   UNL     1       1.694   8.545  17.899  0.00  0.00    +0.000 C 
ATOM      8  C   UNL     1       1.810  10.084  17.893  0.00  0.00    +0.000 C 
ENDROOT
BRANCH   5   9
ATOM      9  C   UNL     1       3.166   5.957  18.536  0.00  0.00    +0.000 A 
ATOM     10  S   UNL     1       4.550   6.616  17.732  0.00  0.00    +0.000 S 
ATOM     11  C   UNL     1       4.922   5.122  17.002  0.00  0.00    +0.000 A 
ATOM     12  C   UNL     1       3.873   4.245  17.104  0.00  0.00    +0.000 A 
ATOM     13  C   UNL     1       2.816   4.759  17.917  0.00  0.00    +0.000 A 
BRANCH  13  14
ATOM     14  C   UNL     1       1.477   4.032  18.097  0.00  0.00    +0.000 C 
ATOM     15  C   UNL     1       1.522   2.553  18.462  0.00  0.00    +0.000 C 
ATOM     16  C   UNL     1       1.054   3.547  19.468  0.00  0.00    +0.000 C 
ENDBRANCH  13  14
ENDBRANCH   5   9
BRANCH   1  17
ATOM     17  C   UNL     1      -0.384  10.908  18.584  0.00  0.00    +0.000 C 
BRANCH  17  18
ATOM     18  C   UNL     1      -0.895  12.358  18.381  0.00  0.00    +0.000 C 
BRANCH  18  20
ATOM     19  C   UNL     1       0.032  14.134  19.939  0.00  0.00    +0.000 C 
ATOM     20  C   UNL     1       0.202  13.410  18.609  0.00  0.00    +0.000 C 
ENDBRANCH  18  20
BRANCH  18  21
ATOM     21  O   UNL     1      -1.422  12.490  17.056  0.00  0.00    +0.000 OA
ATOM     22  H   UNL     1      -2.008  11.732  16.887  0.00  0.00    +0.000 HD
ENDBRANCH  18  21
ENDBRANCH  17  18
ENDBRANCH   1  17
TORSDOF 6
ENDMDL
MODEL 5
REMARK VINA RESULT:      -6.1      4.306      6.449
REMARK  Name = 
REMARK  7 active torsions:
REMARK  status: ('A' for Active; 'I' for Inactive)
REMARK    1  A    between atoms: C_1  and  C_2
REMARK    2  A    between atoms: C_2  and  C_3
REMARK    3  A    between atoms: C_3  and  O_4
REMARK    4  A    between atoms: C_3  and  C_5
REMARK    5  A    between atoms: C_5  and  N_6
REMARK    6  A    between atoms: C_10  and  C_12
REMARK    7  A    between atoms: C_16  and  C_17
REMARK                            x       y       z     vdW  Elec       q    Type
REMARK                         _______ _______ _______ _____ _____    ______ ____
ROOT
ATOM      1  N   UNL     1       1.084   9.814  19.447  0.00  0.00    +0.000 NA
ATOM      2  C   UNL     1       1.533   9.019  20.611  0.00  0.00    +0.000 C 
ATOM      3  C   UNL     1       1.531   7.494  20.392  0.00  0.00    +0.000 C 
ATOM      4  N   UNL     1       2.316   7.119  19.213  0.00  0.00    +0.000 N 
ATOM      5  C   UNL     1       3.148   5.980  19.289  0.00  0.00    +0.000 C 
ATOM      6  O   UNL     1       3.287   5.408  20.374  0.00  0.00    +0.000 OA
ATOM      7  C   UNL     1       1.992   7.896  18.010  0.00  0.00    +0.000 C 
ATOM      8  C   UNL     1       1.868   9.414  18.266  0.00  0.00    +0.000 C 
ENDROOT
BRANCH   5   9
ATOM      9  C   UNL     1       3.892   5.520  18.110  0.00  0.00    +0.000 A 
ATOM     10  S   UNL     1       5.209   6.441  17.469  0.00  0.00    +0.000 S 
ATOM     11  C   UNL     1       5.665   5.184  16.413  0.00  0.00    +0.000 A 
ATOM     12  C   UNL     1       4.680   4.235  16.318  0.00  0.00    +0.000 A 
ATOM     13  C   UNL     1       3.610   4.474  17.235  0.00  0.00    +0.000 A 
BRANCH  13  14
ATOM     14  C   UNL     1       2.328   3.631  17.252  0.00  0.00    +0.000 C 
ATOM     15  C   UNL     1       2.410   2.234  17.854  0.00  0.00    +0.000 C 
ATOM     16  C   UNL     1       1.653   3.300  18.568  0.00  0.00    +0.000 C 
ENDBRANCH  13  14
ENDBRANCH   5   9
BRANCH   1  17
ATOM     17  C   UNL     1      -0.365   9.739  19.202  0.00  0.00    +0.000 C 
BRANCH  17  18
ATOM     18  C   UNL     1      -0.856  10.532  17.964  0.00  0.00    +0.000 C 
BRANCH  18  20
ATOM     19  C   UNL     1      -2.588  10.691  16.116  0.00  0.00    +0.000 C 
ATOM     20  C   UNL     1      -2.008   9.828  17.229  0.00  0.00    +0.000 C 
ENDBRANCH  18  20
BRANCH  18  21
ATOM     21  O   UNL     1      -1.274  11.838  18.376  0.00  0.00    +0.000 OA
ATOM     22  H   UNL     1      -0.483  12.401  18.445  0.00  0.00    +0.000 HD
ENDBRANCH  18  21
ENDBRANCH  17  18
ENDBRANCH   1  17
TORSDOF 6
ENDMDL
MODEL 6
REMARK VINA RESULT:      -6.0      4.716      6.685
REMARK  Name = 
REMARK  7 active torsions:
REMARK  status: ('A' for Active; 'I' for Inactive)
REMARK    1  A    between atoms: C_1  and  C_2
REMARK    2  A    between atoms: C_2  and  C_3
REMARK    3  A    between atoms: C_3  and  O_4
REMARK    4  A    between atoms: C_3  and  C_5
REMARK    5  A    between atoms: C_5  and  N_6
REMARK    6  A    between atoms: C_10  and  C_12
REMARK    7  A    between atoms: C_16  and  C_17
REMARK                            x       y       z     vdW  Elec       q    Type
REMARK                         _______ _______ _______ _____ _____    ______ ____
ROOT
ATOM      1  N   UNL     1       0.792  10.709  19.243  0.00  0.00    +0.000 NA
ATOM      2  C   UNL     1       1.205  10.037  20.496  0.00  0.00    +0.000 C 
ATOM      3  C   UNL     1       1.055   8.504  20.487  0.00  0.00    +0.000 C 
ATOM      4  N   UNL     1       1.762   7.901  19.354  0.00  0.00    +0.000 N 
ATOM      5  C   UNL     1       2.488   6.708  19.568  0.00  0.00    +0.000 C 
ATOM      6  O   UNL     1       2.611   6.277  20.718  0.00  0.00    +0.000 OA
ATOM      7  C   UNL     1       1.472   8.538  18.064  0.00  0.00    +0.000 C 
ATOM      8  C   UNL     1       1.496  10.081  18.112  0.00  0.00    +0.000 C 
ENDROOT
BRANCH   5   9
ATOM      9  C   UNL     1       3.147   6.026  18.448  0.00  0.00    +0.000 A 
ATOM     10  S   UNL     1       4.432   6.783  17.571  0.00  0.00    +0.000 S 
ATOM     11  C   UNL     1       4.801   5.346  16.733  0.00  0.00    +0.000 A 
ATOM     12  C   UNL     1       3.798   4.421  16.872  0.00  0.00    +0.000 A 
ATOM     13  C   UNL     1       2.794   4.847  17.796  0.00  0.00    +0.000 A 
BRANCH  13  14
ATOM     14  C   UNL     1       1.504   4.053  18.043  0.00  0.00    +0.000 C 
ATOM     15  C   UNL     1       1.634   2.557  18.298  0.00  0.00    +0.000 C 
ATOM     16  C   UNL     1       1.227   3.461  19.410  0.00  0.00    +0.000 C 
ENDBRANCH  13  14
ENDBRANCH   5   9
BRANCH   1  17
ATOM     17  C   UNL     1      -0.665  10.741  19.041  0.00  0.00    +0.000 C 
BRANCH  17  18
ATOM     18  C   UNL     1      -1.152  11.767  17.986  0.00  0.00    +0.000 C 
BRANCH  18  20
ATOM     19  C   UNL     1      -2.231   9.905  16.641  0.00  0.00    +0.000 C 
ATOM     20  C   UNL     1      -2.408  11.296  17.238  0.00  0.00    +0.000 C 
ENDBRANCH  18  20
BRANCH  18  21
ATOM     21  O   UNL     1      -1.416  13.017  18.633  0.00  0.00    +0.000 OA
ATOM     22  H   UNL     1      -0.779  13.121  19.361  0.00  0.00    +0.000 HD
ENDBRANCH  18  21
ENDBRANCH  17  18
ENDBRANCH   1  17
TORSDOF 6
ENDMDL
MODEL 7
REMARK VINA RESULT:      -5.9      3.099      4.095
REMARK  Name = 
REMARK  7 active torsions:
REMARK  status: ('A' for Active; 'I' for Inactive)
REMARK    1  A    between atoms: C_1  and  C_2
REMARK    2  A    between atoms: C_2  and  C_3
REMARK    3  A    between atoms: C_3  and  O_4
REMARK    4  A    between atoms: C_3  and  C_5
REMARK    5  A    between atoms: C_5  and  N_6
REMARK    6  A    between atoms: C_10  and  C_12
REMARK    7  A    between atoms: C_16  and  C_17
REMARK                            x       y       z     vdW  Elec       q    Type
REMARK                         _______ _______ _______ _____ _____    ______ ____
ROOT
ATOM      1  N   UNL     1       6.384   3.697  15.133  0.00  0.00    +0.000 NA
ATOM      2  C   UNL     1       7.209   4.310  16.198  0.00  0.00    +0.000 C 
ATOM      3  C   UNL     1       6.450   5.275  17.129  0.00  0.00    +0.000 C 
ATOM      4  N   UNL     1       5.278   4.632  17.728  0.00  0.00    +0.000 N 
ATOM      5  C   UNL     1       4.995   4.878  19.091  0.00  0.00    +0.000 C 
ATOM      6  O   UNL     1       5.805   5.519  19.767  0.00  0.00    +0.000 OA
ATOM      7  C   UNL     1       4.420   3.936  16.761  0.00  0.00    +0.000 C 
ATOM      8  C   UNL     1       5.201   3.072  15.748  0.00  0.00    +0.000 C 
ENDROOT
BRANCH   5   9
ATOM      9  C   UNL     1       3.790   4.319  19.715  0.00  0.00    +0.000 A 
ATOM     10  S   UNL     1       3.769   2.703  20.332  0.00  0.00    +0.000 S 
ATOM     11  C   UNL     1       2.256   2.935  21.081  0.00  0.00    +0.000 A 
ATOM     12  C   UNL     1       1.645   4.073  20.622  0.00  0.00    +0.000 A 
ATOM     13  C   UNL     1       2.496   4.833  19.761  0.00  0.00    +0.000 A 
BRANCH  13  14
ATOM     14  C   UNL     1       2.017   6.087  19.017  0.00  0.00    +0.000 C 
ATOM     15  C   UNL     1       2.132   7.423  19.740  0.00  0.00    +0.000 C 
ATOM     16  C   UNL     1       3.016   7.137  18.576  0.00  0.00    +0.000 C 
ENDBRANCH  13  14
ENDBRANCH   5   9
BRANCH   1  17
ATOM     17  C   UNL     1       6.022   4.629  14.054  0.00  0.00    +0.000 C 
BRANCH  17  18
ATOM     18  C   UNL     1       6.195   4.064  12.621  0.00  0.00    +0.000 C 
BRANCH  18  20
ATOM     19  C   UNL     1       8.165   5.660  12.740  0.00  0.00    +0.000 C 
ATOM     20  C   UNL     1       7.485   4.554  11.944  0.00  0.00    +0.000 C 
ENDBRANCH  18  20
BRANCH  18  21
ATOM     21  O   UNL     1       6.193   2.633  12.677  0.00  0.00    +0.000 OA
ATOM     22  H   UNL     1       6.769   2.302  11.966  0.00  0.00    +0.000 HD
ENDBRANCH  18  21
ENDBRANCH  17  18
ENDBRANCH   1  17
TORSDOF 6
ENDMDL
MODEL 8
REMARK VINA RESULT:      -5.9      2.959      4.389
REMARK  Name = 
REMARK  7 active torsions:
REMARK  status: ('A' for Active; 'I' for Inactive)
REMARK    1  A    between atoms: C_1  and  C_2
REMARK    2  A    between atoms: C_2  and  C_3
REMARK    3  A    between atoms: C_3  and  O_4
REMARK    4  A    between atoms: C_3  and  C_5
REMARK    5  A    between atoms: C_5  and  N_6
REMARK    6  A    between atoms: C_10  and  C_12
REMARK    7  A    between atoms: C_16  and  C_17
REMARK                            x       y       z     vdW  Elec       q    Type
REMARK                         _______ _______ _______ _____ _____    ______ ____
ROOT
ATOM      1  N   UNL     1       4.724   4.255  17.645  0.00  0.00    +0.000 NA
ATOM      2  C   UNL     1       3.758   3.761  18.651  0.00  0.00    +0.000 C 
ATOM      3  C   UNL     1       3.471   4.739  19.806  0.00  0.00    +0.000 C 
ATOM      4  N   UNL     1       3.032   6.045  19.308  0.00  0.00    +0.000 N 
ATOM      5  C   UNL     1       1.976   6.703  19.976  0.00  0.00    +0.000 C 
ATOM      6  O   UNL     1       1.372   6.111  20.875  0.00  0.00    +0.000 OA
ATOM      7  C   UNL     1       3.891   6.599  18.254  0.00  0.00    +0.000 C 
ATOM      8  C   UNL     1       4.280   5.575  17.167  0.00  0.00    +0.000 C 
ENDROOT
BRANCH   5   9
ATOM      9  C   UNL     1       1.554   8.046  19.563  0.00  0.00    +0.000 A 
ATOM     10  S   UNL     1       2.240   8.810  18.170  0.00  0.00    +0.000 S 
ATOM     11  C   UNL     1       1.099  10.075  18.215  0.00  0.00    +0.000 A 
ATOM     12  C   UNL     1       0.429  10.094  19.411  0.00  0.00    +0.000 A 
ATOM     13  C   UNL     1       0.755   8.971  20.232  0.00  0.00    +0.000 A 
BRANCH  13  14
ATOM     14  C   UNL     1       0.236   8.813  21.668  0.00  0.00    +0.000 C 
ATOM     15  C   UNL     1       1.093   9.380  22.793  0.00  0.00    +0.000 C 
ATOM     16  C   UNL     1      -0.203  10.031  22.454  0.00  0.00    +0.000 C 
ENDBRANCH  13  14
ENDBRANCH   5   9
BRANCH   1  17
ATOM     17  C   UNL     1       6.116   4.275  18.121  0.00  0.00    +0.000 C 
BRANCH  17  18
ATOM     18  C   UNL     1       7.062   5.208  17.321  0.00  0.00    +0.000 C 
BRANCH  18  20
ATOM     19  C   UNL     1       7.576   7.682  17.553  0.00  0.00    +0.000 C 
ATOM     20  C   UNL     1       7.690   6.305  18.195  0.00  0.00    +0.000 C 
ENDBRANCH  18  20
BRANCH  18  21
ATOM     21  O   UNL     1       8.096   4.423  16.716  0.00  0.00    +0.000 OA
ATOM     22  H   UNL     1       8.954   4.767  17.020  0.00  0.00    +0.000 HD
ENDBRANCH  18  21
ENDBRANCH  17  18
ENDBRANCH   1  17
TORSDOF 6
ENDMDL
MODEL 9
REMARK VINA RESULT:      -5.8      4.611      6.348
REMARK  Name = 
REMARK  7 active torsions:
REMARK  status: ('A' for Active; 'I' for Inactive)
REMARK    1  A    between atoms: C_1  and  C_2
REMARK    2  A    between atoms: C_2  and  C_3
REMARK    3  A    between atoms: C_3  and  O_4
REMARK    4  A    between atoms: C_3  and  C_5
REMARK    5  A    between atoms: C_5  and  N_6
REMARK    6  A    between atoms: C_10  and  C_12
REMARK    7  A    between atoms: C_16  and  C_17
REMARK                            x       y       z     vdW  Elec       q    Type
REMARK                         _______ _______ _______ _____ _____    ______ ____
ROOT
ATOM      1  N   UNL     1       2.879   5.812  18.679  0.00  0.00    +0.000 NA
ATOM      2  C   UNL     1       1.849   5.648  19.728  0.00  0.00    +0.000 C 
ATOM      3  C   UNL     1       1.730   6.831  20.708  0.00  0.00    +0.000 C 
ATOM      4  N   UNL     1       1.510   8.095  20.000  0.00  0.00    +0.000 N 
ATOM      5  C   UNL     1       0.578   9.014  20.532  0.00  0.00    +0.000 C 
ATOM      6  O   UNL     1      -0.112   8.679  21.500  0.00  0.00    +0.000 OA
ATOM      7  C   UNL     1       2.444   8.328  18.892  0.00  0.00    +0.000 C 
ATOM      8  C   UNL     1       2.656   7.094  17.989  0.00  0.00    +0.000 C 
ENDROOT
BRANCH   5   9
ATOM      9  C   UNL     1       0.381  10.325  19.902  0.00  0.00    +0.000 A 
ATOM     10  S   UNL     1       0.884  11.781  20.691  0.00  0.00    +0.000 S 
ATOM     11  C   UNL     1       0.600  12.717  19.296  0.00  0.00    +0.000 A 
ATOM     12  C   UNL     1      -0.142  12.022  18.375  0.00  0.00    +0.000 A 
ATOM     13  C   UNL     1      -0.347  10.662  18.763  0.00  0.00    +0.000 A 
BRANCH  13  14
ATOM     14  C   UNL     1      -1.243   9.699  17.972  0.00  0.00    +0.000 C 
ATOM     15  C   UNL     1      -2.747   9.938  18.016  0.00  0.00    +0.000 C 
ATOM     16  C   UNL     1      -1.998  10.192  16.754  0.00  0.00    +0.000 C 
ENDBRANCH  13  14
ENDBRANCH   5   9
BRANCH   1  17
ATOM     17  C   UNL     1       4.257   5.682  19.177  0.00  0.00    +0.000 C 
BRANCH  17  18
ATOM     18  C   UNL     1       5.244   5.005  18.190  0.00  0.00    +0.000 C 
BRANCH  18  20
ATOM     19  C   UNL     1       7.532   5.920  18.796  0.00  0.00    +0.000 C 
ATOM     20  C   UNL     1       6.399   5.932  17.779  0.00  0.00    +0.000 C 
ENDBRANCH  18  20
BRANCH  18  21
ATOM     21  O   UNL     1       5.770   3.817  18.791  0.00  0.00    +0.000 OA
ATOM     22  H   UNL     1       5.160   3.085  18.597  0.00  0.00    +0.000 HD
ENDBRANCH  18  21
ENDBRANCH  17  18
ENDBRANCH   1  17
TORSDOF 6
ENDMDL
