MODEL 1
REMARK VINA RESULT:      -9.2      0.000      0.000
REMARK  Name = 
REMARK  6 active torsions:
REMARK  status: ('A' for Active; 'I' for Inactive)
REMARK    1  A    between atoms: O_1  and  C_2
REMARK    2  A    between atoms: C_5  and  C_6
REMARK    3  A    between atoms: C_7  and  C_8
REMARK    4  A    between atoms: C_17  and  S_18
REMARK    5  A    between atoms: S_18  and  C_19
REMARK    6  A    between atoms: C_19  and  C_20
REMARK                            x       y       z     vdW  Elec       q    Type
REMARK                         _______ _______ _______ _____ _____    ______ ____
ROOT
ATOM      1  C   UNL     1       5.868   4.650  16.564  0.00  0.00    +0.000 A 
ATOM      2  N   UNL     1       5.497   3.918  15.480  0.00  0.00    +0.000 NA
ATOM      3  C   UNL     1       6.165   4.102  14.335  0.00  0.00    +0.000 A 
ATOM      4  C   UNL     1       5.820   3.344  13.225  0.00  0.00    +0.000 A 
ATOM      5  C   UNL     1       6.466   3.515  12.004  0.00  0.00    +0.000 A 
ATOM      6  C   UNL     1       7.484   4.455  11.899  0.00  0.00    +0.000 A 
ATOM      7  C   UNL     1       7.846   5.213  13.017  0.00  0.00    +0.000 A 
ATOM      8  C   UNL     1       7.205   5.055  14.239  0.00  0.00    +0.000 A 
ATOM      9  N   UNL     1       7.570   5.800  15.302  0.00  0.00    +0.000 NA
ATOM     10  C   UNL     1       6.920   5.574  16.477  0.00  0.00    +0.000 A 
ENDROOT
BRANCH   1  12
ATOM     11  C   UNL     1       3.755   4.193  17.777  0.00  0.00    +0.000 C 
ATOM     12  C   UNL     1       5.087   4.376  17.788  0.00  0.00    +0.000 C 
BRANCH  11  16
ATOM     13  C   UNL     1       1.567   3.010  21.237  0.00  0.00    +0.000 A 
ATOM     14  C   UNL     1       1.544   2.213  20.097  0.00  0.00    +0.000 A 
ATOM     15  C   UNL     1       2.240   2.625  18.956  0.00  0.00    +0.000 A 
ATOM     16  C   UNL     1       2.949   3.835  18.951  0.00  0.00    +0.000 A 
ATOM     17  C   UNL     1       2.957   4.620  20.110  0.00  0.00    +0.000 A 
ATOM     18  C   UNL     1       2.265   4.210  21.252  0.00  0.00    +0.000 A 
BRANCH  13  19
ATOM     19  O   UNL     1       0.919   2.642  22.377  0.00  0.00    +0.000 OA
ATOM     20  H   UNL     1       1.570   2.285  23.001  0.00  0.00    +0.000 HD
ENDBRANCH  13  19
ENDBRANCH  11  16
ENDBRANCH   1  12
BRANCH  10  21
ATOM     21  S   UNL     1       7.569   6.470  17.878  0.00  0.00    +0.000 S 
BRANCH  21  22
ATOM     22  C   UNL     1       7.049   8.162  17.444  0.00  0.00    +0.000 C 
BRANCH  22  23
ATOM     23  C   UNL     1       7.998   9.176  17.982  0.00  0.00    +0.000 A 
ATOM     24  N   UNL     1       8.766   9.052  19.048  0.00  0.00    +0.000 NA
ATOM     25  C   UNL     1       9.404  10.259  19.186  0.00  0.00    +0.000 A 
ATOM     26  C   UNL     1      10.306  10.688  20.170  0.00  0.00    +0.000 A 
ATOM     27  C   UNL     1      10.806  11.994  20.099  0.00  0.00    +0.000 A 
ATOM     28  C   UNL     1      10.423  12.850  19.063  0.00  0.00    +0.000 A 
ATOM     29  C   UNL     1       9.531  12.435  18.065  0.00  0.00    +0.000 A 
ATOM     30  C   UNL     1       9.042  11.132  18.167  0.00  0.00    +0.000 A 
ATOM     31  N   UNL     1       8.163  10.410  17.401  0.00  0.00    +0.000 N 
ATOM     32  H   UNL     1       7.677  10.743  16.580  0.00  0.00    +0.000 HD
ENDBRANCH  22  23
ENDBRANCH  21  22
ENDBRANCH  10  21
TORSDOF 6
ENDMDL
MODEL 2
REMARK VINA RESULT:      -9.1      0.557      1.281
REMARK  Name = 
REMARK  6 active torsions:
REMARK  status: ('A' for Active; 'I' for Inactive)
REMARK    1  A    between atoms: O_1  and  C_2
REMARK    2  A    between atoms: C_5  and  C_6
REMARK    3  A    between atoms: C_7  and  C_8
REMARK    4  A    between atoms: C_17  and  S_18
REMARK    5  A    between atoms: S_18  and  C_19
REMARK    6  A    between atoms: C_19  and  C_20
REMARK                            x       y       z     vdW  Elec       q    Type
REMARK                         _______ _______ _______ _____ _____    ______ ____
ROOT
ATOM      1  C   UNL     1       6.034   4.638  16.712  0.00  0.00    +0.000 A 
ATOM      2  N   UNL     1       5.653   3.873  15.654  0.00  0.00    +0.000 NA
ATOM      3  C   UNL     1       6.255   4.079  14.477  0.00  0.00    +0.000 A 
ATOM      4  C   UNL     1       5.900   3.290  13.393  0.00  0.00    +0.000 A 
ATOM      5  C   UNL     1       6.477   3.480  12.140  0.00  0.00    +0.000 A 
ATOM      6  C   UNL     1       7.436   4.473  11.977  0.00  0.00    +0.000 A 
ATOM      7  C   UNL     1       7.809   5.263  13.070  0.00  0.00    +0.000 A 
ATOM      8  C   UNL     1       7.235   5.086  14.323  0.00  0.00    +0.000 A 
ATOM      9  N   UNL     1       7.609   5.863  15.359  0.00  0.00    +0.000 NA
ATOM     10  C   UNL     1       7.029   5.617  16.566  0.00  0.00    +0.000 A 
ENDROOT
BRANCH   1  12
ATOM     11  C   UNL     1       3.991   4.212  18.051  0.00  0.00    +0.000 C 
ATOM     12  C   UNL     1       5.328   4.337  17.974  0.00  0.00    +0.000 C 
BRANCH  11  16
ATOM     13  C   UNL     1       1.718   2.985  21.440  0.00  0.00    +0.000 A 
ATOM     14  C   UNL     1       1.219   3.968  20.590  0.00  0.00    +0.000 A 
ATOM     15  C   UNL     1       1.987   4.386  19.498  0.00  0.00    +0.000 A 
ATOM     16  C   UNL     1       3.253   3.831  19.261  0.00  0.00    +0.000 A 
ATOM     17  C   UNL     1       3.732   2.843  20.130  0.00  0.00    +0.000 A 
ATOM     18  C   UNL     1       2.967   2.422  21.219  0.00  0.00    +0.000 A 
BRANCH  13  19
ATOM     19  O   UNL     1       1.000   2.534  22.505  0.00  0.00    +0.000 OA
ATOM     20  H   UNL     1       1.613   2.331  23.229  0.00  0.00    +0.000 HD
ENDBRANCH  13  19
ENDBRANCH  11  16
ENDBRANCH   1  12
BRANCH  10  21
ATOM     21  S   UNL     1       7.693   6.564  17.926  0.00  0.00    +0.000 S 
BRANCH  21  22
ATOM     22  C   UNL     1       7.025   8.210  17.525  0.00  0.00    +0.000 C 
BRANCH  22  23
ATOM     23  C   UNL     1       7.937   9.293  17.987  0.00  0.00    +0.000 A 
ATOM     24  N   UNL     1       8.156  10.449  17.391  0.00  0.00    +0.000 NA
ATOM     25  C   UNL     1       9.116  11.077  18.144  0.00  0.00    +0.000 A 
ATOM     26  C   UNL     1       9.744  12.315  17.945  0.00  0.00    +0.000 A 
ATOM     27  C   UNL     1      10.721  12.727  18.859  0.00  0.00    +0.000 A 
ATOM     28  C   UNL     1      11.059  11.926  19.954  0.00  0.00    +0.000 A 
ATOM     29  C   UNL     1      10.435  10.691  20.174  0.00  0.00    +0.000 A 
ATOM     30  C   UNL     1       9.472  10.303  19.243  0.00  0.00    +0.000 A 
ATOM     31  N   UNL     1       8.689   9.182  19.132  0.00  0.00    +0.000 N 
ATOM     32  H   UNL     1       8.700   8.385  19.753  0.00  0.00    +0.000 HD
ENDBRANCH  22  23
ENDBRANCH  21  22
ENDBRANCH  10  21
TORSDOF 6
ENDMDL
MODEL 3
REMARK VINA RESULT:      -9.0      4.489      8.144
REMARK  Name = 
REMARK  6 active torsions:
REMARK  status: ('A' for Active; 'I' for Inactive)
REMARK    1  A    between atoms: O_1  and  C_2
REMARK    2  A    between atoms: C_5  and  C_6
REMARK    3  A    between atoms: C_7  and  C_8
REMARK    4  A    between atoms: C_17  and  S_18
REMARK    5  A    between atoms: S_18  and  C_19
REMARK    6  A    between atoms: C_19  and  C_20
REMARK                            x       y       z     vdW  Elec       q    Type
REMARK                         _______ _______ _______ _____ _____    ______ ____
ROOT
ATOM      1  C   UNL     1       2.713   6.967  18.693  0.00  0.00    +0.000 A 
ATOM      2  N   UNL     1       1.929   6.267  19.556  0.00  0.00    +0.000 NA
ATOM      3  C   UNL     1       2.341   5.052  19.941  0.00  0.00    +0.000 A 
ATOM      4  C   UNL     1       1.570   4.335  20.843  0.00  0.00    +0.000 A 
ATOM      5  C   UNL     1       1.940   3.057  21.255  0.00  0.00    +0.000 A 
ATOM      6  C   UNL     1       3.112   2.497  20.761  0.00  0.00    +0.000 A 
ATOM      7  C   UNL     1       3.902   3.221  19.862  0.00  0.00    +0.000 A 
ATOM      8  C   UNL     1       3.539   4.494  19.439  0.00  0.00    +0.000 A 
ATOM      9  N   UNL     1       4.315   5.170  18.569  0.00  0.00    +0.000 NA
ATOM     10  C   UNL     1       3.917   6.425  18.219  0.00  0.00    +0.000 A 
ENDROOT
BRANCH   1  12
ATOM     11  C   UNL     1       1.286   8.957  19.079  0.00  0.00    +0.000 C 
ATOM     12  C   UNL     1       2.189   8.300  18.331  0.00  0.00    +0.000 C 
BRANCH  11  16
ATOM     13  C   UNL     1      -0.183  12.915  18.494  0.00  0.00    +0.000 A 
ATOM     14  C   UNL     1      -1.073  11.848  18.558  0.00  0.00    +0.000 A 
ATOM     15  C   UNL     1      -0.580  10.549  18.720  0.00  0.00    +0.000 A 
ATOM     16  C   UNL     1       0.801  10.315  18.806  0.00  0.00    +0.000 A 
ATOM     17  C   UNL     1       1.676  11.406  18.738  0.00  0.00    +0.000 A 
ATOM     18  C   UNL     1       1.187  12.703  18.581  0.00  0.00    +0.000 A 
BRANCH  13  19
ATOM     19  O   UNL     1      -0.616  14.198  18.356  0.00  0.00    +0.000 OA
ATOM     20  H   UNL     1      -1.057  14.286  17.496  0.00  0.00    +0.000 HD
ENDBRANCH  13  19
ENDBRANCH  11  16
ENDBRANCH   1  12
BRANCH  10  21
ATOM     21  S   UNL     1       5.076   7.325  17.203  0.00  0.00    +0.000 S 
BRANCH  21  22
ATOM     22  C   UNL     1       6.440   6.119  17.131  0.00  0.00    +0.000 C 
BRANCH  22  23
ATOM     23  C   UNL     1       6.483   5.428  15.812  0.00  0.00    +0.000 A 
ATOM     24  N   UNL     1       7.458   5.479  14.924  0.00  0.00    +0.000 NA
ATOM     25  C   UNL     1       7.019   4.748  13.850  0.00  0.00    +0.000 A 
ATOM     26  C   UNL     1       7.641   4.503  12.618  0.00  0.00    +0.000 A 
ATOM     27  C   UNL     1       6.965   3.731  11.665  0.00  0.00    +0.000 A 
ATOM     28  C   UNL     1       5.699   3.205  11.940  0.00  0.00    +0.000 A 
ATOM     29  C   UNL     1       5.067   3.431  13.169  0.00  0.00    +0.000 A 
ATOM     30  C   UNL     1       5.761   4.211  14.095  0.00  0.00    +0.000 A 
ATOM     31  N   UNL     1       5.452   4.640  15.361  0.00  0.00    +0.000 N 
ATOM     32  H   UNL     1       4.591   4.456  15.858  0.00  0.00    +0.000 HD
ENDBRANCH  22  23
ENDBRANCH  21  22
ENDBRANCH  10  21
TORSDOF 6
ENDMDL
MODEL 4
REMARK VINA RESULT:      -9.0      3.777      7.316
REMARK  Name = 
REMARK  6 active torsions:
REMARK  status: ('A' for Active; 'I' for Inactive)
REMARK    1  A    between atoms: O_1  and  C_2
REMARK    2  A    between atoms: C_5  and  C_6
REMARK    3  A    between atoms: C_7  and  C_8
REMARK    4  A    between atoms: C_17  and  S_18
REMARK    5  A    between atoms: S_18  and  C_19
REMARK    6  A    between atoms: C_19  and  C_20
REMARK                            x       y       z     vdW  Elec       q    Type
REMARK                         _______ _______ _______ _____ _____    ______ ____
ROOT
ATOM      1  C   UNL     1       7.298   6.319  17.217  0.00  0.00    +0.000 A 
ATOM      2  N   UNL     1       7.630   6.283  15.899  0.00  0.00    +0.000 NA
ATOM      3  C   UNL     1       7.072   5.338  15.132  0.00  0.00    +0.000 A 
ATOM      4  C   UNL     1       7.376   5.304  13.779  0.00  0.00    +0.000 A 
ATOM      5  C   UNL     1       6.844   4.326  12.943  0.00  0.00    +0.000 A 
ATOM      6  C   UNL     1       5.982   3.374  13.474  0.00  0.00    +0.000 A 
ATOM      7  C   UNL     1       5.660   3.411  14.835  0.00  0.00    +0.000 A 
ATOM      8  C   UNL     1       6.190   4.379  15.679  0.00  0.00    +0.000 A 
ATOM      9  N   UNL     1       5.868   4.392  16.988  0.00  0.00    +0.000 NA
ATOM     10  C   UNL     1       6.399   5.385  17.754  0.00  0.00    +0.000 A 
ENDROOT
BRANCH   1  12
ATOM     11  C   UNL     1       8.041   8.662  17.537  0.00  0.00    +0.000 C 
ATOM     12  C   UNL     1       7.950   7.399  17.986  0.00  0.00    +0.000 C 
BRANCH  11  16
ATOM     13  C   UNL     1       9.467  11.987  19.788  0.00  0.00    +0.000 A 
ATOM     14  C   UNL     1       9.018  12.175  18.484  0.00  0.00    +0.000 A 
ATOM     15  C   UNL     1       8.581  11.072  17.742  0.00  0.00    +0.000 A 
ATOM     16  C   UNL     1       8.601   9.785  18.298  0.00  0.00    +0.000 A 
ATOM     17  C   UNL     1       9.056   9.622  19.612  0.00  0.00    +0.000 A 
ATOM     18  C   UNL     1       9.490  10.721  20.356  0.00  0.00    +0.000 A 
BRANCH  13  19
ATOM     19  O   UNL     1       9.885  13.032  20.555  0.00  0.00    +0.000 OA
ATOM     20  H   UNL     1      10.357  12.682  21.326  0.00  0.00    +0.000 HD
ENDBRANCH  13  19
ENDBRANCH  11  16
ENDBRANCH   1  12
BRANCH  10  21
ATOM     21  S   UNL     1       5.796   5.443  19.433  0.00  0.00    +0.000 S 
BRANCH  21  22
ATOM     22  C   UNL     1       4.047   5.011  19.159  0.00  0.00    +0.000 C 
BRANCH  22  23
ATOM     23  C   UNL     1       3.189   6.228  19.114  0.00  0.00    +0.000 A 
ATOM     24  N   UNL     1       2.990   7.017  18.076  0.00  0.00    +0.000 NA
ATOM     25  C   UNL     1       2.190   8.034  18.531  0.00  0.00    +0.000 A 
ATOM     26  C   UNL     1       1.704   9.162  17.857  0.00  0.00    +0.000 A 
ATOM     27  C   UNL     1       0.912  10.078  18.562  0.00  0.00    +0.000 A 
ATOM     28  C   UNL     1       0.605   9.867  19.909  0.00  0.00    +0.000 A 
ATOM     29  C   UNL     1       1.075   8.740  20.597  0.00  0.00    +0.000 A 
ATOM     30  C   UNL     1       1.867   7.850  19.871  0.00  0.00    +0.000 A 
ATOM     31  N   UNL     1       2.498   6.681  20.212  0.00  0.00    +0.000 N 
ATOM     32  H   UNL     1       2.499   6.251  21.127  0.00  0.00    +0.000 HD
ENDBRANCH  22  23
ENDBRANCH  21  22
ENDBRANCH  10  21
TORSDOF 6
ENDMDL
MODEL 5
REMARK VINA RESULT:      -8.8      4.249      7.836
REMARK  Name = 
REMARK  6 active torsions:
REMARK  status: ('A' for Active; 'I' for Inactive)
REMARK    1  A    between atoms: O_1  and  C_2
REMARK    2  A    between atoms: C_5  and  C_6
REMARK    3  A    between atoms: C_7  and  C_8
REMARK    4  A    between atoms: C_17  and  S_18
REMARK    5  A    between atoms: S_18  and  C_19
REMARK    6  A    between atoms: C_19  and  C_20
REMARK                            x       y       z     vdW  Elec       q    Type
REMARK                         _______ _______ _______ _____ _____    ______ ____
ROOT
ATOM      1  C   UNL     1       2.603   6.494  18.781  0.00  0.00    +0.000 A 
ATOM      2  N   UNL     1       1.713   5.611  19.309  0.00  0.00    +0.000 NA
ATOM      3  C   UNL     1       1.935   4.304  19.122  0.00  0.00    +0.000 A 
ATOM      4  C   UNL     1       1.054   3.387  19.678  0.00  0.00    +0.000 A 
ATOM      5  C   UNL     1       1.224   2.018  19.491  0.00  0.00    +0.000 A 
ATOM      6  C   UNL     1       2.303   1.562  18.743  0.00  0.00    +0.000 A 
ATOM      7  C   UNL     1       3.203   2.481  18.193  0.00  0.00    +0.000 A 
ATOM      8  C   UNL     1       3.040   3.850  18.368  0.00  0.00    +0.000 A 
ATOM      9  N   UNL     1       3.918   4.716  17.823  0.00  0.00    +0.000 NA
ATOM     10  C   UNL     1       3.717   6.042  18.058  0.00  0.00    +0.000 A 
ENDROOT
BRANCH   1  12
ATOM     11  C   UNL     1       1.775   8.733  18.111  0.00  0.00    +0.000 C 
ATOM     12  C   UNL     1       2.289   7.914  19.044  0.00  0.00    +0.000 C 
BRANCH  11  16
ATOM     13  C   UNL     1       0.594  12.800  18.583  0.00  0.00    +0.000 A 
ATOM     14  C   UNL     1       1.918  12.493  18.283  0.00  0.00    +0.000 A 
ATOM     15  C   UNL     1       2.303  11.154  18.160  0.00  0.00    +0.000 A 
ATOM     16  C   UNL     1       1.370  10.124  18.347  0.00  0.00    +0.000 A 
ATOM     17  C   UNL     1       0.044  10.458  18.648  0.00  0.00    +0.000 A 
ATOM     18  C   UNL     1      -0.344  11.793  18.768  0.00  0.00    +0.000 A 
BRANCH  13  19
ATOM     19  O   UNL     1       0.168  14.088  18.694  0.00  0.00    +0.000 OA
ATOM     20  H   UNL     1       0.160  14.490  17.811  0.00  0.00    +0.000 HD
ENDBRANCH  13  19
ENDBRANCH  11  16
ENDBRANCH   1  12
BRANCH  10  21
ATOM     21  S   UNL     1       5.008   7.116  17.455  0.00  0.00    +0.000 S 
BRANCH  21  22
ATOM     22  C   UNL     1       6.394   5.936  17.375  0.00  0.00    +0.000 C 
BRANCH  22  23
ATOM     23  C   UNL     1       6.552   5.378  16.003  0.00  0.00    +0.000 A 
ATOM     24  N   UNL     1       7.503   5.670  15.136  0.00  0.00    +0.000 NA
ATOM     25  C   UNL     1       7.194   4.970  13.997  0.00  0.00    +0.000 A 
ATOM     26  C   UNL     1       7.847   4.942  12.757  0.00  0.00    +0.000 A 
ATOM     27  C   UNL     1       7.310   4.151  11.733  0.00  0.00    +0.000 A 
ATOM     28  C   UNL     1       6.153   3.397  11.945  0.00  0.00    +0.000 A 
ATOM     29  C   UNL     1       5.493   3.405  13.180  0.00  0.00    +0.000 A 
ATOM     30  C   UNL     1       6.045   4.208  14.179  0.00  0.00    +0.000 A 
ATOM     31  N   UNL     1       5.669   4.469  15.472  0.00  0.00    +0.000 N 
ATOM     32  H   UNL     1       4.853   4.099  15.940  0.00  0.00    +0.000 HD
ENDBRANCH  22  23
ENDBRANCH  21  22
ENDBRANCH  10  21
TORSDOF 6
ENDMDL
MODEL 6
REMARK VINA RESULT:      -8.7      4.420      8.147
REMARK  Name = 
REMARK  6 active torsions:
REMARK  status: ('A' for Active; 'I' for Inactive)
REMARK    1  A    between atoms: O_1  and  C_2
REMARK    2  A    between atoms: C_5  and  C_6
REMARK    3  A    between atoms: C_7  and  C_8
REMARK    4  A    between atoms: C_17  and  S_18
REMARK    5  A    between atoms: S_18  and  C_19
REMARK    6  A    between atoms: C_19  and  C_20
REMARK                            x       y       z     vdW  Elec       q    Type
REMARK                         _______ _______ _______ _____ _____    ______ ____
ROOT
ATOM      1  C   UNL     1       2.704   6.846  18.945  0.00  0.00    +0.000 A 
ATOM      2  N   UNL     1       1.986   6.122  19.845  0.00  0.00    +0.000 NA
ATOM      3  C   UNL     1       2.433   4.905  20.176  0.00  0.00    +0.000 A 
ATOM      4  C   UNL     1       1.730   4.162  21.114  0.00  0.00    +0.000 A 
ATOM      5  C   UNL     1       2.138   2.881  21.475  0.00  0.00    +0.000 A 
ATOM      6  C   UNL     1       3.278   2.341  20.892  0.00  0.00    +0.000 A 
ATOM      7  C   UNL     1       4.000   3.090  19.957  0.00  0.00    +0.000 A 
ATOM      8  C   UNL     1       3.599   4.368  19.585  0.00  0.00    +0.000 A 
ATOM      9  N   UNL     1       4.309   5.068  18.679  0.00  0.00    +0.000 NA
ATOM     10  C   UNL     1       3.878   6.325  18.381  0.00  0.00    +0.000 A 
ENDROOT
BRANCH   1  12
ATOM     11  C   UNL     1       1.272   8.805  19.454  0.00  0.00    +0.000 C 
ATOM     12  C   UNL     1       2.146   8.181  18.645  0.00  0.00    +0.000 C 
BRANCH  11  16
ATOM     13  C   UNL     1      -0.199  12.718  18.625  0.00  0.00    +0.000 A 
ATOM     14  C   UNL     1       1.170  12.470  18.590  0.00  0.00    +0.000 A 
ATOM     15  C   UNL     1       1.646  11.191  18.894  0.00  0.00    +0.000 A 
ATOM     16  C   UNL     1       0.757  10.163  19.242  0.00  0.00    +0.000 A 
ATOM     17  C   UNL     1      -0.616  10.437  19.269  0.00  0.00    +0.000 A 
ATOM     18  C   UNL     1      -1.094  11.712  18.964  0.00  0.00    +0.000 A 
BRANCH  13  19
ATOM     19  O   UNL     1      -0.710  13.942  18.320  0.00  0.00    +0.000 OA
ATOM     20  H   UNL     1      -1.464  13.823  17.722  0.00  0.00    +0.000 HD
ENDBRANCH  13  19
ENDBRANCH  11  16
ENDBRANCH   1  12
BRANCH  10  21
ATOM     21  S   UNL     1       4.959   7.255  17.308  0.00  0.00    +0.000 S 
BRANCH  21  22
ATOM     22  C   UNL     1       6.316   6.057  17.104  0.00  0.00    +0.000 C 
BRANCH  22  23
ATOM     23  C   UNL     1       6.278   5.417  15.759  0.00  0.00    +0.000 A 
ATOM     24  N   UNL     1       5.327   4.636  15.283  0.00  0.00    +0.000 NA
ATOM     25  C   UNL     1       5.763   4.236  14.045  0.00  0.00    +0.000 A 
ATOM     26  C   UNL     1       5.162   3.372  13.119  0.00  0.00    +0.000 A 
ATOM     27  C   UNL     1       5.830   3.104  11.918  0.00  0.00    +0.000 A 
ATOM     28  C   UNL     1       7.068   3.693  11.643  0.00  0.00    +0.000 A 
ATOM     29  C   UNL     1       7.679   4.566  12.551  0.00  0.00    +0.000 A 
ATOM     30  C   UNL     1       6.994   4.808  13.743  0.00  0.00    +0.000 A 
ATOM     31  N   UNL     1       7.289   5.574  14.842  0.00  0.00    +0.000 N 
ATOM     32  H   UNL     1       8.129   6.118  14.979  0.00  0.00    +0.000 HD
ENDBRANCH  22  23
ENDBRANCH  21  22
ENDBRANCH  10  21
TORSDOF 6
ENDMDL
MODEL 7
REMARK VINA RESULT:      -8.6      4.348      7.644
REMARK  Name = 
REMARK  6 active torsions:
REMARK  status: ('A' for Active; 'I' for Inactive)
REMARK    1  A    between atoms: O_1  and  C_2
REMARK    2  A    between atoms: C_5  and  C_6
REMARK    3  A    between atoms: C_7  and  C_8
REMARK    4  A    between atoms: C_17  and  S_18
REMARK    5  A    between atoms: S_18  and  C_19
REMARK    6  A    between atoms: C_19  and  C_20
REMARK                            x       y       z     vdW  Elec       q    Type
REMARK                         _______ _______ _______ _____ _____    ______ ____
ROOT
ATOM      1  C   UNL     1       3.100   6.340  18.366  0.00  0.00    +0.000 A 
ATOM      2  N   UNL     1       1.965   5.627  18.597  0.00  0.00    +0.000 NA
ATOM      3  C   UNL     1       2.055   4.292  18.637  0.00  0.00    +0.000 A 
ATOM      4  C   UNL     1       0.914   3.549  18.901  0.00  0.00    +0.000 A 
ATOM      5  C   UNL     1       0.949   2.157  18.927  0.00  0.00    +0.000 A 
ATOM      6  C   UNL     1       2.152   1.502  18.696  0.00  0.00    +0.000 A 
ATOM      7  C   UNL     1       3.310   2.247  18.444  0.00  0.00    +0.000 A 
ATOM      8  C   UNL     1       3.285   3.635  18.410  0.00  0.00    +0.000 A 
ATOM      9  N   UNL     1       4.414   4.330  18.160  0.00  0.00    +0.000 NA
ATOM     10  C   UNL     1       4.327   5.689  18.170  0.00  0.00    +0.000 A 
ENDROOT
BRANCH   1  12
ATOM     11  C   UNL     1       1.716   8.386  18.152  0.00  0.00    +0.000 C 
ATOM     12  C   UNL     1       2.912   7.806  18.350  0.00  0.00    +0.000 C 
BRANCH  11  16
ATOM     13  C   UNL     1       1.008  12.570  18.540  0.00  0.00    +0.000 A 
ATOM     14  C   UNL     1      -0.012  11.666  18.822  0.00  0.00    +0.000 A 
ATOM     15  C   UNL     1       0.221  10.296  18.661  0.00  0.00    +0.000 A 
ATOM     16  C   UNL     1       1.465   9.831  18.212  0.00  0.00    +0.000 A 
ATOM     17  C   UNL     1       2.475  10.761  17.936  0.00  0.00    +0.000 A 
ATOM     18  C   UNL     1       2.248  12.129  18.098  0.00  0.00    +0.000 A 
BRANCH  13  19
ATOM     19  O   UNL     1       0.835  13.912  18.699  0.00  0.00    +0.000 OA
ATOM     20  H   UNL     1      -0.080  14.136  18.467  0.00  0.00    +0.000 HD
ENDBRANCH  13  19
ENDBRANCH  11  16
ENDBRANCH   1  12
BRANCH  10  21
ATOM     21  S   UNL     1       5.886   6.542  18.005  0.00  0.00    +0.000 S 
BRANCH  21  22
ATOM     22  C   UNL     1       6.963   5.152  17.530  0.00  0.00    +0.000 C 
BRANCH  22  23
ATOM     23  C   UNL     1       6.864   4.862  16.072  0.00  0.00    +0.000 A 
ATOM     24  N   UNL     1       6.112   3.943  15.498  0.00  0.00    +0.000 NA
ATOM     25  C   UNL     1       6.409   4.005  14.160  0.00  0.00    +0.000 A 
ATOM     26  C   UNL     1       5.924   3.228  13.099  0.00  0.00    +0.000 A 
ATOM     27  C   UNL     1       6.408   3.478  11.808  0.00  0.00    +0.000 A 
ATOM     28  C   UNL     1       7.347   4.488  11.581  0.00  0.00    +0.000 A 
ATOM     29  C   UNL     1       7.835   5.280  12.628  0.00  0.00    +0.000 A 
ATOM     30  C   UNL     1       7.341   5.003  13.904  0.00  0.00    +0.000 A 
ATOM     31  N   UNL     1       7.598   5.549  15.135  0.00  0.00    +0.000 N 
ATOM     32  H   UNL     1       8.254   6.292  15.331  0.00  0.00    +0.000 HD
ENDBRANCH  22  23
ENDBRANCH  21  22
ENDBRANCH  10  21
TORSDOF 6
ENDMDL
MODEL 8
REMARK VINA RESULT:      -8.4      4.426      8.087
REMARK  Name = 
REMARK  6 active torsions:
REMARK  status: ('A' for Active; 'I' for Inactive)
REMARK    1  A    between atoms: O_1  and  C_2
REMARK    2  A    between atoms: C_5  and  C_6
REMARK    3  A    between atoms: C_7  and  C_8
REMARK    4  A    between atoms: C_17  and  S_18
REMARK    5  A    between atoms: S_18  and  C_19
REMARK    6  A    between atoms: C_19  and  C_20
REMARK                            x       y       z     vdW  Elec       q    Type
REMARK                         _______ _______ _______ _____ _____    ______ ____
ROOT
ATOM      1  C   UNL     1       2.486   6.870  19.131  0.00  0.00    +0.000 A 
ATOM      2  N   UNL     1       1.777   6.096  19.995  0.00  0.00    +0.000 NA
ATOM      3  C   UNL     1       2.017   4.779  20.007  0.00  0.00    +0.000 A 
ATOM      4  C   UNL     1       1.323   3.977  20.902  0.00  0.00    +0.000 A 
ATOM      5  C   UNL     1       1.517   2.599  20.937  0.00  0.00    +0.000 A 
ATOM      6  C   UNL     1       2.430   2.018  20.066  0.00  0.00    +0.000 A 
ATOM      7  C   UNL     1       3.143   2.823  19.171  0.00  0.00    +0.000 A 
ATOM      8  C   UNL     1       2.954   4.199  19.123  0.00  0.00    +0.000 A 
ATOM      9  N   UNL     1       3.650   4.952  18.249  0.00  0.00    +0.000 NA
ATOM     10  C   UNL     1       3.439   6.297  18.274  0.00  0.00    +0.000 A 
ENDROOT
BRANCH   1  12
ATOM     11  C   UNL     1       1.089   8.793  19.834  0.00  0.00    +0.000 C 
ATOM     12  C   UNL     1       2.167   8.311  19.192  0.00  0.00    +0.000 C 
BRANCH  11  16
ATOM     13  C   UNL     1       0.361  12.951  20.417  0.00  0.00    +0.000 A 
ATOM     14  C   UNL     1       0.073  12.048  21.435  0.00  0.00    +0.000 A 
ATOM     15  C   UNL     1       0.286  10.682  21.224  0.00  0.00    +0.000 A 
ATOM     16  C   UNL     1       0.777  10.218  19.994  0.00  0.00    +0.000 A 
ATOM     17  C   UNL     1       1.060  11.147  18.985  0.00  0.00    +0.000 A 
ATOM     18  C   UNL     1       0.851  12.511  19.194  0.00  0.00    +0.000 A 
BRANCH  13  19
ATOM     19  O   UNL     1       0.187  14.291  20.583  0.00  0.00    +0.000 OA
ATOM     20  H   UNL     1       0.926  14.755  20.158  0.00  0.00    +0.000 HD
ENDBRANCH  13  19
ENDBRANCH  11  16
ENDBRANCH   1  12
BRANCH  10  21
ATOM     21  S   UNL     1       4.515   7.247  17.214  0.00  0.00    +0.000 S 
BRANCH  21  22
ATOM     22  C   UNL     1       6.001   6.193  17.241  0.00  0.00    +0.000 C 
BRANCH  22  23
ATOM     23  C   UNL     1       6.208   5.515  15.931  0.00  0.00    +0.000 A 
ATOM     24  N   UNL     1       7.253   5.637  15.134  0.00  0.00    +0.000 NA
ATOM     25  C   UNL     1       6.961   4.885  14.024  0.00  0.00    +0.000 A 
ATOM     26  C   UNL     1       7.706   4.690  12.853  0.00  0.00    +0.000 A 
ATOM     27  C   UNL     1       7.171   3.881  11.843  0.00  0.00    +0.000 A 
ATOM     28  C   UNL     1       5.924   3.271  12.003  0.00  0.00    +0.000 A 
ATOM     29  C   UNL     1       5.170   3.446  13.170  0.00  0.00    +0.000 A 
ATOM     30  C   UNL     1       5.725   4.264  14.155  0.00  0.00    +0.000 A 
ATOM     31  N   UNL     1       5.276   4.664  15.388  0.00  0.00    +0.000 N 
ATOM     32  H   UNL     1       4.389   4.419  15.806  0.00  0.00    +0.000 HD
ENDBRANCH  22  23
ENDBRANCH  21  22
ENDBRANCH  10  21
TORSDOF 6
ENDMDL
MODEL 9
REMARK VINA RESULT:      -8.3      4.329      8.102
REMARK  Name = 
REMARK  6 active torsions:
REMARK  status: ('A' for Active; 'I' for Inactive)
REMARK    1  A    between atoms: O_1  and  C_2
REMARK    2  A    between atoms: C_5  and  C_6
REMARK    3  A    between atoms: C_7  and  C_8
REMARK    4  A    between atoms: C_17  and  S_18
REMARK    5  A    between atoms: S_18  and  C_19
REMARK    6  A    between atoms: C_19  and  C_20
REMARK                            x       y       z     vdW  Elec       q    Type
REMARK                         _______ _______ _______ _____ _____    ______ ____
ROOT
ATOM      1  C   UNL     1       1.543   7.750  20.292  0.00  0.00    +0.000 A 
ATOM      2  N   UNL     1       1.016   7.971  21.526  0.00  0.00    +0.000 NA
ATOM      3  C   UNL     1       0.399   9.139  21.748  0.00  0.00    +0.000 A 
ATOM      4  C   UNL     1      -0.171   9.372  22.991  0.00  0.00    +0.000 A 
ATOM      5  C   UNL     1      -0.801  10.579  23.283  0.00  0.00    +0.000 A 
ATOM      6  C   UNL     1      -0.869  11.564  22.305  0.00  0.00    +0.000 A 
ATOM      7  C   UNL     1      -0.309  11.330  21.044  0.00  0.00    +0.000 A 
ATOM      8  C   UNL     1       0.327  10.131  20.745  0.00  0.00    +0.000 A 
ATOM      9  N   UNL     1       0.863   9.931  19.524  0.00  0.00    +0.000 NA
ATOM     10  C   UNL     1       1.445   8.723  19.286  0.00  0.00    +0.000 A 
ENDROOT
BRANCH   1  12
ATOM     11  C   UNL     1       1.532   5.337  19.723  0.00  0.00    +0.000 C 
ATOM     12  C   UNL     1       2.194   6.434  20.130  0.00  0.00    +0.000 C 
BRANCH  11  16
ATOM     13  C   UNL     1       3.426   1.632  18.805  0.00  0.00    +0.000 A 
ATOM     14  C   UNL     1       2.306   2.035  18.083  0.00  0.00    +0.000 A 
ATOM     15  C   UNL     1       1.673   3.238  18.413  0.00  0.00    +0.000 A 
ATOM     16  C   UNL     1       2.151   4.031  19.466  0.00  0.00    +0.000 A 
ATOM     17  C   UNL     1       3.279   3.604  20.176  0.00  0.00    +0.000 A 
ATOM     18  C   UNL     1       3.915   2.405  19.848  0.00  0.00    +0.000 A 
BRANCH  13  19
ATOM     19  O   UNL     1       4.086   0.478  18.509  0.00  0.00    +0.000 OA
ATOM     20  H   UNL     1       3.656  -0.254  18.977  0.00  0.00    +0.000 HD
ENDBRANCH  13  19
ENDBRANCH  11  16
ENDBRANCH   1  12
BRANCH  10  21
ATOM     21  S   UNL     1       1.978   8.465  17.603  0.00  0.00    +0.000 S 
BRANCH  21  22
ATOM     22  C   UNL     1       3.772   8.276  17.861  0.00  0.00    +0.000 C 
BRANCH  22  23
ATOM     23  C   UNL     1       4.303   7.090  17.133  0.00  0.00    +0.000 A 
ATOM     24  N   UNL     1       4.177   5.825  17.486  0.00  0.00    +0.000 NA
ATOM     25  C   UNL     1       4.885   5.109  16.554  0.00  0.00    +0.000 A 
ATOM     26  C   UNL     1       5.113   3.728  16.469  0.00  0.00    +0.000 A 
ATOM     27  C   UNL     1       5.899   3.241  15.417  0.00  0.00    +0.000 A 
ATOM     28  C   UNL     1       6.437   4.111  14.465  0.00  0.00    +0.000 A 
ATOM     29  C   UNL     1       6.211   5.492  14.528  0.00  0.00    +0.000 A 
ATOM     30  C   UNL     1       5.431   5.949  15.591  0.00  0.00    +0.000 A 
ATOM     31  N   UNL     1       5.027   7.204  15.971  0.00  0.00    +0.000 N 
ATOM     32  H   UNL     1       5.264   8.071  15.508  0.00  0.00    +0.000 HD
ENDBRANCH  22  23
ENDBRANCH  21  22
ENDBRANCH  10  21
TORSDOF 6
ENDMDL
