MODEL 1
REMARK VINA RESULT:      -8.1      0.000      0.000
REMARK  Name = 
REMARK  7 active torsions:
REMARK  status: ('A' for Active; 'I' for Inactive)
REMARK    1  A    between atoms: C_1  and  O_2
REMARK    2  A    between atoms: O_2  and  C_3
REMARK    3  A    between atoms: C_6  and  C_7
REMARK    4  A    between atoms: C_7  and  N_8
REMARK    5  A    between atoms: C_13  and  C_14
REMARK    6  A    between atoms: C_15  and  C_16
REMARK    7  A    between atoms: N_21  and  C_22
REMARK                            x       y       z     vdW  Elec       q    Type
REMARK                         _______ _______ _______ _____ _____    ______ ____
ROOT
ATOM      1  N   UNL     1      -0.173  11.866  20.382  0.00  0.00    +0.000 N 
ATOM      2  C   UNL     1      -1.269  12.339  19.678  0.00  0.00    +0.000 A 
ATOM      3  C   UNL     1      -1.302  13.568  19.156  0.00  0.00    +0.000 A 
ATOM      4  C   UNL     1      -0.135  14.421  19.293  0.00  0.00    +0.000 A 
ATOM      5  N   UNL     1      -0.138  15.565  18.577  0.00  0.00    +0.000 NA
ATOM      6  C   UNL     1       0.989  16.339  18.597  0.00  0.00    +0.000 A 
ATOM      7  C   UNL     1       0.889  17.566  17.739  0.00  0.00    +0.000 C 
ATOM      8  C   UNL     1       2.118  16.010  19.370  0.00  0.00    +0.000 A 
ATOM      9  C   UNL     1       2.027  14.879  20.190  0.00  0.00    +0.000 A 
ATOM     10  C   UNL     1       0.927  14.032  20.084  0.00  0.00    +0.000 A 
ATOM     11  C   UNL     1       0.931  12.675  20.677  0.00  0.00    +0.000 A 
ATOM     12  O   UNL     1       1.914  12.311  21.317  0.00  0.00    +0.000 OA
ENDROOT
BRANCH   8  13
ATOM     13  C   UNL     1       3.358  16.847  19.376  0.00  0.00    +0.000 C 
ATOM     14  O   UNL     1       3.315  17.924  19.965  0.00  0.00    +0.000 OA
ATOM     15  N   UNL     1       4.532  16.393  18.773  0.00  0.00    +0.000 N 
ATOM     16  C   UNL     1       5.789  17.130  18.999  0.00  0.00    +0.000 C 
ATOM     17  C   UNL     1       6.951  16.178  19.382  0.00  0.00    +0.000 C 
ATOM     18  N   UNL     1       7.049  15.096  18.380  0.00  0.00    +0.000 N 
ATOM     19  C   UNL     1       5.794  14.343  18.175  0.00  0.00    +0.000 C 
ATOM     20  C   UNL     1       4.684  15.329  17.757  0.00  0.00    +0.000 C 
BRANCH  18  21
ATOM     21  C   UNL     1       8.250  14.501  18.032  0.00  0.00    +0.000 A 
ATOM     22  C   UNL     1       8.393  13.123  17.804  0.00  0.00    +0.000 A 
ATOM     23  C   UNL     1       9.639  12.564  17.489  0.00  0.00    +0.000 A 
ATOM     24  C   UNL     1      10.760  13.378  17.408  0.00  0.00    +0.000 A 
ATOM     25  F   UNL     1      11.953  12.844  17.115  0.00  0.00    +0.000 F 
ATOM     26  C   UNL     1      10.660  14.738  17.634  0.00  0.00    +0.000 A 
ATOM     27  C   UNL     1       9.413  15.286  17.948  0.00  0.00    +0.000 A 
ENDBRANCH  18  21
ENDBRANCH   8  13
BRANCH   1  28
ATOM     28  C   UNL     1      -0.136  10.459  20.780  0.00  0.00    +0.000 C 
BRANCH  28  32
ATOM     29  C   UNL     1       2.489   8.048  18.343  0.00  0.00    +0.000 A 
ATOM     30  C   UNL     1       1.924   9.213  17.822  0.00  0.00    +0.000 A 
ATOM     31  C   UNL     1       1.071   9.994  18.608  0.00  0.00    +0.000 A 
ATOM     32  C   UNL     1       0.764   9.610  19.916  0.00  0.00    +0.000 A 
ATOM     33  C   UNL     1       1.302   8.418  20.417  0.00  0.00    +0.000 A 
ATOM     34  C   UNL     1       2.165   7.646  19.639  0.00  0.00    +0.000 A 
BRANCH  29  36
ATOM     35  C   UNL     1       3.722   6.080  17.926  0.00  0.00    +0.000 C 
ATOM     36  O   UNL     1       3.307   7.367  17.487  0.00  0.00    +0.000 OA
ENDBRANCH  29  36
ENDBRANCH  28  32
ENDBRANCH   1  28
TORSDOF 5
ENDMDL
MODEL 2
REMARK VINA RESULT:      -7.1      6.077      9.533
REMARK  Name = 
REMARK  7 active torsions:
REMARK  status: ('A' for Active; 'I' for Inactive)
REMARK    1  A    between atoms: C_1  and  O_2
REMARK    2  A    between atoms: O_2  and  C_3
REMARK    3  A    between atoms: C_6  and  C_7
REMARK    4  A    between atoms: C_7  and  N_8
REMARK    5  A    between atoms: C_13  and  C_14
REMARK    6  A    between atoms: C_15  and  C_16
REMARK    7  A    between atoms: N_21  and  C_22
REMARK                            x       y       z     vdW  Elec       q    Type
REMARK                         _______ _______ _______ _____ _____    ______ ____
ROOT
ATOM      1  N   UNL     1       2.683   6.888  19.022  0.00  0.00    +0.000 N 
ATOM      2  C   UNL     1       2.976   7.633  17.891  0.00  0.00    +0.000 A 
ATOM      3  C   UNL     1       2.479   8.857  17.696  0.00  0.00    +0.000 A 
ATOM      4  C   UNL     1       1.638   9.445  18.725  0.00  0.00    +0.000 A 
ATOM      5  N   UNL     1       1.332  10.751  18.578  0.00  0.00    +0.000 NA
ATOM      6  C   UNL     1       0.633  11.364  19.581  0.00  0.00    +0.000 A 
ATOM      7  C   UNL     1       0.380  12.823  19.331  0.00  0.00    +0.000 C 
ATOM      8  C   UNL     1       0.186  10.673  20.722  0.00  0.00    +0.000 A 
ATOM      9  C   UNL     1       0.422   9.294  20.770  0.00  0.00    +0.000 A 
ATOM     10  C   UNL     1       1.228   8.694  19.807  0.00  0.00    +0.000 A 
ATOM     11  C   UNL     1       1.770   7.328  19.988  0.00  0.00    +0.000 A 
ATOM     12  O   UNL     1       1.458   6.695  20.994  0.00  0.00    +0.000 OA
ENDROOT
BRANCH   8  13
ATOM     13  C   UNL     1      -0.561  11.349  21.828  0.00  0.00    +0.000 C 
ATOM     14  O   UNL     1      -0.026  11.389  22.934  0.00  0.00    +0.000 OA
ATOM     15  N   UNL     1      -1.797  11.954  21.594  0.00  0.00    +0.000 N 
ATOM     16  C   UNL     1      -2.390  12.808  22.640  0.00  0.00    +0.000 C 
ATOM     17  C   UNL     1      -2.887  14.158  22.062  0.00  0.00    +0.000 C 
ATOM     18  N   UNL     1      -3.773  13.902  20.908  0.00  0.00    +0.000 N 
ATOM     19  C   UNL     1      -3.166  13.066  19.851  0.00  0.00    +0.000 C 
ATOM     20  C   UNL     1      -2.728  11.723  20.468  0.00  0.00    +0.000 C 
BRANCH  18  21
ATOM     21  C   UNL     1      -4.838  14.724  20.582  0.00  0.00    +0.000 A 
ATOM     22  C   UNL     1      -6.105  14.240  20.217  0.00  0.00    +0.000 A 
ATOM     23  C   UNL     1      -7.142  15.114  19.861  0.00  0.00    +0.000 A 
ATOM     24  C   UNL     1      -6.919  16.483  19.855  0.00  0.00    +0.000 A 
ATOM     25  F   UNL     1      -7.906  17.319  19.506  0.00  0.00    +0.000 F 
ATOM     26  C   UNL     1      -5.682  16.996  20.199  0.00  0.00    +0.000 A 
ATOM     27  C   UNL     1      -4.655  16.118  20.553  0.00  0.00    +0.000 A 
ENDBRANCH  18  21
ENDBRANCH   8  13
BRANCH   1  28
ATOM     28  C   UNL     1       3.392   5.630  19.248  0.00  0.00    +0.000 C 
BRANCH  28  32
ATOM     29  C   UNL     1       6.506   4.920  16.344  0.00  0.00    +0.000 A 
ATOM     30  C   UNL     1       5.224   4.409  16.135  0.00  0.00    +0.000 A 
ATOM     31  C   UNL     1       4.215   4.635  17.075  0.00  0.00    +0.000 A 
ATOM     32  C   UNL     1       4.481   5.360  18.239  0.00  0.00    +0.000 A 
ATOM     33  C   UNL     1       5.780   5.833  18.462  0.00  0.00    +0.000 A 
ATOM     34  C   UNL     1       6.785   5.621  17.516  0.00  0.00    +0.000 A 
BRANCH  29  36
ATOM     35  C   UNL     1       6.938   4.794  14.027  0.00  0.00    +0.000 C 
ATOM     36  O   UNL     1       7.411   4.638  15.359  0.00  0.00    +0.000 OA
ENDBRANCH  29  36
ENDBRANCH  28  32
ENDBRANCH   1  28
TORSDOF 5
ENDMDL
MODEL 3
REMARK VINA RESULT:      -7.1      1.309      2.024
REMARK  Name = 
REMARK  7 active torsions:
REMARK  status: ('A' for Active; 'I' for Inactive)
REMARK    1  A    between atoms: C_1  and  O_2
REMARK    2  A    between atoms: O_2  and  C_3
REMARK    3  A    between atoms: C_6  and  C_7
REMARK    4  A    between atoms: C_7  and  N_8
REMARK    5  A    between atoms: C_13  and  C_14
REMARK    6  A    between atoms: C_15  and  C_16
REMARK    7  A    between atoms: N_21  and  C_22
REMARK                            x       y       z     vdW  Elec       q    Type
REMARK                         _______ _______ _______ _____ _____    ______ ____
ROOT
ATOM      1  N   UNL     1       0.002  10.223  20.296  0.00  0.00    +0.000 N 
ATOM      2  C   UNL     1      -1.021  10.447  19.389  0.00  0.00    +0.000 A 
ATOM      3  C   UNL     1      -1.305  11.667  18.925  0.00  0.00    +0.000 A 
ATOM      4  C   UNL     1      -0.485  12.788  19.350  0.00  0.00    +0.000 A 
ATOM      5  N   UNL     1      -0.677  13.955  18.700  0.00  0.00    +0.000 NA
ATOM      6  C   UNL     1       0.149  15.002  18.999  0.00  0.00    +0.000 A 
ATOM      7  C   UNL     1      -0.129  16.236  18.192  0.00  0.00    +0.000 C 
ATOM      8  C   UNL     1       1.148  14.917  19.987  0.00  0.00    +0.000 A 
ATOM      9  C   UNL     1       1.228  13.726  20.719  0.00  0.00    +0.000 A 
ATOM     10  C   UNL     1       0.464  12.626  20.339  0.00  0.00    +0.000 A 
ATOM     11  C   UNL     1       0.743  11.269  20.860  0.00  0.00    +0.000 A 
ATOM     12  O   UNL     1       1.641  11.124  21.685  0.00  0.00    +0.000 OA
ENDROOT
BRANCH   8  13
ATOM     13  C   UNL     1       2.065  16.056  20.300  0.00  0.00    +0.000 C 
ATOM     14  O   UNL     1       1.708  16.854  21.164  0.00  0.00    +0.000 OA
ATOM     15  N   UNL     1       3.303  16.175  19.665  0.00  0.00    +0.000 N 
ATOM     16  C   UNL     1       4.275  17.167  20.163  0.00  0.00    +0.000 C 
ATOM     17  C   UNL     1       5.687  16.550  20.332  0.00  0.00    +0.000 C 
ATOM     18  N   UNL     1       6.085  15.882  19.076  0.00  0.00    +0.000 N 
ATOM     19  C   UNL     1       5.120  14.871  18.594  0.00  0.00    +0.000 C 
ATOM     20  C   UNL     1       3.746  15.545  18.403  0.00  0.00    +0.000 C 
BRANCH  18  21
ATOM     21  C   UNL     1       7.399  15.810  18.648  0.00  0.00    +0.000 A 
ATOM     22  C   UNL     1       8.159  16.936  18.293  0.00  0.00    +0.000 A 
ATOM     23  C   UNL     1       9.477  16.807  17.831  0.00  0.00    +0.000 A 
ATOM     24  C   UNL     1      10.045  15.548  17.709  0.00  0.00    +0.000 A 
ATOM     25  F   UNL     1      11.301  15.423  17.258  0.00  0.00    +0.000 F 
ATOM     26  C   UNL     1       9.324  14.415  18.040  0.00  0.00    +0.000 A 
ATOM     27  C   UNL     1       8.012  14.553  18.500  0.00  0.00    +0.000 A 
ENDBRANCH  18  21
ENDBRANCH   8  13
BRANCH   1  28
ATOM     28  C   UNL     1       0.365   8.847  20.633  0.00  0.00    +0.000 C 
BRANCH  28  32
ATOM     29  C   UNL     1       3.343   7.156  18.004  0.00  0.00    +0.000 A 
ATOM     30  C   UNL     1       3.061   6.545  19.226  0.00  0.00    +0.000 A 
ATOM     31  C   UNL     1       2.099   7.092  20.081  0.00  0.00    +0.000 A 
ATOM     32  C   UNL     1       1.422   8.262  19.728  0.00  0.00    +0.000 A 
ATOM     33  C   UNL     1       1.741   8.893  18.519  0.00  0.00    +0.000 A 
ATOM     34  C   UNL     1       2.690   8.339  17.658  0.00  0.00    +0.000 A 
BRANCH  29  36
ATOM     35  C   UNL     1       4.135   5.131  17.087  0.00  0.00    +0.000 C 
ATOM     36  O   UNL     1       4.299   6.534  17.251  0.00  0.00    +0.000 OA
ENDBRANCH  29  36
ENDBRANCH  28  32
ENDBRANCH   1  28
TORSDOF 5
ENDMDL
MODEL 4
REMARK VINA RESULT:      -6.8      6.097      9.577
REMARK  Name = 
REMARK  7 active torsions:
REMARK  status: ('A' for Active; 'I' for Inactive)
REMARK    1  A    between atoms: C_1  and  O_2
REMARK    2  A    between atoms: O_2  and  C_3
REMARK    3  A    between atoms: C_6  and  C_7
REMARK    4  A    between atoms: C_7  and  N_8
REMARK    5  A    between atoms: C_13  and  C_14
REMARK    6  A    between atoms: C_15  and  C_16
REMARK    7  A    between atoms: N_21  and  C_22
REMARK                            x       y       z     vdW  Elec       q    Type
REMARK                         _______ _______ _______ _____ _____    ______ ____
ROOT
ATOM      1  N   UNL     1       2.890   6.705  18.718  0.00  0.00    +0.000 N 
ATOM      2  C   UNL     1       3.154   7.623  17.714  0.00  0.00    +0.000 A 
ATOM      3  C   UNL     1       2.646   8.858  17.728  0.00  0.00    +0.000 A 
ATOM      4  C   UNL     1       1.828   9.268  18.856  0.00  0.00    +0.000 A 
ATOM      5  N   UNL     1       1.512  10.578  18.927  0.00  0.00    +0.000 NA
ATOM      6  C   UNL     1       0.835  11.018  20.030  0.00  0.00    +0.000 A 
ATOM      7  C   UNL     1       0.569  12.495  20.022  0.00  0.00    +0.000 C 
ATOM      8  C   UNL     1       0.417  10.149  21.055  0.00  0.00    +0.000 A 
ATOM      9  C   UNL     1       0.661   8.782  20.878  0.00  0.00    +0.000 A 
ATOM     10  C   UNL     1       1.446   8.350  19.814  0.00  0.00    +0.000 A 
ATOM     11  C   UNL     1       1.998   6.977  19.762  0.00  0.00    +0.000 A 
ATOM     12  O   UNL     1       1.713   6.190  20.661  0.00  0.00    +0.000 OA
ENDROOT
BRANCH   8  13
ATOM     13  C   UNL     1      -0.306  10.634  22.272  0.00  0.00    +0.000 C 
ATOM     14  O   UNL     1       0.187  10.378  23.368  0.00  0.00    +0.000 OA
ATOM     15  N   UNL     1      -1.473  11.392  22.158  0.00  0.00    +0.000 N 
ATOM     16  C   UNL     1      -2.025  12.049  23.358  0.00  0.00    +0.000 C 
ATOM     17  C   UNL     1      -2.376  13.535  23.087  0.00  0.00    +0.000 C 
ATOM     18  N   UNL     1      -3.237  13.626  21.890  0.00  0.00    +0.000 N 
ATOM     19  C   UNL     1      -2.669  12.988  20.684  0.00  0.00    +0.000 C 
ATOM     20  C   UNL     1      -2.378  11.506  20.994  0.00  0.00    +0.000 C 
BRANCH  18  21
ATOM     21  C   UNL     1      -4.210  14.599  21.738  0.00  0.00    +0.000 A 
ATOM     22  C   UNL     1      -4.824  14.892  20.509  0.00  0.00    +0.000 A 
ATOM     23  C   UNL     1      -5.780  15.912  20.399  0.00  0.00    +0.000 A 
ATOM     24  C   UNL     1      -6.124  16.658  21.517  0.00  0.00    +0.000 A 
ATOM     25  F   UNL     1      -7.030  17.639  21.411  0.00  0.00    +0.000 F 
ATOM     26  C   UNL     1      -5.534  16.404  22.741  0.00  0.00    +0.000 A 
ATOM     27  C   UNL     1      -4.583  15.385  22.841  0.00  0.00    +0.000 A 
ENDBRANCH  18  21
ENDBRANCH   8  13
BRANCH   1  28
ATOM     28  C   UNL     1       3.610   5.433  18.724  0.00  0.00    +0.000 C 
BRANCH  28  32
ATOM     29  C   UNL     1       6.658   5.090  15.686  0.00  0.00    +0.000 A 
ATOM     30  C   UNL     1       6.885   5.870  16.821  0.00  0.00    +0.000 A 
ATOM     31  C   UNL     1       5.899   5.985  17.805  0.00  0.00    +0.000 A 
ATOM     32  C   UNL     1       4.672   5.334  17.656  0.00  0.00    +0.000 A 
ATOM     33  C   UNL     1       4.435   4.588  16.495  0.00  0.00    +0.000 A 
ATOM     34  C   UNL     1       5.425   4.460  15.519  0.00  0.00    +0.000 A 
BRANCH  29  36
ATOM     35  C   UNL     1       7.324   4.844  13.435  0.00  0.00    +0.000 C 
ATOM     36  O   UNL     1       7.692   5.050  14.793  0.00  0.00    +0.000 OA
ENDBRANCH  29  36
ENDBRANCH  28  32
ENDBRANCH   1  28
TORSDOF 5
ENDMDL
MODEL 5
REMARK VINA RESULT:      -6.8      6.132      9.453
REMARK  Name = 
REMARK  7 active torsions:
REMARK  status: ('A' for Active; 'I' for Inactive)
REMARK    1  A    between atoms: C_1  and  O_2
REMARK    2  A    between atoms: O_2  and  C_3
REMARK    3  A    between atoms: C_6  and  C_7
REMARK    4  A    between atoms: C_7  and  N_8
REMARK    5  A    between atoms: C_13  and  C_14
REMARK    6  A    between atoms: C_15  and  C_16
REMARK    7  A    between atoms: N_21  and  C_22
REMARK                            x       y       z     vdW  Elec       q    Type
REMARK                         _______ _______ _______ _____ _____    ______ ____
ROOT
ATOM      1  N   UNL     1       2.675   6.581  19.070  0.00  0.00    +0.000 N 
ATOM      2  C   UNL     1       3.017   7.390  17.998  0.00  0.00    +0.000 A 
ATOM      3  C   UNL     1       2.579   8.647  17.888  0.00  0.00    +0.000 A 
ATOM      4  C   UNL     1       1.753   9.198  18.949  0.00  0.00    +0.000 A 
ATOM      5  N   UNL     1       1.510  10.525  18.895  0.00  0.00    +0.000 NA
ATOM      6  C   UNL     1       0.828  11.096  19.932  0.00  0.00    +0.000 A 
ATOM      7  C   UNL     1       0.645  12.579  19.787  0.00  0.00    +0.000 C 
ATOM      8  C   UNL     1       0.335  10.346  21.016  0.00  0.00    +0.000 A 
ATOM      9  C   UNL     1       0.506   8.958  20.967  0.00  0.00    +0.000 A 
ATOM     10  C   UNL     1       1.296   8.391  19.971  0.00  0.00    +0.000 A 
ATOM     11  C   UNL     1       1.772   6.992  20.057  0.00  0.00    +0.000 A 
ATOM     12  O   UNL     1       1.419   6.305  21.012  0.00  0.00    +0.000 OA
ENDROOT
BRANCH   8  13
ATOM     13  C   UNL     1      -0.394  10.976  22.161  0.00  0.00    +0.000 C 
ATOM     14  O   UNL     1       0.073  10.819  23.288  0.00  0.00    +0.000 OA
ATOM     15  N   UNL     1      -1.533  11.753  21.947  0.00  0.00    +0.000 N 
ATOM     16  C   UNL     1      -2.084  12.546  23.062  0.00  0.00    +0.000 C 
ATOM     17  C   UNL     1      -2.383  14.006  22.633  0.00  0.00    +0.000 C 
ATOM     18  N   UNL     1      -3.220  13.999  21.416  0.00  0.00    +0.000 N 
ATOM     19  C   UNL     1      -2.651  13.224  20.293  0.00  0.00    +0.000 C 
ATOM     20  C   UNL     1      -2.413  11.773  20.759  0.00  0.00    +0.000 C 
BRANCH  18  21
ATOM     21  C   UNL     1      -4.158  14.980  21.145  0.00  0.00    +0.000 A 
ATOM     22  C   UNL     1      -3.824  16.260  20.675  0.00  0.00    +0.000 A 
ATOM     23  C   UNL     1      -4.809  17.232  20.449  0.00  0.00    +0.000 A 
ATOM     24  C   UNL     1      -6.141  16.935  20.701  0.00  0.00    +0.000 A 
ATOM     25  F   UNL     1      -7.083  17.865  20.494  0.00  0.00    +0.000 F 
ATOM     26  C   UNL     1      -6.507  15.688  21.172  0.00  0.00    +0.000 A 
ATOM     27  C   UNL     1      -5.518  14.727  21.394  0.00  0.00    +0.000 A 
ENDBRANCH  18  21
ENDBRANCH   8  13
BRANCH   1  28
ATOM     28  C   UNL     1       3.323   5.278  19.211  0.00  0.00    +0.000 C 
BRANCH  28  32
ATOM     29  C   UNL     1       6.262   4.523  16.140  0.00  0.00    +0.000 A 
ATOM     30  C   UNL     1       4.904   4.360  15.864  0.00  0.00    +0.000 A 
ATOM     31  C   UNL     1       3.950   4.600  16.858  0.00  0.00    +0.000 A 
ATOM     32  C   UNL     1       4.346   4.992  18.139  0.00  0.00    +0.000 A 
ATOM     33  C   UNL     1       5.712   5.113  18.420  0.00  0.00    +0.000 A 
ATOM     34  C   UNL     1       6.665   4.888  17.424  0.00  0.00    +0.000 A 
BRANCH  29  36
ATOM     35  C   UNL     1       6.472   4.066  13.834  0.00  0.00    +0.000 C 
ATOM     36  O   UNL     1       7.102   4.262  15.094  0.00  0.00    +0.000 OA
ENDBRANCH  29  36
ENDBRANCH  28  32
ENDBRANCH   1  28
TORSDOF 5
ENDMDL
MODEL 6
REMARK VINA RESULT:      -6.7      6.112      9.425
REMARK  Name = 
REMARK  7 active torsions:
REMARK  status: ('A' for Active; 'I' for Inactive)
REMARK    1  A    between atoms: C_1  and  O_2
REMARK    2  A    between atoms: O_2  and  C_3
REMARK    3  A    between atoms: C_6  and  C_7
REMARK    4  A    between atoms: C_7  and  N_8
REMARK    5  A    between atoms: C_13  and  C_14
REMARK    6  A    between atoms: C_15  and  C_16
REMARK    7  A    between atoms: N_21  and  C_22
REMARK                            x       y       z     vdW  Elec       q    Type
REMARK                         _______ _______ _______ _____ _____    ______ ____
ROOT
ATOM      1  N   UNL     1       2.351   7.293  19.226  0.00  0.00    +0.000 N 
ATOM      2  C   UNL     1       2.626   8.000  18.066  0.00  0.00    +0.000 A 
ATOM      3  C   UNL     1       2.139   9.225  17.848  0.00  0.00    +0.000 A 
ATOM      4  C   UNL     1       1.331   9.853  18.879  0.00  0.00    +0.000 A 
ATOM      5  N   UNL     1       1.037  11.158  18.702  0.00  0.00    +0.000 NA
ATOM      6  C   UNL     1       0.370  11.809  19.702  0.00  0.00    +0.000 A 
ATOM      7  C   UNL     1       0.129  13.262  19.416  0.00  0.00    +0.000 C 
ATOM      8  C   UNL     1      -0.058  11.156  20.873  0.00  0.00    +0.000 A 
ATOM      9  C   UNL     1       0.162   9.776  20.956  0.00  0.00    +0.000 A 
ATOM     10  C   UNL     1       0.938   9.138  19.992  0.00  0.00    +0.000 A 
ATOM     11  C   UNL     1       1.467   7.771  20.200  0.00  0.00    +0.000 A 
ATOM     12  O   UNL     1       1.172   7.172  21.231  0.00  0.00    +0.000 OA
ENDROOT
BRANCH   8  13
ATOM     13  C   UNL     1      -0.770  11.874  21.976  0.00  0.00    +0.000 C 
ATOM     14  O   UNL     1      -0.227  11.903  23.078  0.00  0.00    +0.000 OA
ATOM     15  N   UNL     1      -1.981  12.525  21.743  0.00  0.00    +0.000 N 
ATOM     16  C   UNL     1      -2.533  13.414  22.784  0.00  0.00    +0.000 C 
ATOM     17  C   UNL     1      -2.979  14.777  22.195  0.00  0.00    +0.000 C 
ATOM     18  N   UNL     1      -3.881  14.546  21.048  0.00  0.00    +0.000 N 
ATOM     19  C   UNL     1      -3.315  13.675  19.997  0.00  0.00    +0.000 C 
ATOM     20  C   UNL     1      -2.928  12.321  20.626  0.00  0.00    +0.000 C 
BRANCH  18  21
ATOM     21  C   UNL     1      -4.914  15.407  20.720  0.00  0.00    +0.000 A 
ATOM     22  C   UNL     1      -6.269  15.101  20.922  0.00  0.00    +0.000 A 
ATOM     23  C   UNL     1      -7.281  15.993  20.539  0.00  0.00    +0.000 A 
ATOM     24  C   UNL     1      -6.947  17.199  19.940  0.00  0.00    +0.000 A 
ATOM     25  F   UNL     1      -7.913  18.048  19.565  0.00  0.00    +0.000 F 
ATOM     26  C   UNL     1      -5.623  17.530  19.716  0.00  0.00    +0.000 A 
ATOM     27  C   UNL     1      -4.622  16.635  20.101  0.00  0.00    +0.000 A 
ENDBRANCH  18  21
ENDBRANCH   8  13
BRANCH   1  28
ATOM     28  C   UNL     1       3.050   6.032  19.472  0.00  0.00    +0.000 C 
BRANCH  28  32
ATOM     29  C   UNL     1       5.164   4.466  16.049  0.00  0.00    +0.000 A 
ATOM     30  C   UNL     1       5.675   5.562  16.746  0.00  0.00    +0.000 A 
ATOM     31  C   UNL     1       4.991   6.073  17.853  0.00  0.00    +0.000 A 
ATOM     32  C   UNL     1       3.783   5.503  18.264  0.00  0.00    +0.000 A 
ATOM     33  C   UNL     1       3.256   4.430  17.534  0.00  0.00    +0.000 A 
ATOM     34  C   UNL     1       3.946   3.909  16.438  0.00  0.00    +0.000 A 
BRANCH  29  36
ATOM     35  C   UNL     1       7.040   4.868  14.673  0.00  0.00    +0.000 C 
ATOM     36  O   UNL     1       5.917   4.052  14.986  0.00  0.00    +0.000 OA
ENDBRANCH  29  36
ENDBRANCH  28  32
ENDBRANCH   1  28
TORSDOF 5
ENDMDL
MODEL 7
REMARK VINA RESULT:      -6.6      6.024      9.309
REMARK  Name = 
REMARK  7 active torsions:
REMARK  status: ('A' for Active; 'I' for Inactive)
REMARK    1  A    between atoms: C_1  and  O_2
REMARK    2  A    between atoms: O_2  and  C_3
REMARK    3  A    between atoms: C_6  and  C_7
REMARK    4  A    between atoms: C_7  and  N_8
REMARK    5  A    between atoms: C_13  and  C_14
REMARK    6  A    between atoms: C_15  and  C_16
REMARK    7  A    between atoms: N_21  and  C_22
REMARK                            x       y       z     vdW  Elec       q    Type
REMARK                         _______ _______ _______ _____ _____    ______ ____
ROOT
ATOM      1  N   UNL     1       2.083   6.862  19.025  0.00  0.00    +0.000 N 
ATOM      2  C   UNL     1       1.864   7.206  17.701  0.00  0.00    +0.000 A 
ATOM      3  C   UNL     1       1.421   8.414  17.344  0.00  0.00    +0.000 A 
ATOM      4  C   UNL     1       1.205   9.415  18.373  0.00  0.00    +0.000 A 
ATOM      5  N   UNL     1       0.960  10.673  17.949  0.00  0.00    +0.000 NA
ATOM      6  C   UNL     1       0.858  11.660  18.888  0.00  0.00    +0.000 A 
ATOM      7  C   UNL     1       0.621  13.023  18.304  0.00  0.00    +0.000 C 
ATOM      8  C   UNL     1       0.949  11.402  20.269  0.00  0.00    +0.000 A 
ATOM      9  C   UNL     1       1.082  10.066  20.664  0.00  0.00    +0.000 A 
ATOM     10  C   UNL     1       1.298   9.078  19.709  0.00  0.00    +0.000 A 
ATOM     11  C   UNL     1       1.763   7.723  20.082  0.00  0.00    +0.000 A 
ATOM     12  O   UNL     1       1.915   7.456  21.272  0.00  0.00    +0.000 OA
ENDROOT
BRANCH   8  13
ATOM     13  C   UNL     1       0.858  12.487  21.295  0.00  0.00    +0.000 C 
ATOM     14  O   UNL     1       1.876  13.133  21.532  0.00  0.00    +0.000 OA
ATOM     15  N   UNL     1      -0.354  12.781  21.922  0.00  0.00    +0.000 N 
ATOM     16  C   UNL     1      -0.461  14.000  22.747  0.00  0.00    +0.000 C 
ATOM     17  C   UNL     1      -1.733  14.815  22.401  0.00  0.00    +0.000 C 
ATOM     18  N   UNL     1      -2.915  13.930  22.462  0.00  0.00    +0.000 N 
ATOM     19  C   UNL     1      -2.814  12.723  21.615  0.00  0.00    +0.000 C 
ATOM     20  C   UNL     1      -1.558  11.929  22.027  0.00  0.00    +0.000 C 
BRANCH  18  21
ATOM     21  C   UNL     1      -4.168  14.377  22.843  0.00  0.00    +0.000 A 
ATOM     22  C   UNL     1      -5.237  13.518  23.144  0.00  0.00    +0.000 A 
ATOM     23  C   UNL     1      -6.499  14.020  23.491  0.00  0.00    +0.000 A 
ATOM     24  C   UNL     1      -6.708  15.391  23.531  0.00  0.00    +0.000 A 
ATOM     25  F   UNL     1      -7.916  15.873  23.854  0.00  0.00    +0.000 F 
ATOM     26  C   UNL     1      -5.682  16.269  23.233  0.00  0.00    +0.000 A 
ATOM     27  C   UNL     1      -4.428  15.758  22.888  0.00  0.00    +0.000 A 
ENDBRANCH  18  21
ENDBRANCH   8  13
BRANCH   1  28
ATOM     28  C   UNL     1       2.724   5.584  19.331  0.00  0.00    +0.000 C 
BRANCH  28  32
ATOM     29  C   UNL     1       6.296   4.908  17.002  0.00  0.00    +0.000 A 
ATOM     30  C   UNL     1       5.098   4.289  16.643  0.00  0.00    +0.000 A 
ATOM     31  C   UNL     1       3.940   4.504  17.397  0.00  0.00    +0.000 A 
ATOM     32  C   UNL     1       3.973   5.327  18.525  0.00  0.00    +0.000 A 
ATOM     33  C   UNL     1       5.189   5.910  18.904  0.00  0.00    +0.000 A 
ATOM     34  C   UNL     1       6.342   5.709  18.143  0.00  0.00    +0.000 A 
BRANCH  29  36
ATOM     35  C   UNL     1       7.156   4.861  14.805  0.00  0.00    +0.000 C 
ATOM     36  O   UNL     1       7.360   4.626  16.193  0.00  0.00    +0.000 OA
ENDBRANCH  29  36
ENDBRANCH  28  32
ENDBRANCH   1  28
TORSDOF 5
ENDMDL
MODEL 8
REMARK VINA RESULT:      -6.5      5.985      9.783
REMARK  Name = 
REMARK  7 active torsions:
REMARK  status: ('A' for Active; 'I' for Inactive)
REMARK    1  A    between atoms: C_1  and  O_2
REMARK    2  A    between atoms: O_2  and  C_3
REMARK    3  A    between atoms: C_6  and  C_7
REMARK    4  A    between atoms: C_7  and  N_8
REMARK    5  A    between atoms: C_13  and  C_14
REMARK    6  A    between atoms: C_15  and  C_16
REMARK    7  A    between atoms: N_21  and  C_22
REMARK                            x       y       z     vdW  Elec       q    Type
REMARK                         _______ _______ _______ _____ _____    ______ ____
ROOT
ATOM      1  N   UNL     1       6.444   5.557  16.966  0.00  0.00    +0.000 N 
ATOM      2  C   UNL     1       6.415   4.839  18.150  0.00  0.00    +0.000 A 
ATOM      3  C   UNL     1       5.476   5.038  19.079  0.00  0.00    +0.000 A 
ATOM      4  C   UNL     1       4.426   6.008  18.820  0.00  0.00    +0.000 A 
ATOM      5  N   UNL     1       3.393   6.025  19.689  0.00  0.00    +0.000 NA
ATOM      6  C   UNL     1       2.338   6.849  19.417  0.00  0.00    +0.000 A 
ATOM      7  C   UNL     1       1.231   6.760  20.428  0.00  0.00    +0.000 C 
ATOM      8  C   UNL     1       2.316   7.706  18.301  0.00  0.00    +0.000 A 
ATOM      9  C   UNL     1       3.461   7.742  17.497  0.00  0.00    +0.000 A 
ATOM     10  C   UNL     1       4.486   6.825  17.709  0.00  0.00    +0.000 A 
ATOM     11  C   UNL     1       5.553   6.605  16.706  0.00  0.00    +0.000 A 
ATOM     12  O   UNL     1       5.553   7.286  15.683  0.00  0.00    +0.000 OA
ENDROOT
BRANCH   8  13
ATOM     13  C   UNL     1       1.151   8.592  17.993  0.00  0.00    +0.000 C 
ATOM     14  O   UNL     1       0.425   8.273  17.054  0.00  0.00    +0.000 OA
ATOM     15  N   UNL     1       0.874   9.712  18.778  0.00  0.00    +0.000 N 
ATOM     16  C   UNL     1      -0.405  10.424  18.594  0.00  0.00    +0.000 C 
ATOM     17  C   UNL     1      -1.107  10.699  19.948  0.00  0.00    +0.000 C 
ATOM     18  N   UNL     1      -0.162  11.370  20.864  0.00  0.00    +0.000 N 
ATOM     19  C   UNL     1       1.108  10.642  21.066  0.00  0.00    +0.000 C 
ATOM     20  C   UNL     1       1.785  10.431  19.696  0.00  0.00    +0.000 C 
BRANCH  18  21
ATOM     21  C   UNL     1      -0.565  12.289  21.818  0.00  0.00    +0.000 A 
ATOM     22  C   UNL     1      -1.589  12.041  22.746  0.00  0.00    +0.000 A 
ATOM     23  C   UNL     1      -1.986  13.018  23.670  0.00  0.00    +0.000 A 
ATOM     24  C   UNL     1      -1.367  14.260  23.668  0.00  0.00    +0.000 A 
ATOM     25  F   UNL     1      -1.750  15.198  24.545  0.00  0.00    +0.000 F 
ATOM     26  C   UNL     1      -0.360  14.544  22.764  0.00  0.00    +0.000 A 
ATOM     27  C   UNL     1       0.028  13.563  21.847  0.00  0.00    +0.000 A 
ENDBRANCH  18  21
ENDBRANCH   8  13
BRANCH   1  28
ATOM     28  C   UNL     1       7.397   5.173  15.925  0.00  0.00    +0.000 C 
BRANCH  28  32
ATOM     29  C   UNL     1       5.533   3.406  12.454  0.00  0.00    +0.000 A 
ATOM     30  C   UNL     1       4.922   3.305  13.705  0.00  0.00    +0.000 A 
ATOM     31  C   UNL     1       5.525   3.873  14.831  0.00  0.00    +0.000 A 
ATOM     32  C   UNL     1       6.750   4.535  14.720  0.00  0.00    +0.000 A 
ATOM     33  C   UNL     1       7.377   4.597  13.469  0.00  0.00    +0.000 A 
ATOM     34  C   UNL     1       6.768   4.043  12.341  0.00  0.00    +0.000 A 
BRANCH  29  36
ATOM     35  C   UNL     1       3.701   3.513  10.970  0.00  0.00    +0.000 C 
ATOM     36  O   UNL     1       4.853   2.815  11.427  0.00  0.00    +0.000 OA
ENDBRANCH  29  36
ENDBRANCH  28  32
ENDBRANCH   1  28
TORSDOF 5
ENDMDL
MODEL 9
REMARK VINA RESULT:      -6.5      6.116      8.064
REMARK  Name = 
REMARK  7 active torsions:
REMARK  status: ('A' for Active; 'I' for Inactive)
REMARK    1  A    between atoms: C_1  and  O_2
REMARK    2  A    between atoms: O_2  and  C_3
REMARK    3  A    between atoms: C_6  and  C_7
REMARK    4  A    between atoms: C_7  and  N_8
REMARK    5  A    between atoms: C_13  and  C_14
REMARK    6  A    between atoms: C_15  and  C_16
REMARK    7  A    between atoms: N_21  and  C_22
REMARK                            x       y       z     vdW  Elec       q    Type
REMARK                         _______ _______ _______ _____ _____    ______ ____
ROOT
ATOM      1  N   UNL     1      -0.004  10.359  18.528  0.00  0.00    +0.000 N 
ATOM      2  C   UNL     1      -0.833   9.978  17.485  0.00  0.00    +0.000 A 
ATOM      3  C   UNL     1      -2.128  10.304  17.451  0.00  0.00    +0.000 A 
ATOM      4  C   UNL     1      -2.674  11.122  18.519  0.00  0.00    +0.000 A 
ATOM      5  N   UNL     1      -3.925  11.595  18.336  0.00  0.00    +0.000 NA
ATOM      6  C   UNL     1      -4.430  12.455  19.270  0.00  0.00    +0.000 A 
ATOM      7  C   UNL     1      -5.812  12.947  18.949  0.00  0.00    +0.000 C 
ATOM      8  C   UNL     1      -3.716  12.818  20.428  0.00  0.00    +0.000 A 
ATOM      9  C   UNL     1      -2.474  12.207  20.633  0.00  0.00    +0.000 A 
ATOM     10  C   UNL     1      -1.913  11.421  19.631  0.00  0.00    +0.000 A 
ATOM     11  C   UNL     1      -0.487  11.025  19.661  0.00  0.00    +0.000 A 
ATOM     12  O   UNL     1       0.202  11.362  20.620  0.00  0.00    +0.000 OA
ENDROOT
BRANCH   8  13
ATOM     13  C   UNL     1      -4.262  13.776  21.439  0.00  0.00    +0.000 C 
ATOM     14  O   UNL     1      -5.475  13.764  21.638  0.00  0.00    +0.000 OA
ATOM     15  N   UNL     1      -3.414  14.615  22.163  0.00  0.00    +0.000 N 
ATOM     16  C   UNL     1      -3.954  15.370  23.310  0.00  0.00    +0.000 C 
ATOM     17  C   UNL     1      -3.047  15.240  24.560  0.00  0.00    +0.000 C 
ATOM     18  N   UNL     1      -1.658  15.590  24.198  0.00  0.00    +0.000 N 
ATOM     19  C   UNL     1      -1.112  14.813  23.065  0.00  0.00    +0.000 C 
ATOM     20  C   UNL     1      -2.026  15.010  21.839  0.00  0.00    +0.000 C 
BRANCH  18  21
ATOM     21  C   UNL     1      -0.779  16.188  25.084  0.00  0.00    +0.000 A 
ATOM     22  C   UNL     1       0.217  17.096  24.691  0.00  0.00    +0.000 A 
ATOM     23  C   UNL     1       1.107  17.649  25.623  0.00  0.00    +0.000 A 
ATOM     24  C   UNL     1       1.016  17.289  26.960  0.00  0.00    +0.000 A 
ATOM     25  F   UNL     1       1.871  17.809  27.851  0.00  0.00    +0.000 F 
ATOM     26  C   UNL     1       0.054  16.391  27.384  0.00  0.00    +0.000 A 
ATOM     27  C   UNL     1      -0.829  15.847  26.447  0.00  0.00    +0.000 A 
ENDBRANCH  18  21
ENDBRANCH   8  13
BRANCH   1  28
ATOM     28  C   UNL     1       1.433  10.112  18.419  0.00  0.00    +0.000 C 
BRANCH  28  32
ATOM     29  C   UNL     1       2.616   6.081  19.415  0.00  0.00    +0.000 A 
ATOM     30  C   UNL     1       2.787   6.560  18.116  0.00  0.00    +0.000 A 
ATOM     31  C   UNL     1       2.403   7.864  17.790  0.00  0.00    +0.000 A 
ATOM     32  C   UNL     1       1.830   8.695  18.755  0.00  0.00    +0.000 A 
ATOM     33  C   UNL     1       1.622   8.193  20.046  0.00  0.00    +0.000 A 
ATOM     34  C   UNL     1       2.020   6.896  20.376  0.00  0.00    +0.000 A 
BRANCH  29  36
ATOM     35  C   UNL     1       2.276   4.050  20.568  0.00  0.00    +0.000 C 
ATOM     36  O   UNL     1       3.029   4.794  19.618  0.00  0.00    +0.000 OA
ENDBRANCH  29  36
ENDBRANCH  28  32
ENDBRANCH   1  28
TORSDOF 5
ENDMDL
