MODEL 1
REMARK VINA RESULT:      -8.9      0.000      0.000
REMARK  Name = 
REMARK  4 active torsions:
REMARK  status: ('A' for Active; 'I' for Inactive)
REMARK    1  A    between atoms: C_1  and  C_2
REMARK    2  A    between atoms: C_9  and  C_11
REMARK    3  A    between atoms: C_13  and  C_14
REMARK    4  A    between atoms: C_14  and  C_15
REMARK                            x       y       z     vdW  Elec       q    Type
REMARK                         _______ _______ _______ _____ _____    ______ ____
ROOT
ATOM      1  C   UNL     1       0.008   9.788  19.657  0.00  0.00    +0.000 A 
ATOM      2  C   UNL     1       0.876   9.438  18.605  0.00  0.00    +0.000 A 
ATOM      3  C   UNL     1       1.902   8.489  18.800  0.00  0.00    +0.000 A 
ATOM      4  C   UNL     1       2.121   7.978  20.083  0.00  0.00    +0.000 A 
ATOM      5  C   UNL     1       1.229   8.269  21.106  0.00  0.00    +0.000 A 
ATOM      6  C   UNL     1       0.142   9.100  20.854  0.00  0.00    +0.000 A 
ATOM      7  F   UNL     1      -0.807   9.146  21.785  0.00  0.00    +0.000 F 
ENDROOT
BRANCH   1  16
ATOM      8  C   UNL     1      -3.250  14.500  24.382  0.00  0.00    +0.000 C 
ATOM      9  C   UNL     1      -1.904  14.115  23.830  0.00  0.00    +0.000 C 
ATOM     10  O   UNL     1      -0.884  14.583  24.339  0.00  0.00    +0.000 OA
ATOM     11  N   UNL     1      -1.869  13.207  22.780  0.00  0.00    +0.000 N 
ATOM     12  C   UNL     1      -3.041  12.570  22.171  0.00  0.00    +0.000 C 
ATOM     13  C   UNL     1      -3.343  13.078  20.766  0.00  0.00    +0.000 C 
ATOM     14  C   UNL     1      -2.222  12.946  19.732  0.00  0.00    +0.000 C 
ATOM     15  N   UNL     1      -1.150  12.011  20.080  0.00  0.00    +0.000 N 
ATOM     16  C   UNL     1      -1.084  10.778  19.408  0.00  0.00    +0.000 C 
ATOM     17  O   UNL     1      -1.899  10.471  18.534  0.00  0.00    +0.000 OA
ATOM     18  C   UNL     1      -0.152  12.558  21.016  0.00  0.00    +0.000 C 
ATOM     19  C   UNL     1      -0.579  12.581  22.492  0.00  0.00    +0.000 C 
ENDBRANCH   1  16
BRANCH   3  20
ATOM     20  C   UNL     1       2.738   7.961  17.655  0.00  0.00    +0.000 C 
BRANCH  20  21
ATOM     21  C   UNL     1       3.205   6.532  17.863  0.00  0.00    +0.000 A 
ATOM     22  N   UNL     1       2.288   5.646  18.133  0.00  0.00    +0.000 NA
ATOM     23  N   UNL     1       2.682   4.365  18.364  0.00  0.00    +0.000 N 
ATOM     24  C   UNL     1       3.975   3.914  18.414  0.00  0.00    +0.000 A 
ATOM     25  O   UNL     1       4.258   2.757  18.702  0.00  0.00    +0.000 OA
ATOM     26  C   UNL     1       5.018   4.899  18.079  0.00  0.00    +0.000 A 
ATOM     27  C   UNL     1       6.364   4.516  18.053  0.00  0.00    +0.000 A 
ATOM     28  C   UNL     1       7.341   5.441  17.692  0.00  0.00    +0.000 A 
ATOM     29  C   UNL     1       6.974   6.739  17.347  0.00  0.00    +0.000 A 
ATOM     30  C   UNL     1       5.632   7.122  17.383  0.00  0.00    +0.000 A 
ATOM     31  C   UNL     1       4.646   6.205  17.766  0.00  0.00    +0.000 A 
ATOM     32  H   UNL     1       1.947   3.696  18.574  0.00  0.00    +0.000 HD
ENDBRANCH  20  21
ENDBRANCH   3  20
TORSDOF 3
ENDMDL
MODEL 2
REMARK VINA RESULT:      -8.9      1.230      2.095
REMARK  Name = 
REMARK  4 active torsions:
REMARK  status: ('A' for Active; 'I' for Inactive)
REMARK    1  A    between atoms: C_1  and  C_2
REMARK    2  A    between atoms: C_9  and  C_11
REMARK    3  A    between atoms: C_13  and  C_14
REMARK    4  A    between atoms: C_14  and  C_15
REMARK                            x       y       z     vdW  Elec       q    Type
REMARK                         _______ _______ _______ _____ _____    ______ ____
ROOT
ATOM      1  C   UNL     1       0.018   9.756  19.492  0.00  0.00    +0.000 A 
ATOM      2  C   UNL     1       0.809   9.371  18.392  0.00  0.00    +0.000 A 
ATOM      3  C   UNL     1       1.850   8.431  18.545  0.00  0.00    +0.000 A 
ATOM      4  C   UNL     1       2.164   7.966  19.826  0.00  0.00    +0.000 A 
ATOM      5  C   UNL     1       1.348   8.291  20.900  0.00  0.00    +0.000 A 
ATOM      6  C   UNL     1       0.242   9.111  20.699  0.00  0.00    +0.000 A 
ATOM      7  F   UNL     1      -0.637   9.188  21.694  0.00  0.00    +0.000 F 
ENDROOT
BRANCH   1  16
ATOM      8  C   UNL     1      -3.086  14.438  24.348  0.00  0.00    +0.000 C 
ATOM      9  C   UNL     1      -1.760  14.066  23.741  0.00  0.00    +0.000 C 
ATOM     10  O   UNL     1      -0.724  14.545  24.206  0.00  0.00    +0.000 OA
ATOM     11  N   UNL     1      -1.760  13.158  22.689  0.00  0.00    +0.000 N 
ATOM     12  C   UNL     1      -2.951  12.509  22.130  0.00  0.00    +0.000 C 
ATOM     13  C   UNL     1      -3.316  13.013  20.739  0.00  0.00    +0.000 C 
ATOM     14  C   UNL     1      -2.238  12.892  19.659  0.00  0.00    +0.000 C 
ATOM     15  N   UNL     1      -1.143  11.968  19.963  0.00  0.00    +0.000 N 
ATOM     16  C   UNL     1      -1.093  10.736  19.288  0.00  0.00    +0.000 C 
ATOM     17  O   UNL     1      -1.940  10.420  18.449  0.00  0.00    +0.000 OA
ATOM     18  C   UNL     1      -0.112  12.525  20.855  0.00  0.00    +0.000 C 
ATOM     19  C   UNL     1      -0.477  12.545  22.349  0.00  0.00    +0.000 C 
ENDBRANCH   1  16
BRANCH   3  20
ATOM     20  C   UNL     1       2.603   7.864  17.362  0.00  0.00    +0.000 C 
BRANCH  20  21
ATOM     21  C   UNL     1       3.609   6.795  17.747  0.00  0.00    +0.000 A 
ATOM     22  N   UNL     1       4.846   7.176  17.898  0.00  0.00    +0.000 NA
ATOM     23  N   UNL     1       5.775   6.232  18.205  0.00  0.00    +0.000 N 
ATOM     24  C   UNL     1       5.554   4.883  18.302  0.00  0.00    +0.000 A 
ATOM     25  O   UNL     1       6.458   4.082  18.508  0.00  0.00    +0.000 OA
ATOM     26  C   UNL     1       4.155   4.444  18.164  0.00  0.00    +0.000 A 
ATOM     27  C   UNL     1       3.826   3.090  18.301  0.00  0.00    +0.000 A 
ATOM     28  C   UNL     1       2.496   2.687  18.215  0.00  0.00    +0.000 A 
ATOM     29  C   UNL     1       1.497   3.634  18.004  0.00  0.00    +0.000 A 
ATOM     30  C   UNL     1       1.827   4.983  17.859  0.00  0.00    +0.000 A 
ATOM     31  C   UNL     1       3.164   5.393  17.923  0.00  0.00    +0.000 A 
ATOM     32  H   UNL     1       6.732   6.557  18.314  0.00  0.00    +0.000 HD
ENDBRANCH  20  21
ENDBRANCH   3  20
TORSDOF 3
ENDMDL
MODEL 3
REMARK VINA RESULT:      -8.9      2.216      3.079
REMARK  Name = 
REMARK  4 active torsions:
REMARK  status: ('A' for Active; 'I' for Inactive)
REMARK    1  A    between atoms: C_1  and  C_2
REMARK    2  A    between atoms: C_9  and  C_11
REMARK    3  A    between atoms: C_13  and  C_14
REMARK    4  A    between atoms: C_14  and  C_15
REMARK                            x       y       z     vdW  Elec       q    Type
REMARK                         _______ _______ _______ _____ _____    ______ ____
ROOT
ATOM      1  C   UNL     1       0.866   9.588  19.215  0.00  0.00    +0.000 A 
ATOM      2  C   UNL     1       1.719   8.872  18.353  0.00  0.00    +0.000 A 
ATOM      3  C   UNL     1       2.368   7.698  18.791  0.00  0.00    +0.000 A 
ATOM      4  C   UNL     1       2.243   7.310  20.128  0.00  0.00    +0.000 A 
ATOM      5  C   UNL     1       1.354   7.973  20.962  0.00  0.00    +0.000 A 
ATOM      6  C   UNL     1       0.619   9.046  20.467  0.00  0.00    +0.000 A 
ATOM      7  F   UNL     1      -0.387   9.482  21.220  0.00  0.00    +0.000 F 
ENDROOT
BRANCH   1  16
ATOM      8  C   UNL     1      -0.005  16.195  22.492  0.00  0.00    +0.000 C 
ATOM      9  C   UNL     1       1.053  15.215  22.060  0.00  0.00    +0.000 C 
ATOM     10  O   UNL     1       2.220  15.386  22.418  0.00  0.00    +0.000 OA
ATOM     11  N   UNL     1       0.655  14.125  21.296  0.00  0.00    +0.000 N 
ATOM     12  C   UNL     1      -0.723  13.834  20.889  0.00  0.00    +0.000 C 
ATOM     13  C   UNL     1      -0.971  14.046  19.400  0.00  0.00    +0.000 C 
ATOM     14  C   UNL     1      -0.083  13.254  18.436  0.00  0.00    +0.000 C 
ATOM     15  N   UNL     1       0.620  12.110  19.022  0.00  0.00    +0.000 N 
ATOM     16  C   UNL     1       0.175  10.814  18.710  0.00  0.00    +0.000 C 
ATOM     17  O   UNL     1      -0.782  10.619  17.956  0.00  0.00    +0.000 OA
ATOM     18  C   UNL     1       1.838  12.468  19.768  0.00  0.00    +0.000 C 
ATOM     19  C   UNL     1       1.603  13.017  21.185  0.00  0.00    +0.000 C 
ENDBRANCH   1  16
BRANCH   3  20
ATOM     20  C   UNL     1       3.149   6.810  17.847  0.00  0.00    +0.000 C 
BRANCH  20  21
ATOM     21  C   UNL     1       3.643   5.531  18.497  0.00  0.00    +0.000 A 
ATOM     22  N   UNL     1       4.876   5.522  18.917  0.00  0.00    +0.000 NA
ATOM     23  N   UNL     1       5.358   4.376  19.468  0.00  0.00    +0.000 N 
ATOM     24  C   UNL     1       4.689   3.182  19.563  0.00  0.00    +0.000 A 
ATOM     25  O   UNL     1       5.215   2.168  20.005  0.00  0.00    +0.000 OA
ATOM     26  C   UNL     1       3.285   3.190  19.120  0.00  0.00    +0.000 A 
ATOM     27  C   UNL     1       2.508   2.030  19.229  0.00  0.00    +0.000 A 
ATOM     28  C   UNL     1       1.168   2.056  18.851  0.00  0.00    +0.000 A 
ATOM     29  C   UNL     1       0.603   3.236  18.377  0.00  0.00    +0.000 A 
ATOM     30  C   UNL     1       1.382   4.390  18.260  0.00  0.00    +0.000 A 
ATOM     31  C   UNL     1       2.735   4.367  18.618  0.00  0.00    +0.000 A 
ATOM     32  H   UNL     1       6.323   4.396  19.785  0.00  0.00    +0.000 HD
ENDBRANCH  20  21
ENDBRANCH   3  20
TORSDOF 3
ENDMDL
MODEL 4
REMARK VINA RESULT:      -8.7      1.593      2.569
REMARK  Name = 
REMARK  4 active torsions:
REMARK  status: ('A' for Active; 'I' for Inactive)
REMARK    1  A    between atoms: C_1  and  C_2
REMARK    2  A    between atoms: C_9  and  C_11
REMARK    3  A    between atoms: C_13  and  C_14
REMARK    4  A    between atoms: C_14  and  C_15
REMARK                            x       y       z     vdW  Elec       q    Type
REMARK                         _______ _______ _______ _____ _____    ______ ____
ROOT
ATOM      1  C   UNL     1       0.610   9.410  19.424  0.00  0.00    +0.000 A 
ATOM      2  C   UNL     1       1.531   8.800  18.551  0.00  0.00    +0.000 A 
ATOM      3  C   UNL     1       2.319   7.710  18.979  0.00  0.00    +0.000 A 
ATOM      4  C   UNL     1       2.257   7.310  20.318  0.00  0.00    +0.000 A 
ATOM      5  C   UNL     1       1.306   7.864  21.163  0.00  0.00    +0.000 A 
ATOM      6  C   UNL     1       0.444   8.844  20.678  0.00  0.00    +0.000 A 
ATOM      7  F   UNL     1      -0.598   9.158  21.443  0.00  0.00    +0.000 F 
ENDROOT
BRANCH   1  16
ATOM      8  C   UNL     1      -3.012  14.624  23.276  0.00  0.00    +0.000 C 
ATOM      9  C   UNL     1      -1.641  14.037  23.074  0.00  0.00    +0.000 C 
ATOM     10  O   UNL     1      -0.725  14.357  23.834  0.00  0.00    +0.000 OA
ATOM     11  N   UNL     1      -1.474  13.117  22.046  0.00  0.00    +0.000 N 
ATOM     12  C   UNL     1      -2.535  12.650  21.147  0.00  0.00    +0.000 C 
ATOM     13  C   UNL     1      -2.393  13.174  19.723  0.00  0.00    +0.000 C 
ATOM     14  C   UNL     1      -1.079  12.863  19.003  0.00  0.00    +0.000 C 
ATOM     15  N   UNL     1      -0.279  11.786  19.590  0.00  0.00    +0.000 N 
ATOM     16  C   UNL     1      -0.226  10.547  18.929  0.00  0.00    +0.000 C 
ATOM     17  O   UNL     1      -0.829  10.349  17.871  0.00  0.00    +0.000 OA
ATOM     18  C   UNL     1       0.519  12.195  20.759  0.00  0.00    +0.000 C 
ATOM     19  C   UNL     1      -0.259  12.304  22.080  0.00  0.00    +0.000 C 
ENDBRANCH   1  16
BRANCH   3  20
ATOM     20  C   UNL     1       3.187   6.920  18.024  0.00  0.00    +0.000 C 
BRANCH  20  21
ATOM     21  C   UNL     1       3.676   5.607  18.606  0.00  0.00    +0.000 A 
ATOM     22  N   UNL     1       4.905   5.574  19.038  0.00  0.00    +0.000 NA
ATOM     23  N   UNL     1       5.383   4.399  19.527  0.00  0.00    +0.000 N 
ATOM     24  C   UNL     1       4.715   3.202  19.547  0.00  0.00    +0.000 A 
ATOM     25  O   UNL     1       5.238   2.164  19.936  0.00  0.00    +0.000 OA
ATOM     26  C   UNL     1       3.315   3.233  19.091  0.00  0.00    +0.000 A 
ATOM     27  C   UNL     1       2.539   2.068  19.125  0.00  0.00    +0.000 A 
ATOM     28  C   UNL     1       1.203   2.114  18.736  0.00  0.00    +0.000 A 
ATOM     29  C   UNL     1       0.641   3.320  18.324  0.00  0.00    +0.000 A 
ATOM     30  C   UNL     1       1.419   4.479  18.282  0.00  0.00    +0.000 A 
ATOM     31  C   UNL     1       2.769   4.437  18.651  0.00  0.00    +0.000 A 
ATOM     32  H   UNL     1       6.344   4.402  19.855  0.00  0.00    +0.000 HD
ENDBRANCH  20  21
ENDBRANCH   3  20
TORSDOF 3
ENDMDL
MODEL 5
REMARK VINA RESULT:      -8.7      2.333      2.648
REMARK  Name = 
REMARK  4 active torsions:
REMARK  status: ('A' for Active; 'I' for Inactive)
REMARK    1  A    between atoms: C_1  and  C_2
REMARK    2  A    between atoms: C_9  and  C_11
REMARK    3  A    between atoms: C_13  and  C_14
REMARK    4  A    between atoms: C_14  and  C_15
REMARK                            x       y       z     vdW  Elec       q    Type
REMARK                         _______ _______ _______ _____ _____    ______ ____
ROOT
ATOM      1  C   UNL     1       0.608   9.960  19.277  0.00  0.00    +0.000 A 
ATOM      2  C   UNL     1       1.326   9.287  18.270  0.00  0.00    +0.000 A 
ATOM      3  C   UNL     1       2.027   8.096  18.555  0.00  0.00    +0.000 A 
ATOM      4  C   UNL     1       2.096   7.648  19.877  0.00  0.00    +0.000 A 
ATOM      5  C   UNL     1       1.339   8.269  20.860  0.00  0.00    +0.000 A 
ATOM      6  C   UNL     1       0.543   9.361  20.526  0.00  0.00    +0.000 A 
ATOM      7  F   UNL     1      -0.342   9.759  21.435  0.00  0.00    +0.000 F 
ENDROOT
BRANCH   1  16
ATOM      8  C   UNL     1       1.975  16.989  21.242  0.00  0.00    +0.000 C 
ATOM      9  C   UNL     1       2.604  15.805  20.559  0.00  0.00    +0.000 C 
ATOM     10  O   UNL     1       3.805  15.831  20.284  0.00  0.00    +0.000 OA
ATOM     11  N   UNL     1       1.799  14.703  20.299  0.00  0.00    +0.000 N 
ATOM     12  C   UNL     1       0.381  14.587  20.653  0.00  0.00    +0.000 C 
ATOM     13  C   UNL     1      -0.550  14.640  19.448  0.00  0.00    +0.000 C 
ATOM     14  C   UNL     1      -0.315  13.598  18.351  0.00  0.00    +0.000 C 
ATOM     15  N   UNL     1       0.494  12.442  18.743  0.00  0.00    +0.000 N 
ATOM     16  C   UNL     1      -0.145  11.205  18.933  0.00  0.00    +0.000 C 
ATOM     17  O   UNL     1      -1.361  11.070  18.773  0.00  0.00    +0.000 OA
ATOM     18  C   UNL     1       1.945  12.693  18.743  0.00  0.00    +0.000 C 
ATOM     19  C   UNL     1       2.481  13.453  19.968  0.00  0.00    +0.000 C 
ENDBRANCH   1  16
BRANCH   3  20
ATOM     20  C   UNL     1       2.661   7.255  17.468  0.00  0.00    +0.000 C 
BRANCH  20  21
ATOM     21  C   UNL     1       3.399   6.042  18.003  0.00  0.00    +0.000 A 
ATOM     22  N   UNL     1       2.669   5.058  18.449  0.00  0.00    +0.000 NA
ATOM     23  N   UNL     1       3.303   3.974  18.971  0.00  0.00    +0.000 N 
ATOM     24  C   UNL     1       4.656   3.837  19.146  0.00  0.00    +0.000 A 
ATOM     25  O   UNL     1       5.152   2.859  19.694  0.00  0.00    +0.000 OA
ATOM     26  C   UNL     1       5.492   4.928  18.618  0.00  0.00    +0.000 A 
ATOM     27  C   UNL     1       6.887   4.850  18.705  0.00  0.00    +0.000 A 
ATOM     28  C   UNL     1       7.673   5.863  18.162  0.00  0.00    +0.000 A 
ATOM     29  C   UNL     1       7.069   6.944  17.526  0.00  0.00    +0.000 A 
ATOM     30  C   UNL     1       5.677   7.025  17.448  0.00  0.00    +0.000 A 
ATOM     31  C   UNL     1       4.879   6.021  18.010  0.00  0.00    +0.000 A 
ATOM     32  H   UNL     1       2.710   3.224  19.313  0.00  0.00    +0.000 HD
ENDBRANCH  20  21
ENDBRANCH   3  20
TORSDOF 3
ENDMDL
MODEL 6
REMARK VINA RESULT:      -8.6      2.488      9.536
REMARK  Name = 
REMARK  4 active torsions:
REMARK  status: ('A' for Active; 'I' for Inactive)
REMARK    1  A    between atoms: C_1  and  C_2
REMARK    2  A    between atoms: C_9  and  C_11
REMARK    3  A    between atoms: C_13  and  C_14
REMARK    4  A    between atoms: C_14  and  C_15
REMARK                            x       y       z     vdW  Elec       q    Type
REMARK                         _______ _______ _______ _____ _____    ______ ____
ROOT
ATOM      1  C   UNL     1       2.029   6.274  19.425  0.00  0.00    +0.000 A 
ATOM      2  C   UNL     1       1.933   7.371  18.548  0.00  0.00    +0.000 A 
ATOM      3  C   UNL     1       1.531   8.639  19.018  0.00  0.00    +0.000 A 
ATOM      4  C   UNL     1       1.120   8.773  20.348  0.00  0.00    +0.000 A 
ATOM      5  C   UNL     1       1.275   7.714  21.231  0.00  0.00    +0.000 A 
ATOM      6  C   UNL     1       1.806   6.511  20.773  0.00  0.00    +0.000 A 
ATOM      7  F   UNL     1       2.162   5.623  21.697  0.00  0.00    +0.000 F 
ENDROOT
BRANCH   1  16
ATOM      8  C   UNL     1       7.055   4.766  14.170  0.00  0.00    +0.000 C 
ATOM      9  C   UNL     1       6.891   5.482  15.484  0.00  0.00    +0.000 C 
ATOM     10  O   UNL     1       7.793   6.216  15.891  0.00  0.00    +0.000 OA
ATOM     11  N   UNL     1       5.696   5.309  16.172  0.00  0.00    +0.000 N 
ATOM     12  C   UNL     1       4.564   4.498  15.714  0.00  0.00    +0.000 C 
ATOM     13  C   UNL     1       4.372   3.218  16.519  0.00  0.00    +0.000 C 
ATOM     14  C   UNL     1       4.176   3.378  18.028  0.00  0.00    +0.000 C 
ATOM     15  N   UNL     1       3.804   4.722  18.476  0.00  0.00    +0.000 N 
ATOM     16  C   UNL     1       2.483   4.951  18.897  0.00  0.00    +0.000 C 
ATOM     17  O   UNL     1       1.638   4.052  18.904  0.00  0.00    +0.000 OA
ATOM     18  C   UNL     1       4.935   5.660  18.576  0.00  0.00    +0.000 C 
ATOM     19  C   UNL     1       5.409   6.262  17.243  0.00  0.00    +0.000 C 
ENDBRANCH   1  16
BRANCH   3  20
ATOM     20  C   UNL     1       1.584   9.875  18.146  0.00  0.00    +0.000 C 
BRANCH  20  21
ATOM     21  C   UNL     1       0.636  10.969  18.600  0.00  0.00    +0.000 A 
ATOM     22  N   UNL     1       1.156  11.962  19.265  0.00  0.00    +0.000 NA
ATOM     23  N   UNL     1       0.324  12.937  19.719  0.00  0.00    +0.000 N 
ATOM     24  C   UNL     1      -1.042  12.948  19.609  0.00  0.00    +0.000 A 
ATOM     25  O   UNL     1      -1.734  13.827  20.109  0.00  0.00    +0.000 OA
ATOM     26  C   UNL     1      -1.639  11.849  18.832  0.00  0.00    +0.000 A 
ATOM     27  C   UNL     1      -3.023  11.806  18.622  0.00  0.00    +0.000 A 
ATOM     28  C   UNL     1      -3.575  10.789  17.848  0.00  0.00    +0.000 A 
ATOM     29  C   UNL     1      -2.749   9.825  17.278  0.00  0.00    +0.000 A 
ATOM     30  C   UNL     1      -1.371   9.863  17.495  0.00  0.00    +0.000 A 
ATOM     31  C   UNL     1      -0.809  10.870  18.289  0.00  0.00    +0.000 A 
ATOM     32  H   UNL     1       0.757  13.697  20.236  0.00  0.00    +0.000 HD
ENDBRANCH  20  21
ENDBRANCH   3  20
TORSDOF 3
ENDMDL
MODEL 7
REMARK VINA RESULT:      -8.6      2.556      3.438
REMARK  Name = 
REMARK  4 active torsions:
REMARK  status: ('A' for Active; 'I' for Inactive)
REMARK    1  A    between atoms: C_1  and  C_2
REMARK    2  A    between atoms: C_9  and  C_11
REMARK    3  A    between atoms: C_13  and  C_14
REMARK    4  A    between atoms: C_14  and  C_15
REMARK                            x       y       z     vdW  Elec       q    Type
REMARK                         _______ _______ _______ _____ _____    ______ ____
ROOT
ATOM      1  C   UNL     1       0.536  10.087  19.462  0.00  0.00    +0.000 A 
ATOM      2  C   UNL     1       1.145   9.437  18.372  0.00  0.00    +0.000 A 
ATOM      3  C   UNL     1       1.839   8.221  18.551  0.00  0.00    +0.000 A 
ATOM      4  C   UNL     1       2.012   7.721  19.845  0.00  0.00    +0.000 A 
ATOM      5  C   UNL     1       1.359   8.321  20.913  0.00  0.00    +0.000 A 
ATOM      6  C   UNL     1       0.566   9.443  20.690  0.00  0.00    +0.000 A 
ATOM      7  F   UNL     1      -0.226   9.825  21.688  0.00  0.00    +0.000 F 
ENDROOT
BRANCH   1  16
ATOM      8  C   UNL     1       2.412  17.046  21.250  0.00  0.00    +0.000 C 
ATOM      9  C   UNL     1       2.898  15.847  20.482  0.00  0.00    +0.000 C 
ATOM     10  O   UNL     1       4.050  15.834  20.043  0.00  0.00    +0.000 OA
ATOM     11  N   UNL     1       2.026  14.776  20.330  0.00  0.00    +0.000 N 
ATOM     12  C   UNL     1       0.667  14.706  20.877  0.00  0.00    +0.000 C 
ATOM     13  C   UNL     1      -0.419  14.803  19.812  0.00  0.00    +0.000 C 
ATOM     14  C   UNL     1      -0.375  13.764  18.689  0.00  0.00    +0.000 C 
ATOM     15  N   UNL     1       0.438  12.577  18.961  0.00  0.00    +0.000 N 
ATOM     16  C   UNL     1      -0.212  11.361  19.232  0.00  0.00    +0.000 C 
ATOM     17  O   UNL     1      -1.443  11.270  19.240  0.00  0.00    +0.000 OA
ATOM     18  C   UNL     1       1.884  12.777  18.760  0.00  0.00    +0.000 C 
ATOM     19  C   UNL     1       2.611  13.506  19.902  0.00  0.00    +0.000 C 
ENDBRANCH   1  16
BRANCH   3  20
ATOM     20  C   UNL     1       2.353   7.408  17.383  0.00  0.00    +0.000 C 
BRANCH  20  21
ATOM     21  C   UNL     1       3.457   6.440  17.767  0.00  0.00    +0.000 A 
ATOM     22  N   UNL     1       4.661   6.928  17.864  0.00  0.00    +0.000 NA
ATOM     23  N   UNL     1       5.677   6.076  18.168  0.00  0.00    +0.000 N 
ATOM     24  C   UNL     1       5.574   4.717  18.313  0.00  0.00    +0.000 A 
ATOM     25  O   UNL     1       6.549   4.002  18.513  0.00  0.00    +0.000 OA
ATOM     26  C   UNL     1       4.213   4.159  18.237  0.00  0.00    +0.000 A 
ATOM     27  C   UNL     1       4.005   2.787  18.426  0.00  0.00    +0.000 A 
ATOM     28  C   UNL     1       2.712   2.272  18.398  0.00  0.00    +0.000 A 
ATOM     29  C   UNL     1       1.630   3.124  18.192  0.00  0.00    +0.000 A 
ATOM     30  C   UNL     1       1.840   4.490  17.995  0.00  0.00    +0.000 A 
ATOM     31  C   UNL     1       3.139   5.013  18.000  0.00  0.00    +0.000 A 
ATOM     32  H   UNL     1       6.605   6.483  18.235  0.00  0.00    +0.000 HD
ENDBRANCH  20  21
ENDBRANCH   3  20
TORSDOF 3
ENDMDL
MODEL 8
REMARK VINA RESULT:      -8.3      3.293      4.270
REMARK  Name = 
REMARK  4 active torsions:
REMARK  status: ('A' for Active; 'I' for Inactive)
REMARK    1  A    between atoms: C_1  and  C_2
REMARK    2  A    between atoms: C_9  and  C_11
REMARK    3  A    between atoms: C_13  and  C_14
REMARK    4  A    between atoms: C_14  and  C_15
REMARK                            x       y       z     vdW  Elec       q    Type
REMARK                         _______ _______ _______ _____ _____    ______ ____
ROOT
ATOM      1  C   UNL     1       0.219  11.613  19.774  0.00  0.00    +0.000 A 
ATOM      2  C   UNL     1       1.303  10.802  19.387  0.00  0.00    +0.000 A 
ATOM      3  C   UNL     1       1.150   9.822  18.383  0.00  0.00    +0.000 A 
ATOM      4  C   UNL     1      -0.121   9.585  17.851  0.00  0.00    +0.000 A 
ATOM      5  C   UNL     1      -1.177  10.424  18.180  0.00  0.00    +0.000 A 
ATOM      6  C   UNL     1      -0.968  11.474  19.070  0.00  0.00    +0.000 A 
ATOM      7  F   UNL     1      -1.932  12.385  19.158  0.00  0.00    +0.000 F 
ENDROOT
BRANCH   1  16
ATOM      8  C   UNL     1       5.053  17.247  19.935  0.00  0.00    +0.000 C 
ATOM      9  C   UNL     1       3.946  16.658  19.103  0.00  0.00    +0.000 C 
ATOM     10  O   UNL     1       3.743  17.092  17.968  0.00  0.00    +0.000 OA
ATOM     11  N   UNL     1       3.214  15.609  19.646  0.00  0.00    +0.000 N 
ATOM     12  C   UNL     1       3.443  15.009  20.965  0.00  0.00    +0.000 C 
ATOM     13  C   UNL     1       2.352  15.337  21.977  0.00  0.00    +0.000 C 
ATOM     14  C   UNL     1       0.921  14.950  21.594  0.00  0.00    +0.000 C 
ATOM     15  N   UNL     1       0.801  13.975  20.508  0.00  0.00    +0.000 N 
ATOM     16  C   UNL     1       0.422  12.659  20.822  0.00  0.00    +0.000 C 
ATOM     17  O   UNL     1       0.185  12.310  21.982  0.00  0.00    +0.000 OA
ATOM     18  C   UNL     1       0.950  14.551  19.160  0.00  0.00    +0.000 C 
ATOM     19  C   UNL     1       2.397  14.826  18.720  0.00  0.00    +0.000 C 
ENDBRANCH   1  16
BRANCH   3  20
ATOM     20  C   UNL     1       2.327   9.055  17.821  0.00  0.00    +0.000 C 
BRANCH  20  21
ATOM     21  C   UNL     1       2.557   7.721  18.508  0.00  0.00    +0.000 A 
ATOM     22  N   UNL     1       1.888   7.500  19.604  0.00  0.00    +0.000 NA
ATOM     23  N   UNL     1       2.104   6.329  20.262  0.00  0.00    +0.000 N 
ATOM     24  C   UNL     1       3.023   5.371  19.923  0.00  0.00    +0.000 A 
ATOM     25  O   UNL     1       3.215   4.373  20.608  0.00  0.00    +0.000 OA
ATOM     26  C   UNL     1       3.762   5.595  18.669  0.00  0.00    +0.000 A 
ATOM     27  C   UNL     1       4.684   4.644  18.217  0.00  0.00    +0.000 A 
ATOM     28  C   UNL     1       5.346   4.840  17.008  0.00  0.00    +0.000 A 
ATOM     29  C   UNL     1       5.081   5.976  16.248  0.00  0.00    +0.000 A 
ATOM     30  C   UNL     1       4.167   6.929  16.705  0.00  0.00    +0.000 A 
ATOM     31  C   UNL     1       3.514   6.750  17.930  0.00  0.00    +0.000 A 
ATOM     32  H   UNL     1       1.571   6.184  21.114  0.00  0.00    +0.000 HD
ENDBRANCH  20  21
ENDBRANCH   3  20
TORSDOF 3
ENDMDL
MODEL 9
REMARK VINA RESULT:      -8.3      2.287      2.792
REMARK  Name = 
REMARK  4 active torsions:
REMARK  status: ('A' for Active; 'I' for Inactive)
REMARK    1  A    between atoms: C_1  and  C_2
REMARK    2  A    between atoms: C_9  and  C_11
REMARK    3  A    between atoms: C_13  and  C_14
REMARK    4  A    between atoms: C_14  and  C_15
REMARK                            x       y       z     vdW  Elec       q    Type
REMARK                         _______ _______ _______ _____ _____    ______ ____
ROOT
ATOM      1  C   UNL     1       0.257  11.621  19.350  0.00  0.00    +0.000 A 
ATOM      2  C   UNL     1       1.348  10.735  19.269  0.00  0.00    +0.000 A 
ATOM      3  C   UNL     1       1.287   9.585  18.453  0.00  0.00    +0.000 A 
ATOM      4  C   UNL     1       0.086   9.272  17.808  0.00  0.00    +0.000 A 
ATOM      5  C   UNL     1      -0.969  10.174  17.832  0.00  0.00    +0.000 A 
ATOM      6  C   UNL     1      -0.834  11.370  18.532  0.00  0.00    +0.000 A 
ATOM      7  F   UNL     1      -1.764  12.297  18.319  0.00  0.00    +0.000 F 
ENDROOT
BRANCH   1  16
ATOM      8  C   UNL     1      -4.681  14.528  24.073  0.00  0.00    +0.000 C 
ATOM      9  C   UNL     1      -3.923  13.261  23.781  0.00  0.00    +0.000 C 
ATOM     10  O   UNL     1      -4.212  12.228  24.386  0.00  0.00    +0.000 OA
ATOM     11  N   UNL     1      -2.939  13.305  22.801  0.00  0.00    +0.000 N 
ATOM     12  C   UNL     1      -2.588  14.486  22.005  0.00  0.00    +0.000 C 
ATOM     13  C   UNL     1      -1.232  15.078  22.368  0.00  0.00    +0.000 C 
ATOM     14  C   UNL     1      -0.024  14.143  22.267  0.00  0.00    +0.000 C 
ATOM     15  N   UNL     1      -0.232  12.930  21.473  0.00  0.00    +0.000 N 
ATOM     16  C   UNL     1       0.366  12.843  20.204  0.00  0.00    +0.000 C 
ATOM     17  O   UNL     1       1.061  13.756  19.750  0.00  0.00    +0.000 OA
ATOM     18  C   UNL     1      -0.939  11.854  22.189  0.00  0.00    +0.000 C 
ATOM     19  C   UNL     1      -2.464  12.022  22.285  0.00  0.00    +0.000 C 
ENDBRANCH   1  16
BRANCH   3  20
ATOM     20  C   UNL     1       2.494   8.708  18.206  0.00  0.00    +0.000 C 
BRANCH  20  21
ATOM     21  C   UNL     1       2.465   7.412  18.994  0.00  0.00    +0.000 A 
ATOM     22  N   UNL     1       1.780   7.411  20.103  0.00  0.00    +0.000 NA
ATOM     23  N   UNL     1       1.769   6.275  20.850  0.00  0.00    +0.000 N 
ATOM     24  C   UNL     1       2.477   5.131  20.589  0.00  0.00    +0.000 A 
ATOM     25  O   UNL     1       2.476   4.170  21.350  0.00  0.00    +0.000 OA
ATOM     26  C   UNL     1       3.229   5.108  19.323  0.00  0.00    +0.000 A 
ATOM     27  C   UNL     1       3.939   3.961  18.948  0.00  0.00    +0.000 A 
ATOM     28  C   UNL     1       4.611   3.930  17.729  0.00  0.00    +0.000 A 
ATOM     29  C   UNL     1       4.565   5.035  16.883  0.00  0.00    +0.000 A 
ATOM     30  C   UNL     1       3.864   6.181  17.262  0.00  0.00    +0.000 A 
ATOM     31  C   UNL     1       3.204   6.229  18.496  0.00  0.00    +0.000 A 
ATOM     32  H   UNL     1       1.229   6.304  21.710  0.00  0.00    +0.000 HD
ENDBRANCH  20  21
ENDBRANCH   3  20
TORSDOF 3
ENDMDL
