MODEL 1
REMARK VINA RESULT:      -7.6      0.000      0.000
REMARK  Name = 
REMARK  1 active torsions:
REMARK  status: ('A' for Active; 'I' for Inactive)
REMARK    1  A    between atoms: C_4  and  C_5
REMARK                            x       y       z     vdW  Elec       q    Type
REMARK                         _______ _______ _______ _____ _____    ______ ____
ROOT
ATOM      1  O   UNL     1       2.623   2.299  17.843  0.00  0.00    +0.000 OA
ATOM      2  C   UNL     1       3.102   3.407  17.636  0.00  0.00    +0.000 C 
ATOM      3  C   UNL     1       2.593   4.583  18.331  0.00  0.00    +0.000 C 
ATOM      4  C   UNL     1       3.073   5.797  18.043  0.00  0.00    +0.000 C 
ATOM      5  O   UNL     1       4.109   6.000  17.159  0.00  0.00    +0.000 OA
ATOM      6  C   UNL     1       4.856   4.808  16.887  0.00  0.00    +0.000 C 
ATOM      7  C   UNL     1       5.637   5.014  15.577  0.00  0.00    +0.000 C 
ATOM      8  C   UNL     1       7.031   5.435  16.016  0.00  0.00    +0.000 C 
ATOM      9  C   UNL     1       7.273   4.579  17.243  0.00  0.00    +0.000 C 
ATOM     10  C   UNL     1       5.937   4.597  17.975  0.00  0.00    +0.000 C 
ATOM     11  O   UNL     1       4.069   3.626  16.727  0.00  0.00    +0.000 OA
ENDROOT
BRANCH   4  12
ATOM     12  C   UNL     1       2.479   7.021  18.623  0.00  0.00    +0.000 A 
ATOM     13  C   UNL     1       2.108   7.088  19.978  0.00  0.00    +0.000 A 
ATOM     14  C   UNL     1       1.469   8.219  20.496  0.00  0.00    +0.000 A 
ATOM     15  C   UNL     1       1.208   9.306  19.668  0.00  0.00    +0.000 A 
ATOM     16 CL   UNL     1       0.385  10.679  20.295  0.00  0.00    +0.000 Cl
ATOM     17  C   UNL     1       1.603   9.280  18.333  0.00  0.00    +0.000 A 
ATOM     18  C   UNL     1       2.241   8.146  17.815  0.00  0.00    +0.000 A 
ENDBRANCH   4  12
TORSDOF 1
ENDMDL
MODEL 2
REMARK VINA RESULT:      -7.6      1.159      1.170
REMARK  Name = 
REMARK  1 active torsions:
REMARK  status: ('A' for Active; 'I' for Inactive)
REMARK    1  A    between atoms: C_4  and  C_5
REMARK                            x       y       z     vdW  Elec       q    Type
REMARK                         _______ _______ _______ _____ _____    ______ ____
ROOT
ATOM      1  O   UNL     1       3.593   2.651  20.356  0.00  0.00    +0.000 OA
ATOM      2  C   UNL     1       3.777   3.542  19.536  0.00  0.00    +0.000 C 
ATOM      3  C   UNL     1       3.201   4.867  19.728  0.00  0.00    +0.000 C 
ATOM      4  C   UNL     1       3.348   5.809  18.791  0.00  0.00    +0.000 C 
ATOM      5  O   UNL     1       4.104   5.623  17.656  0.00  0.00    +0.000 OA
ATOM      6  C   UNL     1       5.003   4.512  17.758  0.00  0.00    +0.000 C 
ATOM      7  C   UNL     1       5.423   4.097  16.337  0.00  0.00    +0.000 C 
ATOM      8  C   UNL     1       6.763   4.781  16.110  0.00  0.00    +0.000 C 
ATOM      9  C   UNL     1       7.434   4.667  17.464  0.00  0.00    +0.000 C 
ATOM     10  C   UNL     1       6.313   4.948  18.457  0.00  0.00    +0.000 C 
ATOM     11  O   UNL     1       4.459   3.351  18.391  0.00  0.00    +0.000 OA
ENDROOT
BRANCH   4  12
ATOM     12  C   UNL     1       2.654   7.112  18.890  0.00  0.00    +0.000 A 
ATOM     13  C   UNL     1       1.989   7.504  20.065  0.00  0.00    +0.000 A 
ATOM     14  C   UNL     1       1.264   8.699  20.119  0.00  0.00    +0.000 A 
ATOM     15  C   UNL     1       1.212   9.527  19.003  0.00  0.00    +0.000 A 
ATOM     16 CL   UNL     1       0.287  10.976  19.057  0.00  0.00    +0.000 Cl
ATOM     17  C   UNL     1       1.898   9.182  17.841  0.00  0.00    +0.000 A 
ATOM     18  C   UNL     1       2.621   7.983  17.788  0.00  0.00    +0.000 A 
ENDBRANCH   4  12
TORSDOF 1
ENDMDL
MODEL 3
REMARK VINA RESULT:      -7.5      1.490      2.873
REMARK  Name = 
REMARK  1 active torsions:
REMARK  status: ('A' for Active; 'I' for Inactive)
REMARK    1  A    between atoms: C_4  and  C_5
REMARK                            x       y       z     vdW  Elec       q    Type
REMARK                         _______ _______ _______ _____ _____    ______ ____
ROOT
ATOM      1  O   UNL     1       5.833   5.930  15.692  0.00  0.00    +0.000 OA
ATOM      2  C   UNL     1       5.088   5.742  16.645  0.00  0.00    +0.000 C 
ATOM      3  C   UNL     1       4.131   6.762  17.058  0.00  0.00    +0.000 C 
ATOM      4  C   UNL     1       3.374   6.576  18.144  0.00  0.00    +0.000 C 
ATOM      5  O   UNL     1       3.385   5.408  18.873  0.00  0.00    +0.000 OA
ATOM      6  C   UNL     1       3.967   4.309  18.160  0.00  0.00    +0.000 C 
ATOM      7  C   UNL     1       4.371   3.230  19.180  0.00  0.00    +0.000 C 
ATOM      8  C   UNL     1       3.217   2.238  19.176  0.00  0.00    +0.000 C 
ATOM      9  C   UNL     1       2.820   2.186  17.714  0.00  0.00    +0.000 C 
ATOM     10  C   UNL     1       2.905   3.637  17.257  0.00  0.00    +0.000 C 
ATOM     11  O   UNL     1       5.137   4.631  17.403  0.00  0.00    +0.000 OA
ENDROOT
BRANCH   4  12
ATOM     12  C   UNL     1       2.502   7.649  18.671  0.00  0.00    +0.000 A 
ATOM     13  C   UNL     1       2.041   7.636  19.999  0.00  0.00    +0.000 A 
ATOM     14  C   UNL     1       1.149   8.608  20.463  0.00  0.00    +0.000 A 
ATOM     15  C   UNL     1       0.720   9.618  19.607  0.00  0.00    +0.000 A 
ATOM     16 CL   UNL     1      -0.409  10.789  20.165  0.00  0.00    +0.000 Cl
ATOM     17  C   UNL     1       1.196   9.676  18.299  0.00  0.00    +0.000 A 
ATOM     18  C   UNL     1       2.087   8.700  17.836  0.00  0.00    +0.000 A 
ENDBRANCH   4  12
TORSDOF 1
ENDMDL
MODEL 4
REMARK VINA RESULT:      -7.5      1.050      1.581
REMARK  Name = 
REMARK  1 active torsions:
REMARK  status: ('A' for Active; 'I' for Inactive)
REMARK    1  A    between atoms: C_4  and  C_5
REMARK                            x       y       z     vdW  Elec       q    Type
REMARK                         _______ _______ _______ _____ _____    ______ ____
ROOT
ATOM      1  O   UNL     1       3.110   3.023  17.470  0.00  0.00    +0.000 OA
ATOM      2  C   UNL     1       3.532   4.168  17.565  0.00  0.00    +0.000 C 
ATOM      3  C   UNL     1       2.720   5.216  18.173  0.00  0.00    +0.000 C 
ATOM      4  C   UNL     1       3.161   6.478  18.205  0.00  0.00    +0.000 C 
ATOM      5  O   UNL     1       4.411   6.844  17.759  0.00  0.00    +0.000 OA
ATOM      6  C   UNL     1       5.307   5.733  17.626  0.00  0.00    +0.000 C 
ATOM      7  C   UNL     1       6.459   6.149  16.695  0.00  0.00    +0.000 C 
ATOM      8  C   UNL     1       7.585   6.567  17.629  0.00  0.00    +0.000 C 
ATOM      9  C   UNL     1       7.477   5.563  18.759  0.00  0.00    +0.000 C 
ATOM     10  C   UNL     1       5.976   5.424  18.986  0.00  0.00    +0.000 C 
ATOM     11  O   UNL     1       4.725   4.551  17.073  0.00  0.00    +0.000 OA
ENDROOT
BRANCH   4  12
ATOM     12  C   UNL     1       2.303   7.585  18.681  0.00  0.00    +0.000 A 
ATOM     13  C   UNL     1       1.888   8.616  17.821  0.00  0.00    +0.000 A 
ATOM     14  C   UNL     1       1.149   9.702  18.300  0.00  0.00    +0.000 A 
ATOM     15  C   UNL     1       0.798   9.760  19.645  0.00  0.00    +0.000 A 
ATOM     16 CL   UNL     1      -0.076  11.115  20.242  0.00  0.00    +0.000 Cl
ATOM     17  C   UNL     1       1.161   8.729  20.508  0.00  0.00    +0.000 A 
ATOM     18  C   UNL     1       1.904   7.644  20.027  0.00  0.00    +0.000 A 
ENDBRANCH   4  12
TORSDOF 1
ENDMDL
MODEL 5
REMARK VINA RESULT:      -7.5      1.890      3.601
REMARK  Name = 
REMARK  1 active torsions:
REMARK  status: ('A' for Active; 'I' for Inactive)
REMARK    1  A    between atoms: C_4  and  C_5
REMARK                            x       y       z     vdW  Elec       q    Type
REMARK                         _______ _______ _______ _____ _____    ______ ____
ROOT
ATOM      1  O   UNL     1       5.732   4.556  17.815  0.00  0.00    +0.000 OA
ATOM      2  C   UNL     1       4.716   4.789  18.458  0.00  0.00    +0.000 C 
ATOM      3  C   UNL     1       4.015   6.059  18.315  0.00  0.00    +0.000 C 
ATOM      4  C   UNL     1       2.949   6.331  19.075  0.00  0.00    +0.000 C 
ATOM      5  O   UNL     1       2.408   5.421  19.956  0.00  0.00    +0.000 OA
ATOM      6  C   UNL     1       2.834   4.076  19.704  0.00  0.00    +0.000 C 
ATOM      7  C   UNL     1       2.588   3.245  20.976  0.00  0.00    +0.000 C 
ATOM      8  C   UNL     1       1.254   2.553  20.739  0.00  0.00    +0.000 C 
ATOM      9  C   UNL     1       1.312   2.202  19.265  0.00  0.00    +0.000 C 
ATOM     10  C   UNL     1       1.942   3.429  18.618  0.00  0.00    +0.000 C 
ATOM     11  O   UNL     1       4.216   3.933  19.369  0.00  0.00    +0.000 OA
ENDROOT
BRANCH   4  12
ATOM     12  C   UNL     1       2.306   7.663  19.058  0.00  0.00    +0.000 A 
ATOM     13  C   UNL     1       1.636   8.171  20.184  0.00  0.00    +0.000 A 
ATOM     14  C   UNL     1       0.959   9.394  20.130  0.00  0.00    +0.000 A 
ATOM     15  C   UNL     1       0.960  10.133  18.952  0.00  0.00    +0.000 A 
ATOM     16 CL   UNL     1       0.093  11.617  18.873  0.00  0.00    +0.000 Cl
ATOM     17  C   UNL     1       1.653   9.672  17.836  0.00  0.00    +0.000 A 
ATOM     18  C   UNL     1       2.328   8.445  17.891  0.00  0.00    +0.000 A 
ENDBRANCH   4  12
TORSDOF 1
ENDMDL
MODEL 6
REMARK VINA RESULT:      -7.5      1.107      1.156
REMARK  Name = 
REMARK  1 active torsions:
REMARK  status: ('A' for Active; 'I' for Inactive)
REMARK    1  A    between atoms: C_4  and  C_5
REMARK                            x       y       z     vdW  Elec       q    Type
REMARK                         _______ _______ _______ _____ _____    ______ ____
ROOT
ATOM      1  O   UNL     1       2.998   3.132  17.458  0.00  0.00    +0.000 OA
ATOM      2  C   UNL     1       3.446   4.266  17.564  0.00  0.00    +0.000 C 
ATOM      3  C   UNL     1       2.660   5.326  18.184  0.00  0.00    +0.000 C 
ATOM      4  C   UNL     1       3.130   6.577  18.227  0.00  0.00    +0.000 C 
ATOM      5  O   UNL     1       4.387   6.919  17.780  0.00  0.00    +0.000 OA
ATOM      6  C   UNL     1       5.256   5.790  17.634  0.00  0.00    +0.000 C 
ATOM      7  C   UNL     1       6.415   6.188  16.703  0.00  0.00    +0.000 C 
ATOM      8  C   UNL     1       7.553   6.571  17.638  0.00  0.00    +0.000 C 
ATOM      9  C   UNL     1       7.425   5.559  18.759  0.00  0.00    +0.000 C 
ATOM     10  C   UNL     1       5.922   5.451  18.989  0.00  0.00    +0.000 C 
ATOM     11  O   UNL     1       4.646   4.626  17.071  0.00  0.00    +0.000 OA
ENDROOT
BRANCH   4  12
ATOM     12  C   UNL     1       2.299   7.699  18.717  0.00  0.00    +0.000 A 
ATOM     13  C   UNL     1       1.900   7.786  20.062  0.00  0.00    +0.000 A 
ATOM     14  C   UNL     1       1.044   8.803  20.496  0.00  0.00    +0.000 A 
ATOM     15  C   UNL     1       0.590   9.757  19.592  0.00  0.00    +0.000 A 
ATOM     16 CL   UNL     1      -0.496  10.984  20.117  0.00  0.00    +0.000 Cl
ATOM     17  C   UNL     1       1.005   9.717  18.263  0.00  0.00    +0.000 A 
ATOM     18  C   UNL     1       1.860   8.696  17.829  0.00  0.00    +0.000 A 
ENDBRANCH   4  12
TORSDOF 1
ENDMDL
MODEL 7
REMARK VINA RESULT:      -7.4      1.014      1.519
REMARK  Name = 
REMARK  1 active torsions:
REMARK  status: ('A' for Active; 'I' for Inactive)
REMARK    1  A    between atoms: C_4  and  C_5
REMARK                            x       y       z     vdW  Elec       q    Type
REMARK                         _______ _______ _______ _____ _____    ______ ____
ROOT
ATOM      1  O   UNL     1       3.985   2.390  20.021  0.00  0.00    +0.000 OA
ATOM      2  C   UNL     1       4.013   3.324  19.229  0.00  0.00    +0.000 C 
ATOM      3  C   UNL     1       3.389   4.600  19.557  0.00  0.00    +0.000 C 
ATOM      4  C   UNL     1       3.362   5.589  18.657  0.00  0.00    +0.000 C 
ATOM      5  O   UNL     1       3.979   5.498  17.429  0.00  0.00    +0.000 OA
ATOM      6  C   UNL     1       4.946   4.444  17.365  0.00  0.00    +0.000 C 
ATOM      7  C   UNL     1       5.207   4.117  15.884  0.00  0.00    +0.000 C 
ATOM      8  C   UNL     1       6.465   4.894  15.528  0.00  0.00    +0.000 C 
ATOM      9  C   UNL     1       7.308   4.766  16.782  0.00  0.00    +0.000 C 
ATOM     10  C   UNL     1       6.306   4.933  17.917  0.00  0.00    +0.000 C 
ATOM     11  O   UNL     1       4.555   3.225  18.002  0.00  0.00    +0.000 OA
ENDROOT
BRANCH   4  12
ATOM     12  C   UNL     1       2.612   6.840  18.905  0.00  0.00    +0.000 A 
ATOM     13  C   UNL     1       2.467   7.820  17.908  0.00  0.00    +0.000 A 
ATOM     14  C   UNL     1       1.830   9.036  18.179  0.00  0.00    +0.000 A 
ATOM     15  C   UNL     1       1.313   9.278  19.448  0.00  0.00    +0.000 A 
ATOM     16 CL   UNL     1       0.567  10.788  19.792  0.00  0.00    +0.000 Cl
ATOM     17  C   UNL     1       1.407   8.305  20.440  0.00  0.00    +0.000 A 
ATOM     18  C   UNL     1       2.048   7.089  20.167  0.00  0.00    +0.000 A 
ENDBRANCH   4  12
TORSDOF 1
ENDMDL
MODEL 8
REMARK VINA RESULT:      -7.4      1.938      3.473
REMARK  Name = 
REMARK  1 active torsions:
REMARK  status: ('A' for Active; 'I' for Inactive)
REMARK    1  A    between atoms: C_4  and  C_5
REMARK                            x       y       z     vdW  Elec       q    Type
REMARK                         _______ _______ _______ _____ _____    ______ ____
ROOT
ATOM      1  O   UNL     1       6.625   4.782  18.764  0.00  0.00    +0.000 OA
ATOM      2  C   UNL     1       5.415   4.802  18.952  0.00  0.00    +0.000 C 
ATOM      3  C   UNL     1       4.648   6.026  18.757  0.00  0.00    +0.000 C 
ATOM      4  C   UNL     1       3.341   6.055  19.037  0.00  0.00    +0.000 C 
ATOM      5  O   UNL     1       2.637   4.939  19.433  0.00  0.00    +0.000 OA
ATOM      6  C   UNL     1       3.323   3.714  19.148  0.00  0.00    +0.000 C 
ATOM      7  C   UNL     1       2.720   2.606  20.030  0.00  0.00    +0.000 C 
ATOM      8  C   UNL     1       1.708   1.904  19.138  0.00  0.00    +0.000 C 
ATOM      9  C   UNL     1       2.396   1.894  17.788  0.00  0.00    +0.000 C 
ATOM     10  C   UNL     1       3.041   3.271  17.693  0.00  0.00    +0.000 C 
ATOM     11  O   UNL     1       4.729   3.736  19.402  0.00  0.00    +0.000 OA
ENDROOT
BRANCH   4  12
ATOM     12  C   UNL     1       2.568   7.315  18.989  0.00  0.00    +0.000 A 
ATOM     13  C   UNL     1       2.555   8.127  17.842  0.00  0.00    +0.000 A 
ATOM     14  C   UNL     1       1.891   9.358  17.836  0.00  0.00    +0.000 A 
ATOM     15  C   UNL     1       1.215   9.784  18.974  0.00  0.00    +0.000 A 
ATOM     16 CL   UNL     1       0.433  11.315  18.980  0.00  0.00    +0.000 Cl
ATOM     17  C   UNL     1       1.176   8.977  20.109  0.00  0.00    +0.000 A 
ATOM     18  C   UNL     1       1.845   7.746  20.114  0.00  0.00    +0.000 A 
ENDBRANCH   4  12
TORSDOF 1
ENDMDL
MODEL 9
REMARK VINA RESULT:      -7.4      1.892      3.781
REMARK  Name = 
REMARK  1 active torsions:
REMARK  status: ('A' for Active; 'I' for Inactive)
REMARK    1  A    between atoms: C_4  and  C_5
REMARK                            x       y       z     vdW  Elec       q    Type
REMARK                         _______ _______ _______ _____ _____    ______ ____
ROOT
ATOM      1  O   UNL     1       5.607   4.610  17.708  0.00  0.00    +0.000 OA
ATOM      2  C   UNL     1       4.613   4.865  18.377  0.00  0.00    +0.000 C 
ATOM      3  C   UNL     1       3.911   6.133  18.220  0.00  0.00    +0.000 C 
ATOM      4  C   UNL     1       2.872   6.431  19.008  0.00  0.00    +0.000 C 
ATOM      5  O   UNL     1       2.359   5.549  19.933  0.00  0.00    +0.000 OA
ATOM      6  C   UNL     1       2.773   4.196  19.707  0.00  0.00    +0.000 C 
ATOM      7  C   UNL     1       2.569   3.404  21.010  0.00  0.00    +0.000 C 
ATOM      8  C   UNL     1       1.226   2.710  20.840  0.00  0.00    +0.000 C 
ATOM      9  C   UNL     1       1.233   2.314  19.376  0.00  0.00    +0.000 C 
ATOM     10  C   UNL     1       1.844   3.520  18.671  0.00  0.00    +0.000 C 
ATOM     11  O   UNL     1       4.143   4.039  19.329  0.00  0.00    +0.000 OA
ENDROOT
BRANCH   4  12
ATOM     12  C   UNL     1       2.233   7.764  18.973  0.00  0.00    +0.000 A 
ATOM     13  C   UNL     1       2.352   8.607  17.854  0.00  0.00    +0.000 A 
ATOM     14  C   UNL     1       1.816   9.899  17.864  0.00  0.00    +0.000 A 
ATOM     15  C   UNL     1       1.137  10.357  18.989  0.00  0.00    +0.000 A 
ATOM     16 CL   UNL     1       0.514  11.960  19.016  0.00  0.00    +0.000 Cl
ATOM     17  C   UNL     1       0.968   9.525  20.093  0.00  0.00    +0.000 A 
ATOM     18  C   UNL     1       1.509   8.233  20.082  0.00  0.00    +0.000 A 
ENDBRANCH   4  12
TORSDOF 1
ENDMDL
