MODEL 1
REMARK VINA RESULT:      -9.0      0.000      0.000
REMARK  Name = 
REMARK  7 active torsions:
REMARK  status: ('A' for Active; 'I' for Inactive)
REMARK    1  A    between atoms: C_1  and  C_2
REMARK    2  A    between atoms: C_6  and  N_7
REMARK    3  A    between atoms: C_13  and  N_14
REMARK    4  A    between atoms: C_15  and  C_17
REMARK    5  A    between atoms: C_17  and  O_18
REMARK    6  A    between atoms: O_18  and  C_19
REMARK    7  A    between atoms: C_30  and  C_31
REMARK                            x       y       z     vdW  Elec       q    Type
REMARK                         _______ _______ _______ _____ _____    ______ ____
ROOT
ATOM      1  N   UNL     1       3.416   3.638  18.547  0.00  0.00    +0.000 N 
ATOM      2  C   UNL     1       2.530   4.298  17.725  0.00  0.00    +0.000 C 
ATOM      3  O   UNL     1       1.929   3.930  16.730  0.00  0.00    +0.000 OA
ATOM      4  C   UNL     1       2.128   5.465  18.478  0.00  0.00    +0.000 A 
ATOM      5  C   UNL     1       2.263   6.782  18.112  0.00  0.00    +0.000 A 
ATOM      6  C   UNL     1       2.207   7.716  19.140  0.00  0.00    +0.000 A 
ATOM      7  C   UNL     1       1.975   7.313  20.476  0.00  0.00    +0.000 A 
ATOM      8  C   UNL     1       1.990   5.972  20.841  0.00  0.00    +0.000 A 
ATOM      9  C   UNL     1       2.133   5.072  19.803  0.00  0.00    +0.000 A 
ATOM     10  C   UNL     1       2.875   3.797  19.821  0.00  0.00    +0.000 C 
ATOM     11  O   UNL     1       3.035   3.130  20.824  0.00  0.00    +0.000 OA
ENDROOT
BRANCH   1  17
ATOM     12  C   UNL     1       7.287   4.918  15.529  0.00  0.00    +0.000 C 
ATOM     13  C   UNL     1       6.597   4.876  16.870  0.00  0.00    +0.000 A 
ATOM     14  C   UNL     1       7.152   5.614  17.922  0.00  0.00    +0.000 A 
ATOM     15  C   UNL     1       6.581   5.578  19.184  0.00  0.00    +0.000 A 
ATOM     16  C   UNL     1       5.433   4.820  19.408  0.00  0.00    +0.000 A 
ATOM     17  C   UNL     1       4.789   4.126  18.356  0.00  0.00    +0.000 A 
ATOM     18  C   UNL     1       5.406   4.124  17.075  0.00  0.00    +0.000 A 
ATOM     19  C   UNL     1       4.846   3.367  15.892  0.00  0.00    +0.000 C 
ENDBRANCH   1  17
BRANCH   7  20
ATOM     20  N   UNL     1       1.785   8.287  21.447  0.00  0.00    +0.000 N 
ATOM     21  C   UNL     1       0.916   9.346  21.325  0.00  0.00    +0.000 C 
ATOM     22  O   UNL     1       0.979  10.280  22.124  0.00  0.00    +0.000 OA
ATOM     23  H   UNL     1       2.414   8.324  22.243  0.00  0.00    +0.000 HD
BRANCH  21  24
ATOM     24  C   UNL     1      -0.182   9.266  20.254  0.00  0.00    +0.000 C 
BRANCH  24  25
ATOM     25  O   UNL     1      -0.174  10.424  19.430  0.00  0.00    +0.000 OA
BRANCH  25  26
ATOM     26  C   UNL     1      -1.239  10.555  18.573  0.00  0.00    +0.000 A 
ATOM     27  C   UNL     1      -1.381   9.800  17.403  0.00  0.00    +0.000 A 
ATOM     28  C   UNL     1      -2.508   9.955  16.589  0.00  0.00    +0.000 A 
ATOM     29  C   UNL     1      -3.505  10.862  16.936  0.00  0.00    +0.000 A 
ATOM     30  C   UNL     1      -3.383  11.609  18.106  0.00  0.00    +0.000 A 
ATOM     31  C   UNL     1      -2.263  11.449  18.926  0.00  0.00    +0.000 A 
ATOM     32 CL   UNL     1      -2.193  12.389  20.375  0.00  0.00    +0.000 Cl
ENDBRANCH  25  26
ENDBRANCH  24  25
ENDBRANCH  21  24
ENDBRANCH   7  20
TORSDOF 5
ENDMDL
MODEL 2
REMARK VINA RESULT:      -8.5      2.671      8.819
REMARK  Name = 
REMARK  7 active torsions:
REMARK  status: ('A' for Active; 'I' for Inactive)
REMARK    1  A    between atoms: C_1  and  C_2
REMARK    2  A    between atoms: C_6  and  N_7
REMARK    3  A    between atoms: C_13  and  N_14
REMARK    4  A    between atoms: C_15  and  C_17
REMARK    5  A    between atoms: C_17  and  O_18
REMARK    6  A    between atoms: O_18  and  C_19
REMARK    7  A    between atoms: C_30  and  C_31
REMARK                            x       y       z     vdW  Elec       q    Type
REMARK                         _______ _______ _______ _____ _____    ______ ____
ROOT
ATOM      1  N   UNL     1      -0.405  11.642  19.637  0.00  0.00    +0.000 N 
ATOM      2  C   UNL     1       0.799  11.606  18.970  0.00  0.00    +0.000 C 
ATOM      3  O   UNL     1       1.472  12.495  18.477  0.00  0.00    +0.000 OA
ATOM      4  C   UNL     1       1.350  10.304  19.274  0.00  0.00    +0.000 A 
ATOM      5  C   UNL     1       1.701   9.319  18.385  0.00  0.00    +0.000 A 
ATOM      6  C   UNL     1       1.800   8.031  18.899  0.00  0.00    +0.000 A 
ATOM      7  C   UNL     1       1.591   7.781  20.276  0.00  0.00    +0.000 A 
ATOM      8  C   UNL     1       1.094   8.764  21.124  0.00  0.00    +0.000 A 
ATOM      9  C   UNL     1       0.928  10.013  20.557  0.00  0.00    +0.000 A 
ATOM     10  C   UNL     1      -0.145  10.986  20.838  0.00  0.00    +0.000 C 
ATOM     11  O   UNL     1      -0.720  11.059  21.905  0.00  0.00    +0.000 OA
ENDROOT
BRANCH   1  17
ATOM     12  C   UNL     1      -5.153  11.815  17.858  0.00  0.00    +0.000 C 
ATOM     13  C   UNL     1      -3.744  11.274  17.854  0.00  0.00    +0.000 A 
ATOM     14  C   UNL     1      -3.366  10.425  16.806  0.00  0.00    +0.000 A 
ATOM     15  C   UNL     1      -2.097   9.869  16.776  0.00  0.00    +0.000 A 
ATOM     16  C   UNL     1      -1.180  10.170  17.782  0.00  0.00    +0.000 A 
ATOM     17  C   UNL     1      -1.489  11.088  18.813  0.00  0.00    +0.000 A 
ATOM     18  C   UNL     1      -2.808  11.618  18.869  0.00  0.00    +0.000 A 
ATOM     19  C   UNL     1      -3.273  12.556  19.959  0.00  0.00    +0.000 C 
ENDBRANCH   1  17
BRANCH   7  20
ATOM     20  N   UNL     1       1.838   6.508  20.772  0.00  0.00    +0.000 N 
ATOM     21  C   UNL     1       2.669   5.589  20.173  0.00  0.00    +0.000 C 
ATOM     22  O   UNL     1       2.650   4.417  20.548  0.00  0.00    +0.000 OA
ATOM     23  H   UNL     1       1.277   6.157  21.542  0.00  0.00    +0.000 HD
BRANCH  21  24
ATOM     24  C   UNL     1       3.675   6.092  19.127  0.00  0.00    +0.000 C 
BRANCH  24  25
ATOM     25  O   UNL     1       4.872   5.323  19.162  0.00  0.00    +0.000 OA
BRANCH  25  26
ATOM     26  C   UNL     1       5.386   4.963  17.942  0.00  0.00    +0.000 A 
ATOM     27  C   UNL     1       4.639   4.304  16.958  0.00  0.00    +0.000 A 
ATOM     28  C   UNL     1       5.211   3.994  15.720  0.00  0.00    +0.000 A 
ATOM     29  C   UNL     1       6.531   4.342  15.450  0.00  0.00    +0.000 A 
ATOM     30  C   UNL     1       7.281   5.012  16.414  0.00  0.00    +0.000 A 
ATOM     31  C   UNL     1       6.709   5.331  17.649  0.00  0.00    +0.000 A 
ATOM     32 CL   UNL     1       7.690   6.187  18.786  0.00  0.00    +0.000 Cl
ENDBRANCH  25  26
ENDBRANCH  24  25
ENDBRANCH  21  24
ENDBRANCH   7  20
TORSDOF 5
ENDMDL
MODEL 3
REMARK VINA RESULT:      -8.5      0.963      1.429
REMARK  Name = 
REMARK  7 active torsions:
REMARK  status: ('A' for Active; 'I' for Inactive)
REMARK    1  A    between atoms: C_1  and  C_2
REMARK    2  A    between atoms: C_6  and  N_7
REMARK    3  A    between atoms: C_13  and  N_14
REMARK    4  A    between atoms: C_15  and  C_17
REMARK    5  A    between atoms: C_17  and  O_18
REMARK    6  A    between atoms: O_18  and  C_19
REMARK    7  A    between atoms: C_30  and  C_31
REMARK                            x       y       z     vdW  Elec       q    Type
REMARK                         _______ _______ _______ _____ _____    ______ ____
ROOT
ATOM      1  N   UNL     1       3.326   3.614  18.515  0.00  0.00    +0.000 N 
ATOM      2  C   UNL     1       2.448   4.318  17.721  0.00  0.00    +0.000 C 
ATOM      3  O   UNL     1       1.831   3.994  16.721  0.00  0.00    +0.000 OA
ATOM      4  C   UNL     1       2.077   5.470  18.513  0.00  0.00    +0.000 A 
ATOM      5  C   UNL     1       2.238   6.794  18.186  0.00  0.00    +0.000 A 
ATOM      6  C   UNL     1       2.210   7.698  19.241  0.00  0.00    +0.000 A 
ATOM      7  C   UNL     1       1.981   7.259  20.567  0.00  0.00    +0.000 A 
ATOM      8  C   UNL     1       1.970   5.907  20.891  0.00  0.00    +0.000 A 
ATOM      9  C   UNL     1       2.085   5.037  19.825  0.00  0.00    +0.000 A 
ATOM     10  C   UNL     1       2.800   3.746  19.798  0.00  0.00    +0.000 C 
ATOM     11  O   UNL     1       2.953   3.046  20.779  0.00  0.00    +0.000 OA
ENDROOT
BRANCH   1  17
ATOM     12  C   UNL     1       7.215   4.854  15.503  0.00  0.00    +0.000 C 
ATOM     13  C   UNL     1       6.527   4.810  16.845  0.00  0.00    +0.000 A 
ATOM     14  C   UNL     1       7.097   5.527  17.904  0.00  0.00    +0.000 A 
ATOM     15  C   UNL     1       6.528   5.488  19.166  0.00  0.00    +0.000 A 
ATOM     16  C   UNL     1       5.366   4.749  19.384  0.00  0.00    +0.000 A 
ATOM     17  C   UNL     1       4.708   4.079  18.327  0.00  0.00    +0.000 A 
ATOM     18  C   UNL     1       5.322   4.079  17.044  0.00  0.00    +0.000 A 
ATOM     19  C   UNL     1       4.746   3.345  15.855  0.00  0.00    +0.000 C 
ENDBRANCH   1  17
BRANCH   7  20
ATOM     20  N   UNL     1       1.820   8.207  21.568  0.00  0.00    +0.000 N 
ATOM     21  C   UNL     1       0.979   9.292  21.483  0.00  0.00    +0.000 C 
ATOM     22  O   UNL     1       1.070  10.199  22.310  0.00  0.00    +0.000 OA
ATOM     23  H   UNL     1       2.452   8.202  22.363  0.00  0.00    +0.000 HD
BRANCH  21  24
ATOM     24  C   UNL     1      -0.124   9.275  20.414  0.00  0.00    +0.000 C 
BRANCH  24  25
ATOM     25  O   UNL     1      -0.141  10.494  19.681  0.00  0.00    +0.000 OA
BRANCH  25  26
ATOM     26  C   UNL     1      -1.365  11.104  19.565  0.00  0.00    +0.000 A 
ATOM     27  C   UNL     1      -1.865  12.010  20.508  0.00  0.00    +0.000 A 
ATOM     28  C   UNL     1      -3.106  12.624  20.316  0.00  0.00    +0.000 A 
ATOM     29  C   UNL     1      -3.858  12.345  19.179  0.00  0.00    +0.000 A 
ATOM     30  C   UNL     1      -3.366  11.458  18.224  0.00  0.00    +0.000 A 
ATOM     31  C   UNL     1      -2.122  10.848  18.410  0.00  0.00    +0.000 A 
ATOM     32 CL   UNL     1      -1.563   9.780  17.172  0.00  0.00    +0.000 Cl
ENDBRANCH  25  26
ENDBRANCH  24  25
ENDBRANCH  21  24
ENDBRANCH   7  20
TORSDOF 5
ENDMDL
MODEL 4
REMARK VINA RESULT:      -8.5      2.635      8.588
REMARK  Name = 
REMARK  7 active torsions:
REMARK  status: ('A' for Active; 'I' for Inactive)
REMARK    1  A    between atoms: C_1  and  C_2
REMARK    2  A    between atoms: C_6  and  N_7
REMARK    3  A    between atoms: C_13  and  N_14
REMARK    4  A    between atoms: C_15  and  C_17
REMARK    5  A    between atoms: C_17  and  O_18
REMARK    6  A    between atoms: O_18  and  C_19
REMARK    7  A    between atoms: C_30  and  C_31
REMARK                            x       y       z     vdW  Elec       q    Type
REMARK                         _______ _______ _______ _____ _____    ______ ____
ROOT
ATOM      1  N   UNL     1       0.518  10.962  19.446  0.00  0.00    +0.000 N 
ATOM      2  C   UNL     1       1.575  10.779  18.584  0.00  0.00    +0.000 C 
ATOM      3  O   UNL     1       2.302  11.580  18.022  0.00  0.00    +0.000 OA
ATOM      4  C   UNL     1       1.937   9.387  18.735  0.00  0.00    +0.000 A 
ATOM      5  C   UNL     1       1.968   8.422  17.759  0.00  0.00    +0.000 A 
ATOM      6  C   UNL     1       1.926   7.103  18.194  0.00  0.00    +0.000 A 
ATOM      7  C   UNL     1       1.900   6.794  19.574  0.00  0.00    +0.000 A 
ATOM      8  C   UNL     1       1.721   7.783  20.535  0.00  0.00    +0.000 A 
ATOM      9  C   UNL     1       1.682   9.079  20.058  0.00  0.00    +0.000 A 
ATOM     10  C   UNL     1       0.850  10.191  20.557  0.00  0.00    +0.000 C 
ATOM     11  O   UNL     1       0.475  10.280  21.709  0.00  0.00    +0.000 OA
ENDROOT
BRANCH   1  17
ATOM     12  C   UNL     1      -4.390  11.944  18.617  0.00  0.00    +0.000 C 
ATOM     13  C   UNL     1      -3.099  11.232  18.299  0.00  0.00    +0.000 A 
ATOM     14  C   UNL     1      -3.037  10.467  17.127  0.00  0.00    +0.000 A 
ATOM     15  C   UNL     1      -1.889   9.760  16.809  0.00  0.00    +0.000 A 
ATOM     16  C   UNL     1      -0.776   9.825  17.646  0.00  0.00    +0.000 A 
ATOM     17  C   UNL     1      -0.763  10.650  18.795  0.00  0.00    +0.000 A 
ATOM     18  C   UNL     1      -1.959  11.334  19.146  0.00  0.00    +0.000 A 
ATOM     19  C   UNL     1      -2.085  12.192  20.383  0.00  0.00    +0.000 C 
ENDBRANCH   1  17
BRANCH   7  20
ATOM     20  N   UNL     1       2.002   5.466  19.967  0.00  0.00    +0.000 N 
ATOM     21  C   UNL     1       3.134   4.698  19.820  0.00  0.00    +0.000 C 
ATOM     22  O   UNL     1       3.066   3.480  19.979  0.00  0.00    +0.000 OA
ATOM     23  H   UNL     1       1.165   4.967  20.252  0.00  0.00    +0.000 HD
BRANCH  21  24
ATOM     24  C   UNL     1       4.471   5.412  19.572  0.00  0.00    +0.000 C 
BRANCH  24  25
ATOM     25  O   UNL     1       5.467   4.492  19.143  0.00  0.00    +0.000 OA
BRANCH  25  26
ATOM     26  C   UNL     1       5.800   4.551  17.812  0.00  0.00    +0.000 A 
ATOM     27  C   UNL     1       5.053   3.929  16.805  0.00  0.00    +0.000 A 
ATOM     28  C   UNL     1       5.425   4.054  15.463  0.00  0.00    +0.000 A 
ATOM     29  C   UNL     1       6.544   4.804  15.113  0.00  0.00    +0.000 A 
ATOM     30  C   UNL     1       7.288   5.441  16.104  0.00  0.00    +0.000 A 
ATOM     31  C   UNL     1       6.913   5.325  17.445  0.00  0.00    +0.000 A 
ATOM     32 CL   UNL     1       7.866   6.164  18.617  0.00  0.00    +0.000 Cl
ENDBRANCH  25  26
ENDBRANCH  24  25
ENDBRANCH  21  24
ENDBRANCH   7  20
TORSDOF 5
ENDMDL
MODEL 5
REMARK VINA RESULT:      -8.5      2.451      8.725
REMARK  Name = 
REMARK  7 active torsions:
REMARK  status: ('A' for Active; 'I' for Inactive)
REMARK    1  A    between atoms: C_1  and  C_2
REMARK    2  A    between atoms: C_6  and  N_7
REMARK    3  A    between atoms: C_13  and  N_14
REMARK    4  A    between atoms: C_15  and  C_17
REMARK    5  A    between atoms: C_17  and  O_18
REMARK    6  A    between atoms: O_18  and  C_19
REMARK    7  A    between atoms: C_30  and  C_31
REMARK                            x       y       z     vdW  Elec       q    Type
REMARK                         _______ _______ _______ _____ _____    ______ ____
ROOT
ATOM      1  N   UNL     1      -0.547  11.650  19.448  0.00  0.00    +0.000 N 
ATOM      2  C   UNL     1       0.666  11.679  18.799  0.00  0.00    +0.000 C 
ATOM      3  O   UNL     1       1.295  12.603  18.311  0.00  0.00    +0.000 OA
ATOM      4  C   UNL     1       1.285  10.411  19.116  0.00  0.00    +0.000 A 
ATOM      5  C   UNL     1       1.704   9.444  18.237  0.00  0.00    +0.000 A 
ATOM      6  C   UNL     1       1.866   8.166  18.758  0.00  0.00    +0.000 A 
ATOM      7  C   UNL     1       1.652   7.909  20.133  0.00  0.00    +0.000 A 
ATOM      8  C   UNL     1       1.089   8.866  20.969  0.00  0.00    +0.000 A 
ATOM      9  C   UNL     1       0.861  10.101  20.394  0.00  0.00    +0.000 A 
ATOM     10  C   UNL     1      -0.269  11.014  20.656  0.00  0.00    +0.000 C 
ATOM     11  O   UNL     1      -0.862  11.058  21.715  0.00  0.00    +0.000 OA
ENDROOT
BRANCH   1  17
ATOM     12  C   UNL     1      -5.264  11.563  17.583  0.00  0.00    +0.000 C 
ATOM     13  C   UNL     1      -3.830  11.094  17.610  0.00  0.00    +0.000 A 
ATOM     14  C   UNL     1      -3.390  10.255  16.579  0.00  0.00    +0.000 A 
ATOM     15  C   UNL     1      -2.095   9.764  16.578  0.00  0.00    +0.000 A 
ATOM     16  C   UNL     1      -1.213  10.122  17.596  0.00  0.00    +0.000 A 
ATOM     17  C   UNL     1      -1.587  11.033  18.611  0.00  0.00    +0.000 A 
ATOM     18  C   UNL     1      -2.931  11.496  18.638  0.00  0.00    +0.000 A 
ATOM     19  C   UNL     1      -3.464  12.420  19.708  0.00  0.00    +0.000 C 
ENDBRANCH   1  17
BRANCH   7  20
ATOM     20  N   UNL     1       1.963   6.654  20.638  0.00  0.00    +0.000 N 
ATOM     21  C   UNL     1       2.468   5.618  19.886  0.00  0.00    +0.000 C 
ATOM     22  O   UNL     1       2.495   4.482  20.358  0.00  0.00    +0.000 OA
ATOM     23  H   UNL     1       1.679   6.414  21.583  0.00  0.00    +0.000 HD
BRANCH  21  24
ATOM     24  C   UNL     1       3.084   5.944  18.518  0.00  0.00    +0.000 C 
BRANCH  24  25
ATOM     25  O   UNL     1       4.162   5.065  18.222  0.00  0.00    +0.000 OA
BRANCH  25  26
ATOM     26  C   UNL     1       5.419   5.606  18.322  0.00  0.00    +0.000 A 
ATOM     27  C   UNL     1       6.331   5.252  19.324  0.00  0.00    +0.000 A 
ATOM     28  C   UNL     1       7.610   5.815  19.352  0.00  0.00    +0.000 A 
ATOM     29  C   UNL     1       7.995   6.732  18.379  0.00  0.00    +0.000 A 
ATOM     30  C   UNL     1       7.104   7.081  17.367  0.00  0.00    +0.000 A 
ATOM     31  C   UNL     1       5.827   6.514  17.331  0.00  0.00    +0.000 A 
ATOM     32 CL   UNL     1       4.784   6.973  16.032  0.00  0.00    +0.000 Cl
ENDBRANCH  25  26
ENDBRANCH  24  25
ENDBRANCH  21  24
ENDBRANCH   7  20
TORSDOF 5
ENDMDL
MODEL 6
REMARK VINA RESULT:      -8.4      2.709      8.701
REMARK  Name = 
REMARK  7 active torsions:
REMARK  status: ('A' for Active; 'I' for Inactive)
REMARK    1  A    between atoms: C_1  and  C_2
REMARK    2  A    between atoms: C_6  and  N_7
REMARK    3  A    between atoms: C_13  and  N_14
REMARK    4  A    between atoms: C_15  and  C_17
REMARK    5  A    between atoms: C_17  and  O_18
REMARK    6  A    between atoms: O_18  and  C_19
REMARK    7  A    between atoms: C_30  and  C_31
REMARK                            x       y       z     vdW  Elec       q    Type
REMARK                         _______ _______ _______ _____ _____    ______ ____
ROOT
ATOM      1  N   UNL     1      -0.675  11.797  19.527  0.00  0.00    +0.000 N 
ATOM      2  C   UNL     1       0.536  11.901  18.879  0.00  0.00    +0.000 C 
ATOM      3  O   UNL     1       1.118  12.865  18.413  0.00  0.00    +0.000 OA
ATOM      4  C   UNL     1       1.216  10.658  19.166  0.00  0.00    +0.000 A 
ATOM      5  C   UNL     1       1.680   9.733  18.264  0.00  0.00    +0.000 A 
ATOM      6  C   UNL     1       1.906   8.452  18.754  0.00  0.00    +0.000 A 
ATOM      7  C   UNL     1       1.707   8.153  20.122  0.00  0.00    +0.000 A 
ATOM      8  C   UNL     1       1.098   9.061  20.982  0.00  0.00    +0.000 A 
ATOM      9  C   UNL     1       0.809  10.297  20.436  0.00  0.00    +0.000 A 
ATOM     10  C   UNL     1      -0.363  11.147  20.719  0.00  0.00    +0.000 C 
ATOM     11  O   UNL     1      -0.957  11.137  21.779  0.00  0.00    +0.000 OA
ENDROOT
BRANCH   1  17
ATOM     12  C   UNL     1      -5.370  11.551  17.623  0.00  0.00    +0.000 C 
ATOM     13  C   UNL     1      -3.920  11.137  17.657  0.00  0.00    +0.000 A 
ATOM     14  C   UNL     1      -3.441  10.325  16.622  0.00  0.00    +0.000 A 
ATOM     15  C   UNL     1      -2.128   9.883  16.626  0.00  0.00    +0.000 A 
ATOM     16  C   UNL     1      -1.268  10.264  17.655  0.00  0.00    +0.000 A 
ATOM     17  C   UNL     1      -1.684  11.150  18.676  0.00  0.00    +0.000 A 
ATOM     18  C   UNL     1      -3.045  11.561  18.696  0.00  0.00    +0.000 A 
ATOM     19  C   UNL     1      -3.620  12.454  19.772  0.00  0.00    +0.000 C 
ENDBRANCH   1  17
BRANCH   7  20
ATOM     20  N   UNL     1       2.079   6.903  20.597  0.00  0.00    +0.000 N 
ATOM     21  C   UNL     1       2.154   5.769  19.822  0.00  0.00    +0.000 C 
ATOM     22  O   UNL     1       2.265   4.669  20.364  0.00  0.00    +0.000 OA
ATOM     23  H   UNL     1       2.171   6.759  21.598  0.00  0.00    +0.000 HD
BRANCH  21  24
ATOM     24  C   UNL     1       2.208   5.932  18.296  0.00  0.00    +0.000 C 
BRANCH  24  25
ATOM     25  O   UNL     1       3.175   5.060  17.725  0.00  0.00    +0.000 OA
BRANCH  25  26
ATOM     26  C   UNL     1       4.471   5.512  17.741  0.00  0.00    +0.000 A 
ATOM     27  C   UNL     1       4.881   6.690  17.106  0.00  0.00    +0.000 A 
ATOM     28  C   UNL     1       6.211   7.116  17.188  0.00  0.00    +0.000 A 
ATOM     29  C   UNL     1       7.142   6.373  17.909  0.00  0.00    +0.000 A 
ATOM     30  C   UNL     1       6.744   5.208  18.558  0.00  0.00    +0.000 A 
ATOM     31  C   UNL     1       5.413   4.784  18.486  0.00  0.00    +0.000 A 
ATOM     32 CL   UNL     1       4.986   3.344  19.339  0.00  0.00    +0.000 Cl
ENDBRANCH  25  26
ENDBRANCH  24  25
ENDBRANCH  21  24
ENDBRANCH   7  20
TORSDOF 5
ENDMDL
MODEL 7
REMARK VINA RESULT:      -8.4      2.628      8.812
REMARK  Name = 
REMARK  7 active torsions:
REMARK  status: ('A' for Active; 'I' for Inactive)
REMARK    1  A    between atoms: C_1  and  C_2
REMARK    2  A    between atoms: C_6  and  N_7
REMARK    3  A    between atoms: C_13  and  N_14
REMARK    4  A    between atoms: C_15  and  C_17
REMARK    5  A    between atoms: C_17  and  O_18
REMARK    6  A    between atoms: O_18  and  C_19
REMARK    7  A    between atoms: C_30  and  C_31
REMARK                            x       y       z     vdW  Elec       q    Type
REMARK                         _______ _______ _______ _____ _____    ______ ____
ROOT
ATOM      1  N   UNL     1      -0.362  11.625  19.604  0.00  0.00    +0.000 N 
ATOM      2  C   UNL     1       0.833  11.558  18.924  0.00  0.00    +0.000 C 
ATOM      3  O   UNL     1       1.519  12.428  18.416  0.00  0.00    +0.000 OA
ATOM      4  C   UNL     1       1.360  10.246  19.231  0.00  0.00    +0.000 A 
ATOM      5  C   UNL     1       1.679   9.247  18.346  0.00  0.00    +0.000 A 
ATOM      6  C   UNL     1       1.755   7.961  18.869  0.00  0.00    +0.000 A 
ATOM      7  C   UNL     1       1.558   7.726  20.250  0.00  0.00    +0.000 A 
ATOM      8  C   UNL     1       1.092   8.726  21.096  0.00  0.00    +0.000 A 
ATOM      9  C   UNL     1       0.946   9.973  20.521  0.00  0.00    +0.000 A 
ATOM     10  C   UNL     1      -0.102  10.972  20.807  0.00  0.00    +0.000 C 
ATOM     11  O   UNL     1      -0.662  11.065  21.881  0.00  0.00    +0.000 OA
ENDROOT
BRANCH   1  17
ATOM     12  C   UNL     1      -5.133  11.875  17.898  0.00  0.00    +0.000 C 
ATOM     13  C   UNL     1      -3.733  11.311  17.873  0.00  0.00    +0.000 A 
ATOM     14  C   UNL     1      -3.385  10.456  16.821  0.00  0.00    +0.000 A 
ATOM     15  C   UNL     1      -2.127   9.879  16.771  0.00  0.00    +0.000 A 
ATOM     16  C   UNL     1      -1.189  10.166  17.763  0.00  0.00    +0.000 A 
ATOM     17  C   UNL     1      -1.467  11.089  18.798  0.00  0.00    +0.000 A 
ATOM     18  C   UNL     1      -2.776  11.640  18.873  0.00  0.00    +0.000 A 
ATOM     19  C   UNL     1      -3.209  12.586  19.970  0.00  0.00    +0.000 C 
ENDBRANCH   1  17
BRANCH   7  20
ATOM     20  N   UNL     1       1.783   6.451  20.752  0.00  0.00    +0.000 N 
ATOM     21  C   UNL     1       2.669   5.549  20.211  0.00  0.00    +0.000 C 
ATOM     22  O   UNL     1       2.636   4.373  20.574  0.00  0.00    +0.000 OA
ATOM     23  H   UNL     1       1.170   6.087  21.475  0.00  0.00    +0.000 HD
BRANCH  21  24
ATOM     24  C   UNL     1       3.744   6.073  19.249  0.00  0.00    +0.000 C 
BRANCH  24  25
ATOM     25  O   UNL     1       4.855   5.186  19.196  0.00  0.00    +0.000 OA
BRANCH  25  26
ATOM     26  C   UNL     1       5.478   5.081  17.977  0.00  0.00    +0.000 A 
ATOM     27  C   UNL     1       6.549   5.895  17.589  0.00  0.00    +0.000 A 
ATOM     28  C   UNL     1       7.164   5.716  16.346  0.00  0.00    +0.000 A 
ATOM     29  C   UNL     1       6.720   4.720  15.480  0.00  0.00    +0.000 A 
ATOM     30  C   UNL     1       5.666   3.893  15.860  0.00  0.00    +0.000 A 
ATOM     31  C   UNL     1       5.055   4.064  17.106  0.00  0.00    +0.000 A 
ATOM     32 CL   UNL     1       3.772   2.984  17.521  0.00  0.00    +0.000 Cl
ENDBRANCH  25  26
ENDBRANCH  24  25
ENDBRANCH  21  24
ENDBRANCH   7  20
TORSDOF 5
ENDMDL
MODEL 8
REMARK VINA RESULT:      -8.3      1.825      2.240
REMARK  Name = 
REMARK  7 active torsions:
REMARK  status: ('A' for Active; 'I' for Inactive)
REMARK    1  A    between atoms: C_1  and  C_2
REMARK    2  A    between atoms: C_6  and  N_7
REMARK    3  A    between atoms: C_13  and  N_14
REMARK    4  A    between atoms: C_15  and  C_17
REMARK    5  A    between atoms: C_17  and  O_18
REMARK    6  A    between atoms: O_18  and  C_19
REMARK    7  A    between atoms: C_30  and  C_31
REMARK                            x       y       z     vdW  Elec       q    Type
REMARK                         _______ _______ _______ _____ _____    ______ ____
ROOT
ATOM      1  N   UNL     1       3.476   3.572  18.467  0.00  0.00    +0.000 N 
ATOM      2  C   UNL     1       2.583   4.271  17.686  0.00  0.00    +0.000 C 
ATOM      3  O   UNL     1       1.994   3.961  16.665  0.00  0.00    +0.000 OA
ATOM      4  C   UNL     1       2.155   5.376  18.515  0.00  0.00    +0.000 A 
ATOM      5  C   UNL     1       2.267   6.716  18.241  0.00  0.00    +0.000 A 
ATOM      6  C   UNL     1       2.188   7.577  19.330  0.00  0.00    +0.000 A 
ATOM      7  C   UNL     1       1.957   7.079  20.633  0.00  0.00    +0.000 A 
ATOM      8  C   UNL     1       1.994   5.716  20.906  0.00  0.00    +0.000 A 
ATOM      9  C   UNL     1       2.160   4.893  19.809  0.00  0.00    +0.000 A 
ATOM     10  C   UNL     1       2.926   3.633  19.745  0.00  0.00    +0.000 C 
ATOM     11  O   UNL     1       3.093   2.902  20.701  0.00  0.00    +0.000 OA
ENDROOT
BRANCH   1  17
ATOM     12  C   UNL     1       7.377   5.026  15.569  0.00  0.00    +0.000 C 
ATOM     13  C   UNL     1       6.661   4.930  16.893  0.00  0.00    +0.000 A 
ATOM     14  C   UNL     1       7.176   5.651  17.976  0.00  0.00    +0.000 A 
ATOM     15  C   UNL     1       6.580   5.566  19.224  0.00  0.00    +0.000 A 
ATOM     16  C   UNL     1       5.446   4.775  19.403  0.00  0.00    +0.000 A 
ATOM     17  C   UNL     1       4.841   4.097  18.319  0.00  0.00    +0.000 A 
ATOM     18  C   UNL     1       5.483   4.146  17.051  0.00  0.00    +0.000 A 
ATOM     19  C   UNL     1       4.967   3.409  15.837  0.00  0.00    +0.000 C 
ENDBRANCH   1  17
BRANCH   7  20
ATOM     20  N   UNL     1       1.744   7.980  21.668  0.00  0.00    +0.000 N 
ATOM     21  C   UNL     1       1.063   9.168  21.534  0.00  0.00    +0.000 C 
ATOM     22  O   UNL     1       1.121  10.006  22.434  0.00  0.00    +0.000 OA
ATOM     23  H   UNL     1       2.228   7.847  22.550  0.00  0.00    +0.000 HD
BRANCH  21  24
ATOM     24  C   UNL     1       0.161   9.356  20.306  0.00  0.00    +0.000 C 
BRANCH  24  25
ATOM     25  O   UNL     1      -0.190  10.724  20.137  0.00  0.00    +0.000 OA
BRANCH  25  26
ATOM     26  C   UNL     1       0.788  11.532  19.614  0.00  0.00    +0.000 A 
ATOM     27  C   UNL     1       1.528  11.202  18.472  0.00  0.00    +0.000 A 
ATOM     28  C   UNL     1       2.489  12.084  17.968  0.00  0.00    +0.000 A 
ATOM     29  C   UNL     1       2.718  13.305  18.595  0.00  0.00    +0.000 A 
ATOM     30  C   UNL     1       1.978  13.653  19.723  0.00  0.00    +0.000 A 
ATOM     31  C   UNL     1       1.010  12.777  20.224  0.00  0.00    +0.000 A 
ATOM     32 CL   UNL     1       0.113  13.287  21.609  0.00  0.00    +0.000 Cl
ENDBRANCH  25  26
ENDBRANCH  24  25
ENDBRANCH  21  24
ENDBRANCH   7  20
TORSDOF 5
ENDMDL
MODEL 9
REMARK VINA RESULT:      -8.3      1.495      1.882
REMARK  Name = 
REMARK  7 active torsions:
REMARK  status: ('A' for Active; 'I' for Inactive)
REMARK    1  A    between atoms: C_1  and  C_2
REMARK    2  A    between atoms: C_6  and  N_7
REMARK    3  A    between atoms: C_13  and  N_14
REMARK    4  A    between atoms: C_15  and  C_17
REMARK    5  A    between atoms: C_17  and  O_18
REMARK    6  A    between atoms: O_18  and  C_19
REMARK    7  A    between atoms: C_30  and  C_31
REMARK                            x       y       z     vdW  Elec       q    Type
REMARK                         _______ _______ _______ _____ _____    ______ ____
ROOT
ATOM      1  N   UNL     1       3.355   3.627  18.560  0.00  0.00    +0.000 N 
ATOM      2  C   UNL     1       2.481   4.316  17.750  0.00  0.00    +0.000 C 
ATOM      3  O   UNL     1       1.865   3.971  16.756  0.00  0.00    +0.000 OA
ATOM      4  C   UNL     1       2.112   5.485  18.516  0.00  0.00    +0.000 A 
ATOM      5  C   UNL     1       2.275   6.801  18.161  0.00  0.00    +0.000 A 
ATOM      6  C   UNL     1       2.249   7.728  19.196  0.00  0.00    +0.000 A 
ATOM      7  C   UNL     1       2.016   7.319  20.530  0.00  0.00    +0.000 A 
ATOM      8  C   UNL     1       2.001   5.974  20.884  0.00  0.00    +0.000 A 
ATOM      9  C   UNL     1       2.116   5.081  19.837  0.00  0.00    +0.000 A 
ATOM     10  C   UNL     1       2.827   3.788  19.839  0.00  0.00    +0.000 C 
ATOM     11  O   UNL     1       2.978   3.109  20.835  0.00  0.00    +0.000 OA
ENDROOT
BRANCH   1  17
ATOM     12  C   UNL     1       7.241   4.827  15.528  0.00  0.00    +0.000 C 
ATOM     13  C   UNL     1       6.556   4.796  16.872  0.00  0.00    +0.000 A 
ATOM     14  C   UNL     1       7.133   5.518  17.923  0.00  0.00    +0.000 A 
ATOM     15  C   UNL     1       6.568   5.491  19.188  0.00  0.00    +0.000 A 
ATOM     16  C   UNL     1       5.403   4.759  19.415  0.00  0.00    +0.000 A 
ATOM     17  C   UNL     1       4.739   4.084  18.365  0.00  0.00    +0.000 A 
ATOM     18  C   UNL     1       5.349   4.072  17.080  0.00  0.00    +0.000 A 
ATOM     19  C   UNL     1       4.766   3.332  15.898  0.00  0.00    +0.000 C 
ENDBRANCH   1  17
BRANCH   7  20
ATOM     20  N   UNL     1       1.856   8.288  21.511  0.00  0.00    +0.000 N 
ATOM     21  C   UNL     1       0.907   9.283  21.471  0.00  0.00    +0.000 C 
ATOM     22  O   UNL     1       0.984  10.229  22.256  0.00  0.00    +0.000 OA
ATOM     23  H   UNL     1       2.557   8.377  22.241  0.00  0.00    +0.000 HD
BRANCH  21  24
ATOM     24  C   UNL     1      -0.283   9.115  20.516  0.00  0.00    +0.000 C 
BRANCH  24  25
ATOM     25  O   UNL     1      -0.074   9.839  19.310  0.00  0.00    +0.000 OA
BRANCH  25  26
ATOM     26  C   UNL     1      -0.342  11.184  19.366  0.00  0.00    +0.000 A 
ATOM     27  C   UNL     1      -1.515  11.711  19.920  0.00  0.00    +0.000 A 
ATOM     28  C   UNL     1      -1.715  13.094  19.979  0.00  0.00    +0.000 A 
ATOM     29  C   UNL     1      -0.745  13.964  19.490  0.00  0.00    +0.000 A 
ATOM     30  C   UNL     1       0.433  13.454  18.951  0.00  0.00    +0.000 A 
ATOM     31  C   UNL     1       0.640  12.072  18.899  0.00  0.00    +0.000 A 
ATOM     32 CL   UNL     1       2.136  11.513  18.241  0.00  0.00    +0.000 Cl
ENDBRANCH  25  26
ENDBRANCH  24  25
ENDBRANCH  21  24
ENDBRANCH   7  20
TORSDOF 5
ENDMDL
