MODEL 1
REMARK VINA RESULT:      -7.8      0.000      0.000
REMARK  Name = 
REMARK  8 active torsions:
REMARK  status: ('A' for Active; 'I' for Inactive)
REMARK    1  A    between atoms: C_2  and  C_15
REMARK    2  A    between atoms: N_3  and  C_4
REMARK    3  A    between atoms: C_4  and  C_5
REMARK    4  A    between atoms: C_5  and  O_6
REMARK    5  A    between atoms: O_6  and  C_7
REMARK    6  A    between atoms: C_7  and  C_8
REMARK    7  A    between atoms: C_8  and  C_9
REMARK    8  A    between atoms: N_17  and  C_18
REMARK                            x       y       z     vdW  Elec       q    Type
REMARK                         _______ _______ _______ _____ _____    ______ ____
ROOT
ATOM      1  O   UNL     1       7.319   7.786  16.987  0.00  0.00    +0.000 OA
ATOM      2  C   UNL     1       7.975   8.048  17.986  0.00  0.00    +0.000 C 
ATOM      3  N   UNL     1       8.370   7.144  18.943  0.00  0.00    +0.000 N 
ATOM      4  H   UNL     1       8.745   7.515  19.819  0.00  0.00    +0.000 HD
ENDROOT
BRANCH   2   5
ATOM      5  C   UNL     1       8.409   9.507  18.252  0.00  0.00    +0.000 C 
ATOM      6  O   UNL     1       8.029  10.392  17.490  0.00  0.00    +0.000 OA
ATOM      7  N   UNL     1       9.285   9.644  19.317  0.00  0.00    +0.000 N 
ATOM      8  H   UNL     1       9.787   8.800  19.580  0.00  0.00    +0.000 HD
BRANCH   7   9
ATOM      9  C   UNL     1       9.798  10.900  19.703  0.00  0.00    +0.000 A 
ATOM     10  C   UNL     1       9.421  11.516  20.899  0.00  0.00    +0.000 A 
ATOM     11  F   UNL     1       8.594  10.894  21.751  0.00  0.00    +0.000 F 
ATOM     12  C   UNL     1       9.964  12.743  21.281  0.00  0.00    +0.000 A 
ATOM     13  C   UNL     1      10.881  13.388  20.452  0.00  0.00    +0.000 A 
ATOM     14  C   UNL     1      11.261  12.789  19.247  0.00  0.00    +0.000 A 
ATOM     15  C   UNL     1      10.735  11.544  18.894  0.00  0.00    +0.000 A 
ATOM     16  F   UNL     1      11.091  11.002  17.721  0.00  0.00    +0.000 F 
ENDBRANCH   7   9
ENDBRANCH   2   5
BRANCH   3  17
ATOM     17  C   UNL     1       8.010   5.742  18.850  0.00  0.00    +0.000 C 
BRANCH  17  18
ATOM     18  C   UNL     1       6.664   5.397  19.485  0.00  0.00    +0.000 C 
BRANCH  18  19
ATOM     19  O   UNL     1       5.789   4.821  18.508  0.00  0.00    +0.000 OA
BRANCH  19  20
ATOM     20  C   UNL     1       4.737   5.728  18.158  0.00  0.00    +0.000 C 
BRANCH  20  21
ATOM     21  C   UNL     1       3.673   4.983  17.355  0.00  0.00    +0.000 C 
BRANCH  21  22
ATOM     22  C   UNL     1       2.683   4.279  18.251  0.00  0.00    +0.000 A 
ATOM     23  C   UNL     1       2.195   3.011  17.910  0.00  0.00    +0.000 A 
ATOM     24  C   UNL     1       1.251   2.374  18.718  0.00  0.00    +0.000 A 
ATOM     25  C   UNL     1       0.785   3.000  19.873  0.00  0.00    +0.000 A 
ATOM     26  C   UNL     1       1.265   4.261  20.223  0.00  0.00    +0.000 A 
ATOM     27  C   UNL     1       2.206   4.900  19.414  0.00  0.00    +0.000 A 
ENDBRANCH  21  22
ENDBRANCH  20  21
ENDBRANCH  19  20
ENDBRANCH  18  19
ENDBRANCH  17  18
ENDBRANCH   3  17
TORSDOF 8
ENDMDL
MODEL 2
REMARK VINA RESULT:      -7.5      3.197     10.333
REMARK  Name = 
REMARK  8 active torsions:
REMARK  status: ('A' for Active; 'I' for Inactive)
REMARK    1  A    between atoms: C_2  and  C_15
REMARK    2  A    between atoms: N_3  and  C_4
REMARK    3  A    between atoms: C_4  and  C_5
REMARK    4  A    between atoms: C_5  and  O_6
REMARK    5  A    between atoms: O_6  and  C_7
REMARK    6  A    between atoms: C_7  and  C_8
REMARK    7  A    between atoms: C_8  and  C_9
REMARK    8  A    between atoms: N_17  and  C_18
REMARK                            x       y       z     vdW  Elec       q    Type
REMARK                         _______ _______ _______ _____ _____    ______ ____
ROOT
ATOM      1  O   UNL     1       6.087   5.460  16.189  0.00  0.00    +0.000 OA
ATOM      2  C   UNL     1       6.051   5.582  17.406  0.00  0.00    +0.000 C 
ATOM      3  N   UNL     1       6.852   6.415  18.151  0.00  0.00    +0.000 N 
ATOM      4  H   UNL     1       6.856   6.286  19.165  0.00  0.00    +0.000 HD
ENDROOT
BRANCH   2   5
ATOM      5  C   UNL     1       5.047   4.741  18.227  0.00  0.00    +0.000 C 
ATOM      6  O   UNL     1       5.474   3.863  18.973  0.00  0.00    +0.000 OA
ATOM      7  N   UNL     1       3.721   5.029  17.953  0.00  0.00    +0.000 N 
ATOM      8  H   UNL     1       3.548   5.484  17.061  0.00  0.00    +0.000 HD
BRANCH   7   9
ATOM      9  C   UNL     1       2.663   4.355  18.599  0.00  0.00    +0.000 A 
ATOM     10  C   UNL     1       2.079   3.207  18.057  0.00  0.00    +0.000 A 
ATOM     11  F   UNL     1       2.553   2.675  16.922  0.00  0.00    +0.000 F 
ATOM     12  C   UNL     1       1.057   2.533  18.726  0.00  0.00    +0.000 A 
ATOM     13  C   UNL     1       0.583   3.018  19.944  0.00  0.00    +0.000 A 
ATOM     14  C   UNL     1       1.151   4.171  20.495  0.00  0.00    +0.000 A 
ATOM     15  C   UNL     1       2.197   4.814  19.831  0.00  0.00    +0.000 A 
ATOM     16  F   UNL     1       2.706   5.935  20.363  0.00  0.00    +0.000 F 
ENDBRANCH   7   9
ENDBRANCH   2   5
BRANCH   3  17
ATOM     17  C   UNL     1       7.865   7.244  17.525  0.00  0.00    +0.000 C 
BRANCH  17  18
ATOM     18  C   UNL     1       7.668   8.744  17.739  0.00  0.00    +0.000 C 
BRANCH  18  19
ATOM     19  O   UNL     1       8.632   9.241  18.676  0.00  0.00    +0.000 OA
BRANCH  19  20
ATOM     20  C   UNL     1       9.111  10.534  18.288  0.00  0.00    +0.000 C 
BRANCH  20  21
ATOM     21  C   UNL     1      10.183  10.992  19.275  0.00  0.00    +0.000 C 
BRANCH  21  22
ATOM     22  C   UNL     1      10.911  12.219  18.785  0.00  0.00    +0.000 A 
ATOM     23  C   UNL     1      11.136  12.413  17.416  0.00  0.00    +0.000 A 
ATOM     24  C   UNL     1      11.842  13.529  16.964  0.00  0.00    +0.000 A 
ATOM     25  C   UNL     1      12.331  14.462  17.876  0.00  0.00    +0.000 A 
ATOM     26  C   UNL     1      12.111  14.281  19.241  0.00  0.00    +0.000 A 
ATOM     27  C   UNL     1      11.408  13.164  19.694  0.00  0.00    +0.000 A 
ENDBRANCH  21  22
ENDBRANCH  20  21
ENDBRANCH  19  20
ENDBRANCH  18  19
ENDBRANCH  17  18
ENDBRANCH   3  17
TORSDOF 8
ENDMDL
MODEL 3
REMARK VINA RESULT:      -7.5      1.223      1.369
REMARK  Name = 
REMARK  8 active torsions:
REMARK  status: ('A' for Active; 'I' for Inactive)
REMARK    1  A    between atoms: C_2  and  C_15
REMARK    2  A    between atoms: N_3  and  C_4
REMARK    3  A    between atoms: C_4  and  C_5
REMARK    4  A    between atoms: C_5  and  O_6
REMARK    5  A    between atoms: O_6  and  C_7
REMARK    6  A    between atoms: C_7  and  C_8
REMARK    7  A    between atoms: C_8  and  C_9
REMARK    8  A    between atoms: N_17  and  C_18
REMARK                            x       y       z     vdW  Elec       q    Type
REMARK                         _______ _______ _______ _____ _____    ______ ____
ROOT
ATOM      1  O   UNL     1       8.454   7.059  18.935  0.00  0.00    +0.000 OA
ATOM      2  C   UNL     1       8.062   7.883  18.120  0.00  0.00    +0.000 C 
ATOM      3  N   UNL     1       7.337   7.604  16.985  0.00  0.00    +0.000 N 
ATOM      4  H   UNL     1       7.237   8.348  16.292  0.00  0.00    +0.000 HD
ENDROOT
BRANCH   2   5
ATOM      5  C   UNL     1       8.396   9.378  18.324  0.00  0.00    +0.000 C 
ATOM      6  O   UNL     1       7.860  10.214  17.601  0.00  0.00    +0.000 OA
ATOM      7  N   UNL     1       9.367   9.607  19.285  0.00  0.00    +0.000 N 
ATOM      8  H   UNL     1       9.966   8.814  19.499  0.00  0.00    +0.000 HD
BRANCH   7   9
ATOM      9  C   UNL     1       9.809  10.909  19.601  0.00  0.00    +0.000 A 
ATOM     10  C   UNL     1       9.485  11.525  20.814  0.00  0.00    +0.000 A 
ATOM     11  F   UNL     1       8.785  10.863  21.745  0.00  0.00    +0.000 F 
ATOM     12  C   UNL     1       9.959  12.800  21.124  0.00  0.00    +0.000 A 
ATOM     13  C   UNL     1      10.749  13.492  20.207  0.00  0.00    +0.000 A 
ATOM     14  C   UNL     1      11.074  12.894  18.987  0.00  0.00    +0.000 A 
ATOM     15  C   UNL     1      10.621  11.603  18.704  0.00  0.00    +0.000 A 
ATOM     16  F   UNL     1      10.920  11.060  17.515  0.00  0.00    +0.000 F 
ENDBRANCH   7   9
ENDBRANCH   2   5
BRANCH   3  17
ATOM     17  C   UNL     1       6.975   6.242  16.639  0.00  0.00    +0.000 C 
BRANCH  17  18
ATOM     18  C   UNL     1       5.624   5.792  17.194  0.00  0.00    +0.000 C 
BRANCH  18  19
ATOM     19  O   UNL     1       4.950   6.897  17.810  0.00  0.00    +0.000 OA
BRANCH  19  20
ATOM     20  C   UNL     1       3.546   6.867  17.531  0.00  0.00    +0.000 C 
BRANCH  20  21
ATOM     21  C   UNL     1       2.770   6.832  18.846  0.00  0.00    +0.000 C 
BRANCH  21  22
ATOM     22  C   UNL     1       2.170   5.474  19.111  0.00  0.00    +0.000 A 
ATOM     23  C   UNL     1       1.938   4.582  18.055  0.00  0.00    +0.000 A 
ATOM     24  C   UNL     1       1.349   3.339  18.294  0.00  0.00    +0.000 A 
ATOM     25  C   UNL     1       0.987   2.975  19.590  0.00  0.00    +0.000 A 
ATOM     26  C   UNL     1       1.216   3.853  20.648  0.00  0.00    +0.000 A 
ATOM     27  C   UNL     1       1.801   5.098  20.410  0.00  0.00    +0.000 A 
ENDBRANCH  21  22
ENDBRANCH  20  21
ENDBRANCH  19  20
ENDBRANCH  18  19
ENDBRANCH  17  18
ENDBRANCH   3  17
TORSDOF 8
ENDMDL
MODEL 4
REMARK VINA RESULT:      -7.4      3.193     10.113
REMARK  Name = 
REMARK  8 active torsions:
REMARK  status: ('A' for Active; 'I' for Inactive)
REMARK    1  A    between atoms: C_2  and  C_15
REMARK    2  A    between atoms: N_3  and  C_4
REMARK    3  A    between atoms: C_4  and  C_5
REMARK    4  A    between atoms: C_5  and  O_6
REMARK    5  A    between atoms: O_6  and  C_7
REMARK    6  A    between atoms: C_7  and  C_8
REMARK    7  A    between atoms: C_8  and  C_9
REMARK    8  A    between atoms: N_17  and  C_18
REMARK                            x       y       z     vdW  Elec       q    Type
REMARK                         _______ _______ _______ _____ _____    ______ ____
ROOT
ATOM      1  O   UNL     1       5.018   6.841  16.816  0.00  0.00    +0.000 OA
ATOM      2  C   UNL     1       5.615   6.344  17.761  0.00  0.00    +0.000 C 
ATOM      3  N   UNL     1       6.936   6.562  18.077  0.00  0.00    +0.000 N 
ATOM      4  H   UNL     1       7.365   5.945  18.770  0.00  0.00    +0.000 HD
ENDROOT
BRANCH   2   5
ATOM      5  C   UNL     1       4.875   5.368  18.704  0.00  0.00    +0.000 C 
ATOM      6  O   UNL     1       5.488   4.866  19.643  0.00  0.00    +0.000 OA
ATOM      7  N   UNL     1       3.575   5.094  18.315  0.00  0.00    +0.000 N 
ATOM      8  H   UNL     1       3.363   5.275  17.337  0.00  0.00    +0.000 HD
BRANCH   7   9
ATOM      9  C   UNL     1       2.748   4.216  19.047  0.00  0.00    +0.000 A 
ATOM     10  C   UNL     1       1.988   4.653  20.136  0.00  0.00    +0.000 A 
ATOM     11  F   UNL     1       1.980   5.948  20.482  0.00  0.00    +0.000 F 
ATOM     12  C   UNL     1       1.150   3.778  20.828  0.00  0.00    +0.000 A 
ATOM     13  C   UNL     1       1.079   2.437  20.452  0.00  0.00    +0.000 A 
ATOM     14  C   UNL     1       1.841   1.983  19.372  0.00  0.00    +0.000 A 
ATOM     15  C   UNL     1       2.649   2.877  18.667  0.00  0.00    +0.000 A 
ATOM     16  F   UNL     1       3.393   2.413  17.652  0.00  0.00    +0.000 F 
ENDBRANCH   7   9
ENDBRANCH   2   5
BRANCH   3  17
ATOM     17  C   UNL     1       7.771   7.428  17.266  0.00  0.00    +0.000 C 
BRANCH  17  18
ATOM     18  C   UNL     1       7.944   8.838  17.829  0.00  0.00    +0.000 C 
BRANCH  18  19
ATOM     19  O   UNL     1       8.864   8.823  18.927  0.00  0.00    +0.000 OA
BRANCH  19  20
ATOM     20  C   UNL     1       9.237  10.152  19.308  0.00  0.00    +0.000 C 
BRANCH  20  21
ATOM     21  C   UNL     1       9.490  10.984  18.052  0.00  0.00    +0.000 C 
BRANCH  21  22
ATOM     22  C   UNL     1      10.462  12.109  18.308  0.00  0.00    +0.000 A 
ATOM     23  C   UNL     1      10.592  13.158  17.388  0.00  0.00    +0.000 A 
ATOM     24  C   UNL     1      11.518  14.180  17.605  0.00  0.00    +0.000 A 
ATOM     25  C   UNL     1      12.323  14.164  18.743  0.00  0.00    +0.000 A 
ATOM     26  C   UNL     1      12.201  13.126  19.666  0.00  0.00    +0.000 A 
ATOM     27  C   UNL     1      11.278  12.102  19.449  0.00  0.00    +0.000 A 
ENDBRANCH  21  22
ENDBRANCH  20  21
ENDBRANCH  19  20
ENDBRANCH  18  19
ENDBRANCH  17  18
ENDBRANCH   3  17
TORSDOF 8
ENDMDL
MODEL 5
REMARK VINA RESULT:      -7.4      3.385      9.950
REMARK  Name = 
REMARK  8 active torsions:
REMARK  status: ('A' for Active; 'I' for Inactive)
REMARK    1  A    between atoms: C_2  and  C_15
REMARK    2  A    between atoms: N_3  and  C_4
REMARK    3  A    between atoms: C_4  and  C_5
REMARK    4  A    between atoms: C_5  and  O_6
REMARK    5  A    between atoms: O_6  and  C_7
REMARK    6  A    between atoms: C_7  and  C_8
REMARK    7  A    between atoms: C_8  and  C_9
REMARK    8  A    between atoms: N_17  and  C_18
REMARK                            x       y       z     vdW  Elec       q    Type
REMARK                         _______ _______ _______ _____ _____    ______ ____
ROOT
ATOM      1  O   UNL     1       6.056   4.855  15.773  0.00  0.00    +0.000 OA
ATOM      2  C   UNL     1       5.741   5.118  16.926  0.00  0.00    +0.000 C 
ATOM      3  N   UNL     1       6.349   6.054  17.728  0.00  0.00    +0.000 N 
ATOM      4  H   UNL     1       6.121   6.044  18.725  0.00  0.00    +0.000 HD
ENDROOT
BRANCH   2   5
ATOM      5  C   UNL     1       4.577   4.350  17.592  0.00  0.00    +0.000 C 
ATOM      6  O   UNL     1       3.917   3.563  16.919  0.00  0.00    +0.000 OA
ATOM      7  N   UNL     1       4.346   4.718  18.908  0.00  0.00    +0.000 N 
ATOM      8  H   UNL     1       4.710   5.628  19.177  0.00  0.00    +0.000 HD
BRANCH   7   9
ATOM      9  C   UNL     1       3.317   4.133  19.675  0.00  0.00    +0.000 A 
ATOM     10  C   UNL     1       3.486   2.906  20.324  0.00  0.00    +0.000 A 
ATOM     11  F   UNL     1       4.666   2.273  20.282  0.00  0.00    +0.000 F 
ATOM     12  C   UNL     1       2.468   2.359  21.106  0.00  0.00    +0.000 A 
ATOM     13  C   UNL     1       1.249   3.024  21.230  0.00  0.00    +0.000 A 
ATOM     14  C   UNL     1       1.062   4.246  20.579  0.00  0.00    +0.000 A 
ATOM     15  C   UNL     1       2.101   4.800  19.828  0.00  0.00    +0.000 A 
ATOM     16  F   UNL     1       1.889   5.959  19.187  0.00  0.00    +0.000 F 
ENDBRANCH   7   9
ENDBRANCH   2   5
BRANCH   3  17
ATOM     17  C   UNL     1       7.479   6.832  17.255  0.00  0.00    +0.000 C 
BRANCH  17  18
ATOM     18  C   UNL     1       8.094   7.750  18.311  0.00  0.00    +0.000 C 
BRANCH  18  19
ATOM     19  O   UNL     1       8.048   9.112  17.870  0.00  0.00    +0.000 OA
BRANCH  19  20
ATOM     20  C   UNL     1       8.997   9.918  18.579  0.00  0.00    +0.000 C 
BRANCH  20  21
ATOM     21  C   UNL     1       8.917  11.356  18.072  0.00  0.00    +0.000 C 
BRANCH  21  22
ATOM     22  C   UNL     1      10.095  12.181  18.530  0.00  0.00    +0.000 A 
ATOM     23  C   UNL     1      11.255  11.557  19.007  0.00  0.00    +0.000 A 
ATOM     24  C   UNL     1      12.331  12.319  19.466  0.00  0.00    +0.000 A 
ATOM     25  C   UNL     1      12.258  13.711  19.453  0.00  0.00    +0.000 A 
ATOM     26  C   UNL     1      11.109  14.342  18.978  0.00  0.00    +0.000 A 
ATOM     27  C   UNL     1      10.031  13.581  18.522  0.00  0.00    +0.000 A 
ENDBRANCH  21  22
ENDBRANCH  20  21
ENDBRANCH  19  20
ENDBRANCH  18  19
ENDBRANCH  17  18
ENDBRANCH   3  17
TORSDOF 8
ENDMDL
MODEL 6
REMARK VINA RESULT:      -7.3      3.219      9.882
REMARK  Name = 
REMARK  8 active torsions:
REMARK  status: ('A' for Active; 'I' for Inactive)
REMARK    1  A    between atoms: C_2  and  C_15
REMARK    2  A    between atoms: N_3  and  C_4
REMARK    3  A    between atoms: C_4  and  C_5
REMARK    4  A    between atoms: C_5  and  O_6
REMARK    5  A    between atoms: O_6  and  C_7
REMARK    6  A    between atoms: C_7  and  C_8
REMARK    7  A    between atoms: C_8  and  C_9
REMARK    8  A    between atoms: N_17  and  C_18
REMARK                            x       y       z     vdW  Elec       q    Type
REMARK                         _______ _______ _______ _____ _____    ______ ____
ROOT
ATOM      1  O   UNL     1       5.212   6.673  15.759  0.00  0.00    +0.000 OA
ATOM      2  C   UNL     1       5.174   6.386  16.948  0.00  0.00    +0.000 C 
ATOM      3  N   UNL     1       6.238   6.434  17.818  0.00  0.00    +0.000 N 
ATOM      4  H   UNL     1       6.123   5.990  18.732  0.00  0.00    +0.000 HD
ENDROOT
BRANCH   2   5
ATOM      5  C   UNL     1       3.844   5.908  17.575  0.00  0.00    +0.000 C 
ATOM      6  O   UNL     1       2.884   6.673  17.593  0.00  0.00    +0.000 OA
ATOM      7  N   UNL     1       3.917   4.648  18.146  0.00  0.00    +0.000 N 
ATOM      8  H   UNL     1       4.853   4.330  18.383  0.00  0.00    +0.000 HD
BRANCH   7   9
ATOM      9  C   UNL     1       2.805   4.050  18.775  0.00  0.00    +0.000 A 
ATOM     10  C   UNL     1       2.412   4.403  20.069  0.00  0.00    +0.000 A 
ATOM     11  F   UNL     1       3.054   5.373  20.734  0.00  0.00    +0.000 F 
ATOM     12  C   UNL     1       1.289   3.825  20.664  0.00  0.00    +0.000 A 
ATOM     13  C   UNL     1       0.554   2.861  19.975  0.00  0.00    +0.000 A 
ATOM     14  C   UNL     1       0.941   2.491  18.684  0.00  0.00    +0.000 A 
ATOM     15  C   UNL     1       2.046   3.103  18.088  0.00  0.00    +0.000 A 
ATOM     16  F   UNL     1       2.417   2.711  16.860  0.00  0.00    +0.000 F 
ENDBRANCH   7   9
ENDBRANCH   2   5
BRANCH   3  17
ATOM     17  C   UNL     1       7.560   6.831  17.370  0.00  0.00    +0.000 C 
BRANCH  17  18
ATOM     18  C   UNL     1       8.212   7.915  18.228  0.00  0.00    +0.000 C 
BRANCH  18  19
ATOM     19  O   UNL     1       7.730   9.208  17.843  0.00  0.00    +0.000 OA
BRANCH  19  20
ATOM     20  C   UNL     1       8.771  10.189  17.910  0.00  0.00    +0.000 C 
BRANCH  20  21
ATOM     21  C   UNL     1       9.338  10.229  19.328  0.00  0.00    +0.000 C 
BRANCH  21  22
ATOM     22  C   UNL     1      10.075  11.516  19.604  0.00  0.00    +0.000 A 
ATOM     23  C   UNL     1      11.434  11.638  19.283  0.00  0.00    +0.000 A 
ATOM     24  C   UNL     1      12.127  12.815  19.571  0.00  0.00    +0.000 A 
ATOM     25  C   UNL     1      11.470  13.880  20.183  0.00  0.00    +0.000 A 
ATOM     26  C   UNL     1      10.118  13.771  20.505  0.00  0.00    +0.000 A 
ATOM     27  C   UNL     1       9.424  12.594  20.220  0.00  0.00    +0.000 A 
ENDBRANCH  21  22
ENDBRANCH  20  21
ENDBRANCH  19  20
ENDBRANCH  18  19
ENDBRANCH  17  18
ENDBRANCH   3  17
TORSDOF 8
ENDMDL
MODEL 7
REMARK VINA RESULT:      -7.3      1.234      1.399
REMARK  Name = 
REMARK  8 active torsions:
REMARK  status: ('A' for Active; 'I' for Inactive)
REMARK    1  A    between atoms: C_2  and  C_15
REMARK    2  A    between atoms: N_3  and  C_4
REMARK    3  A    between atoms: C_4  and  C_5
REMARK    4  A    between atoms: C_5  and  O_6
REMARK    5  A    between atoms: O_6  and  C_7
REMARK    6  A    between atoms: C_7  and  C_8
REMARK    7  A    between atoms: C_8  and  C_9
REMARK    8  A    between atoms: N_17  and  C_18
REMARK                            x       y       z     vdW  Elec       q    Type
REMARK                         _______ _______ _______ _____ _____    ______ ____
ROOT
ATOM      1  O   UNL     1       8.464   7.132  18.832  0.00  0.00    +0.000 OA
ATOM      2  C   UNL     1       8.001   7.997  18.102  0.00  0.00    +0.000 C 
ATOM      3  N   UNL     1       7.134   7.783  17.056  0.00  0.00    +0.000 N 
ATOM      4  H   UNL     1       6.972   8.557  16.408  0.00  0.00    +0.000 HD
ENDROOT
BRANCH   2   5
ATOM      5  C   UNL     1       8.402   9.474  18.319  0.00  0.00    +0.000 C 
ATOM      6  O   UNL     1       7.939  10.334  17.574  0.00  0.00    +0.000 OA
ATOM      7  N   UNL     1       9.343   9.657  19.318  0.00  0.00    +0.000 N 
ATOM      8  H   UNL     1       9.891   8.834  19.557  0.00  0.00    +0.000 HD
BRANCH   7   9
ATOM      9  C   UNL     1       9.837  10.935  19.652  0.00  0.00    +0.000 A 
ATOM     10  C   UNL     1       9.491  11.572  20.847  0.00  0.00    +0.000 A 
ATOM     11  F   UNL     1       8.717  10.952  21.747  0.00  0.00    +0.000 F 
ATOM     12  C   UNL     1      10.017  12.822  21.175  0.00  0.00    +0.000 A 
ATOM     13  C   UNL     1      10.882  13.468  20.294  0.00  0.00    +0.000 A 
ATOM     14  C   UNL     1      11.230  12.849  19.090  0.00  0.00    +0.000 A 
ATOM     15  C   UNL     1      10.724  11.582  18.790  0.00  0.00    +0.000 A 
ATOM     16  F   UNL     1      11.047  11.019  17.617  0.00  0.00    +0.000 F 
ENDBRANCH   7   9
ENDBRANCH   2   5
BRANCH   3  17
ATOM     17  C   UNL     1       6.692   6.446  16.706  0.00  0.00    +0.000 C 
BRANCH  17  18
ATOM     18  C   UNL     1       5.281   6.385  16.121  0.00  0.00    +0.000 C 
BRANCH  18  19
ATOM     19  O   UNL     1       4.407   5.679  17.010  0.00  0.00    +0.000 OA
BRANCH  19  20
ATOM     20  C   UNL     1       4.754   4.291  17.081  0.00  0.00    +0.000 C 
BRANCH  20  21
ATOM     21  C   UNL     1       4.771   3.848  18.543  0.00  0.00    +0.000 C 
BRANCH  21  22
ATOM     22  C   UNL     1       3.383   3.806  19.134  0.00  0.00    +0.000 A 
ATOM     23  C   UNL     1       2.441   2.879  18.669  0.00  0.00    +0.000 A 
ATOM     24  C   UNL     1       1.146   2.863  19.189  0.00  0.00    +0.000 A 
ATOM     25  C   UNL     1       0.779   3.773  20.178  0.00  0.00    +0.000 A 
ATOM     26  C   UNL     1       1.709   4.699  20.650  0.00  0.00    +0.000 A 
ATOM     27  C   UNL     1       3.003   4.718  20.129  0.00  0.00    +0.000 A 
ENDBRANCH  21  22
ENDBRANCH  20  21
ENDBRANCH  19  20
ENDBRANCH  18  19
ENDBRANCH  17  18
ENDBRANCH   3  17
TORSDOF 8
ENDMDL
MODEL 8
REMARK VINA RESULT:      -7.2      1.321      1.683
REMARK  Name = 
REMARK  8 active torsions:
REMARK  status: ('A' for Active; 'I' for Inactive)
REMARK    1  A    between atoms: C_2  and  C_15
REMARK    2  A    between atoms: N_3  and  C_4
REMARK    3  A    between atoms: C_4  and  C_5
REMARK    4  A    between atoms: C_5  and  O_6
REMARK    5  A    between atoms: O_6  and  C_7
REMARK    6  A    between atoms: C_7  and  C_8
REMARK    7  A    between atoms: C_8  and  C_9
REMARK    8  A    between atoms: N_17  and  C_18
REMARK                            x       y       z     vdW  Elec       q    Type
REMARK                         _______ _______ _______ _____ _____    ______ ____
ROOT
ATOM      1  O   UNL     1       8.395   7.082  18.878  0.00  0.00    +0.000 OA
ATOM      2  C   UNL     1       7.990   7.914  18.077  0.00  0.00    +0.000 C 
ATOM      3  N   UNL     1       7.224   7.650  16.966  0.00  0.00    +0.000 N 
ATOM      4  H   UNL     1       7.113   8.399  16.279  0.00  0.00    +0.000 HD
ENDROOT
BRANCH   2   5
ATOM      5  C   UNL     1       8.354   9.403  18.275  0.00  0.00    +0.000 C 
ATOM      6  O   UNL     1       7.842  10.245  17.542  0.00  0.00    +0.000 OA
ATOM      7  N   UNL     1       9.321   9.618  19.243  0.00  0.00    +0.000 N 
ATOM      8  H   UNL     1       9.900   8.814  19.468  0.00  0.00    +0.000 HD
BRANCH   7   9
ATOM      9  C   UNL     1       9.787  10.913  19.555  0.00  0.00    +0.000 A 
ATOM     10  C   UNL     1       9.484  11.534  20.770  0.00  0.00    +0.000 A 
ATOM     11  F   UNL     1       8.781  10.885  21.708  0.00  0.00    +0.000 F 
ATOM     12  C   UNL     1       9.983  12.801  21.075  0.00  0.00    +0.000 A 
ATOM     13  C   UNL     1      10.776  13.480  20.151  0.00  0.00    +0.000 A 
ATOM     14  C   UNL     1      11.080  12.875  18.928  0.00  0.00    +0.000 A 
ATOM     15  C   UNL     1      10.603  11.592  18.650  0.00  0.00    +0.000 A 
ATOM     16  F   UNL     1      10.882  11.044  17.459  0.00  0.00    +0.000 F 
ENDBRANCH   7   9
ENDBRANCH   2   5
BRANCH   3  17
ATOM     17  C   UNL     1       6.830   6.295  16.628  0.00  0.00    +0.000 C 
BRANCH  17  18
ATOM     18  C   UNL     1       5.325   6.111  16.432  0.00  0.00    +0.000 C 
BRANCH  18  19
ATOM     19  O   UNL     1       4.643   6.248  17.684  0.00  0.00    +0.000 OA
BRANCH  19  20
ATOM     20  C   UNL     1       3.604   7.231  17.602  0.00  0.00    +0.000 C 
BRANCH  20  21
ATOM     21  C   UNL     1       2.608   7.010  18.738  0.00  0.00    +0.000 C 
BRANCH  21  22
ATOM     22  C   UNL     1       2.328   5.545  18.964  0.00  0.00    +0.000 A 
ATOM     23  C   UNL     1       2.619   4.949  20.199  0.00  0.00    +0.000 A 
ATOM     24  C   UNL     1       2.396   3.585  20.398  0.00  0.00    +0.000 A 
ATOM     25  C   UNL     1       1.880   2.804  19.365  0.00  0.00    +0.000 A 
ATOM     26  C   UNL     1       1.585   3.387  18.133  0.00  0.00    +0.000 A 
ATOM     27  C   UNL     1       1.811   4.749  17.932  0.00  0.00    +0.000 A 
ENDBRANCH  21  22
ENDBRANCH  20  21
ENDBRANCH  19  20
ENDBRANCH  18  19
ENDBRANCH  17  18
ENDBRANCH   3  17
TORSDOF 8
ENDMDL
MODEL 9
REMARK VINA RESULT:      -7.2      3.088     10.237
REMARK  Name = 
REMARK  8 active torsions:
REMARK  status: ('A' for Active; 'I' for Inactive)
REMARK    1  A    between atoms: C_2  and  C_15
REMARK    2  A    between atoms: N_3  and  C_4
REMARK    3  A    between atoms: C_4  and  C_5
REMARK    4  A    between atoms: C_5  and  O_6
REMARK    5  A    between atoms: O_6  and  C_7
REMARK    6  A    between atoms: C_7  and  C_8
REMARK    7  A    between atoms: C_8  and  C_9
REMARK    8  A    between atoms: N_17  and  C_18
REMARK                            x       y       z     vdW  Elec       q    Type
REMARK                         _______ _______ _______ _____ _____    ______ ____
ROOT
ATOM      1  O   UNL     1       7.482   4.800  18.455  0.00  0.00    +0.000 OA
ATOM      2  C   UNL     1       6.549   5.525  18.136  0.00  0.00    +0.000 C 
ATOM      3  N   UNL     1       6.655   6.836  17.734  0.00  0.00    +0.000 N 
ATOM      4  H   UNL     1       5.795   7.386  17.680  0.00  0.00    +0.000 HD
ENDROOT
BRANCH   2   5
ATOM      5  C   UNL     1       5.104   4.977  18.187  0.00  0.00    +0.000 C 
ATOM      6  O   UNL     1       4.430   4.976  17.160  0.00  0.00    +0.000 OA
ATOM      7  N   UNL     1       4.689   4.614  19.457  0.00  0.00    +0.000 N 
ATOM      8  H   UNL     1       5.210   5.032  20.223  0.00  0.00    +0.000 HD
BRANCH   7   9
ATOM      9  C   UNL     1       3.397   4.102  19.701  0.00  0.00    +0.000 A 
ATOM     10  C   UNL     1       2.346   4.922  20.122  0.00  0.00    +0.000 A 
ATOM     11  F   UNL     1       2.525   6.243  20.251  0.00  0.00    +0.000 F 
ATOM     12  C   UNL     1       1.066   4.404  20.325  0.00  0.00    +0.000 A 
ATOM     13  C   UNL     1       0.825   3.044  20.133  0.00  0.00    +0.000 A 
ATOM     14  C   UNL     1       1.868   2.211  19.722  0.00  0.00    +0.000 A 
ATOM     15  C   UNL     1       3.136   2.748  19.488  0.00  0.00    +0.000 A 
ATOM     16  F   UNL     1       4.129   1.925  19.123  0.00  0.00    +0.000 F 
ENDBRANCH   7   9
ENDBRANCH   2   5
BRANCH   3  17
ATOM     17  C   UNL     1       7.942   7.502  17.667  0.00  0.00    +0.000 C 
BRANCH  17  18
ATOM     18  C   UNL     1       7.869   9.022  17.803  0.00  0.00    +0.000 C 
BRANCH  18  19
ATOM     19  O   UNL     1       8.852   9.483  18.738  0.00  0.00    +0.000 OA
BRANCH  19  20
ATOM     20  C   UNL     1       9.158  10.866  18.528  0.00  0.00    +0.000 C 
BRANCH  20  21
ATOM     21  C   UNL     1      10.634  11.110  18.833  0.00  0.00    +0.000 C 
BRANCH  21  22
ATOM     22  C   UNL     1      11.025  12.550  18.612  0.00  0.00    +0.000 A 
ATOM     23  C   UNL     1      11.204  13.046  17.314  0.00  0.00    +0.000 A 
ATOM     24  C   UNL     1      11.602  14.369  17.109  0.00  0.00    +0.000 A 
ATOM     25  C   UNL     1      11.825  15.208  18.199  0.00  0.00    +0.000 A 
ATOM     26  C   UNL     1      11.648  14.725  19.495  0.00  0.00    +0.000 A 
ATOM     27  C   UNL     1      11.254  13.403  19.702  0.00  0.00    +0.000 A 
ENDBRANCH  21  22
ENDBRANCH  20  21
ENDBRANCH  19  20
ENDBRANCH  18  19
ENDBRANCH  17  18
ENDBRANCH   3  17
TORSDOF 8
ENDMDL
