MODEL 1
REMARK VINA RESULT:      -8.4      0.000      0.000
REMARK  Name = 
REMARK  5 active torsions:
REMARK  status: ('A' for Active; 'I' for Inactive)
REMARK    1  A    between atoms: C_1  and  C_2
REMARK    2  A    between atoms: C_2  and  O_3
REMARK    3  A    between atoms: C_2  and  C_18
REMARK    4  A    between atoms: O_3  and  C_4
REMARK    5  A    between atoms: C_6  and  C_7
REMARK                            x       y       z     vdW  Elec       q    Type
REMARK                         _______ _______ _______ _____ _____    ______ ____
ROOT
ATOM      1  C   UNL     1       3.203   5.957  19.050  0.00  0.00    +0.000 A 
ATOM      2  N   UNL     1       4.248   6.119  18.223  0.00  0.00    +0.000 NA
ATOM      3  C   UNL     1       4.697   5.031  17.564  0.00  0.00    +0.000 A 
ATOM      4  N   UNL     1       4.200   3.791  17.781  0.00  0.00    +0.000 NA
ATOM      5  C   UNL     1       3.152   3.653  18.602  0.00  0.00    +0.000 A 
ATOM      6  C   UNL     1       2.624   2.384  18.806  0.00  0.00    +0.000 A 
ATOM      7  C   UNL     1       1.486   2.176  19.590  0.00  0.00    +0.000 A 
ATOM      8  C   UNL     1       0.848   3.261  20.179  0.00  0.00    +0.000 A 
ATOM      9  C   UNL     1       1.385   4.539  20.021  0.00  0.00    +0.000 A 
ATOM     10  C   UNL     1       2.555   4.738  19.248  0.00  0.00    +0.000 A 
ENDROOT
BRANCH   3  11
ATOM     11  C   UNL     1       5.745   5.206  16.453  0.00  0.00    +0.000 C 
ATOM     12 CL   UNL     1       7.358   5.700  17.086  0.00  0.00    +0.000 Cl
ATOM     13 CL   UNL     1       5.962   3.677  15.538  0.00  0.00    +0.000 Cl
ATOM     14 CL   UNL     1       5.199   6.494  15.315  0.00  0.00    +0.000 Cl
ENDBRANCH   3  11
BRANCH   1  15
ATOM     15  O   UNL     1       2.742   7.059  19.752  0.00  0.00    +0.000 OA
BRANCH  15  17
ATOM     16  C   UNL     1       2.561   8.862  18.111  0.00  0.00    +0.000 C 
ATOM     17  C   UNL     1       1.810   7.902  19.044  0.00  0.00    +0.000 C 
BRANCH  17  18
ATOM     18  C   UNL     1       1.016   8.734  20.049  0.00  0.00    +0.000 A 
ATOM     19  C   UNL     1       1.271   8.605  21.428  0.00  0.00    +0.000 A 
ATOM     20  C   UNL     1       0.626   9.423  22.361  0.00  0.00    +0.000 A 
ATOM     21  C   UNL     1      -0.277  10.387  21.924  0.00  0.00    +0.000 A 
ATOM     22 CL   UNL     1      -1.036  11.427  23.064  0.00  0.00    +0.000 Cl
ATOM     23  C   UNL     1      -0.557  10.529  20.568  0.00  0.00    +0.000 A 
ATOM     24  C   UNL     1       0.083   9.706  19.636  0.00  0.00    +0.000 A 
ATOM     25 CL   UNL     1      -0.318   9.950  17.973  0.00  0.00    +0.000 Cl
ENDBRANCH  17  18
ENDBRANCH  15  17
ENDBRANCH   1  15
TORSDOF 4
ENDMDL
MODEL 2
REMARK VINA RESULT:      -8.3      0.108      1.017
REMARK  Name = 
REMARK  5 active torsions:
REMARK  status: ('A' for Active; 'I' for Inactive)
REMARK    1  A    between atoms: C_1  and  C_2
REMARK    2  A    between atoms: C_2  and  O_3
REMARK    3  A    between atoms: C_2  and  C_18
REMARK    4  A    between atoms: O_3  and  C_4
REMARK    5  A    between atoms: C_6  and  C_7
REMARK                            x       y       z     vdW  Elec       q    Type
REMARK                         _______ _______ _______ _____ _____    ______ ____
ROOT
ATOM      1  C   UNL     1       3.185   6.012  19.113  0.00  0.00    +0.000 A 
ATOM      2  N   UNL     1       4.208   6.177  18.260  0.00  0.00    +0.000 NA
ATOM      3  C   UNL     1       4.664   5.084  17.614  0.00  0.00    +0.000 A 
ATOM      4  N   UNL     1       4.196   3.840  17.867  0.00  0.00    +0.000 NA
ATOM      5  C   UNL     1       3.169   3.699  18.713  0.00  0.00    +0.000 A 
ATOM      6  C   UNL     1       2.670   2.424  18.955  0.00  0.00    +0.000 A 
ATOM      7  C   UNL     1       1.553   2.211  19.767  0.00  0.00    +0.000 A 
ATOM      8  C   UNL     1       0.908   3.296  20.347  0.00  0.00    +0.000 A 
ATOM      9  C   UNL     1       1.415   4.580  20.153  0.00  0.00    +0.000 A 
ATOM     10  C   UNL     1       2.565   4.785  19.350  0.00  0.00    +0.000 A 
ENDROOT
BRANCH   3  11
ATOM     11  C   UNL     1       5.685   5.256  16.477  0.00  0.00    +0.000 C 
ATOM     12 CL   UNL     1       5.929   3.747  15.523  0.00  0.00    +0.000 Cl
ATOM     13 CL   UNL     1       5.158   6.542  15.340  0.00  0.00    +0.000 Cl
ATOM     14 CL   UNL     1       7.284   5.713  17.175  0.00  0.00    +0.000 Cl
ENDBRANCH   3  11
BRANCH   1  15
ATOM     15  O   UNL     1       2.717   7.119  19.803  0.00  0.00    +0.000 OA
BRANCH  15  17
ATOM     16  C   UNL     1       2.554   8.901  18.136  0.00  0.00    +0.000 C 
ATOM     17  C   UNL     1       1.794   7.958  19.079  0.00  0.00    +0.000 C 
BRANCH  17  18
ATOM     18  C   UNL     1       1.001   8.808  20.069  0.00  0.00    +0.000 A 
ATOM     19  C   UNL     1       1.256   8.704  21.450  0.00  0.00    +0.000 A 
ATOM     20  C   UNL     1       0.612   9.539  22.368  0.00  0.00    +0.000 A 
ATOM     21  C   UNL     1      -0.291  10.496  21.915  0.00  0.00    +0.000 A 
ATOM     22 CL   UNL     1      -1.048  11.557  23.036  0.00  0.00    +0.000 Cl
ATOM     23  C   UNL     1      -0.571  10.613  20.556  0.00  0.00    +0.000 A 
ATOM     24  C   UNL     1       0.068   9.773  19.640  0.00  0.00    +0.000 A 
ATOM     25 CL   UNL     1      -0.335   9.987  17.973  0.00  0.00    +0.000 Cl
ENDBRANCH  17  18
ENDBRANCH  15  17
ENDBRANCH   1  15
TORSDOF 4
ENDMDL
MODEL 3
REMARK VINA RESULT:      -8.3      0.103      1.012
REMARK  Name = 
REMARK  5 active torsions:
REMARK  status: ('A' for Active; 'I' for Inactive)
REMARK    1  A    between atoms: C_1  and  C_2
REMARK    2  A    between atoms: C_2  and  O_3
REMARK    3  A    between atoms: C_2  and  C_18
REMARK    4  A    between atoms: O_3  and  C_4
REMARK    5  A    between atoms: C_6  and  C_7
REMARK                            x       y       z     vdW  Elec       q    Type
REMARK                         _______ _______ _______ _____ _____    ______ ____
ROOT
ATOM      1  C   UNL     1       3.150   6.008  19.066  0.00  0.00    +0.000 A 
ATOM      2  N   UNL     1       4.170   6.206  18.216  0.00  0.00    +0.000 NA
ATOM      3  C   UNL     1       4.639   5.135  17.545  0.00  0.00    +0.000 A 
ATOM      4  N   UNL     1       4.188   3.878  17.769  0.00  0.00    +0.000 NA
ATOM      5  C   UNL     1       3.164   3.705  18.614  0.00  0.00    +0.000 A 
ATOM      6  C   UNL     1       2.683   2.418  18.827  0.00  0.00    +0.000 A 
ATOM      7  C   UNL     1       1.570   2.172  19.636  0.00  0.00    +0.000 A 
ATOM      8  C   UNL     1       0.911   3.235  20.241  0.00  0.00    +0.000 A 
ATOM      9  C   UNL     1       1.402   4.530  20.075  0.00  0.00    +0.000 A 
ATOM     10  C   UNL     1       2.547   4.768  19.276  0.00  0.00    +0.000 A 
ENDROOT
BRANCH   3  11
ATOM     11  C   UNL     1       5.656   5.346  16.410  0.00  0.00    +0.000 C 
ATOM     12 CL   UNL     1       5.144   6.617  15.241  0.00  0.00    +0.000 Cl
ATOM     13 CL   UNL     1       7.255   5.825  17.072  0.00  0.00    +0.000 Cl
ATOM     14 CL   UNL     1       5.844   3.809  15.485  0.00  0.00    +0.000 Cl
ENDBRANCH   3  11
BRANCH   1  15
ATOM     15  O   UNL     1       2.669   7.093  19.781  0.00  0.00    +0.000 OA
BRANCH  15  17
ATOM     16  C   UNL     1       2.541   8.906  18.145  0.00  0.00    +0.000 C 
ATOM     17  C   UNL     1       1.762   7.957  19.066  0.00  0.00    +0.000 C 
BRANCH  17  18
ATOM     18  C   UNL     1       0.972   8.799  20.066  0.00  0.00    +0.000 A 
ATOM     19  C   UNL     1       1.234   8.686  21.445  0.00  0.00    +0.000 A 
ATOM     20  C   UNL     1       0.593   9.514  22.371  0.00  0.00    +0.000 A 
ATOM     21  C   UNL     1      -0.313  10.473  21.928  0.00  0.00    +0.000 A 
ATOM     22 CL   UNL     1      -1.067  11.525  23.060  0.00  0.00    +0.000 Cl
ATOM     23  C   UNL     1      -0.599  10.599  20.572  0.00  0.00    +0.000 A 
ATOM     24  C   UNL     1       0.036   9.766  19.647  0.00  0.00    +0.000 A 
ATOM     25 CL   UNL     1      -0.374   9.991  17.983  0.00  0.00    +0.000 Cl
ENDBRANCH  17  18
ENDBRANCH  15  17
ENDBRANCH   1  15
TORSDOF 4
ENDMDL
MODEL 4
REMARK VINA RESULT:      -8.2      1.648      2.506
REMARK  Name = 
REMARK  5 active torsions:
REMARK  status: ('A' for Active; 'I' for Inactive)
REMARK    1  A    between atoms: C_1  and  C_2
REMARK    2  A    between atoms: C_2  and  O_3
REMARK    3  A    between atoms: C_2  and  C_18
REMARK    4  A    between atoms: O_3  and  C_4
REMARK    5  A    between atoms: C_6  and  C_7
REMARK                            x       y       z     vdW  Elec       q    Type
REMARK                         _______ _______ _______ _____ _____    ______ ____
ROOT
ATOM      1  C   UNL     1       3.283   5.886  18.406  0.00  0.00    +0.000 A 
ATOM      2  N   UNL     1       4.571   6.264  18.373  0.00  0.00    +0.000 NA
ATOM      3  C   UNL     1       5.506   5.292  18.371  0.00  0.00    +0.000 A 
ATOM      4  N   UNL     1       5.195   3.981  18.498  0.00  0.00    +0.000 NA
ATOM      5  C   UNL     1       3.905   3.626  18.520  0.00  0.00    +0.000 A 
ATOM      6  C   UNL     1       3.583   2.277  18.624  0.00  0.00    +0.000 A 
ATOM      7  C   UNL     1       2.260   1.829  18.577  0.00  0.00    +0.000 A 
ATOM      8  C   UNL     1       1.229   2.746  18.411  0.00  0.00    +0.000 A 
ATOM      9  C   UNL     1       1.525   4.107  18.346  0.00  0.00    +0.000 A 
ATOM     10  C   UNL     1       2.867   4.555  18.422  0.00  0.00    +0.000 A 
ENDROOT
BRANCH   3  11
ATOM     11  C   UNL     1       6.976   5.666  18.120  0.00  0.00    +0.000 C 
ATOM     12 CL   UNL     1       7.164   7.285  17.352  0.00  0.00    +0.000 Cl
ATOM     13 CL   UNL     1       7.899   5.681  19.660  0.00  0.00    +0.000 Cl
ATOM     14 CL   UNL     1       7.717   4.455  17.008  0.00  0.00    +0.000 Cl
ENDBRANCH   3  11
BRANCH   1  15
ATOM     15  O   UNL     1       2.308   6.871  18.431  0.00  0.00    +0.000 OA
BRANCH  15  17
ATOM     16  C   UNL     1       1.532   6.713  20.744  0.00  0.00    +0.000 C 
ATOM     17  C   UNL     1       2.186   7.596  19.672  0.00  0.00    +0.000 C 
BRANCH  17  18
ATOM     18  C   UNL     1       1.303   8.822  19.456  0.00  0.00    +0.000 A 
ATOM     19  C   UNL     1       0.850   9.146  18.163  0.00  0.00    +0.000 A 
ATOM     20  C   UNL     1      -0.036  10.208  17.954  0.00  0.00    +0.000 A 
ATOM     21  C   UNL     1      -0.488  10.953  19.039  0.00  0.00    +0.000 A 
ATOM     22 CL   UNL     1      -1.615  12.228  18.791  0.00  0.00    +0.000 Cl
ATOM     23  C   UNL     1      -0.047  10.662  20.326  0.00  0.00    +0.000 A 
ATOM     24  C   UNL     1       0.844   9.606  20.534  0.00  0.00    +0.000 A 
ATOM     25 CL   UNL     1       1.338   9.311  22.164  0.00  0.00    +0.000 Cl
ENDBRANCH  17  18
ENDBRANCH  15  17
ENDBRANCH   1  15
TORSDOF 4
ENDMDL
MODEL 5
REMARK VINA RESULT:      -8.1      1.305      1.621
REMARK  Name = 
REMARK  5 active torsions:
REMARK  status: ('A' for Active; 'I' for Inactive)
REMARK    1  A    between atoms: C_1  and  C_2
REMARK    2  A    between atoms: C_2  and  O_3
REMARK    3  A    between atoms: C_2  and  C_18
REMARK    4  A    between atoms: O_3  and  C_4
REMARK    5  A    between atoms: C_6  and  C_7
REMARK                            x       y       z     vdW  Elec       q    Type
REMARK                         _______ _______ _______ _____ _____    ______ ____
ROOT
ATOM      1  C   UNL     1       3.034   5.699  18.225  0.00  0.00    +0.000 A 
ATOM      2  N   UNL     1       4.272   6.081  17.872  0.00  0.00    +0.000 NA
ATOM      3  C   UNL     1       5.156   5.113  17.553  0.00  0.00    +0.000 A 
ATOM      4  N   UNL     1       4.868   3.796  17.671  0.00  0.00    +0.000 NA
ATOM      5  C   UNL     1       3.626   3.437  18.015  0.00  0.00    +0.000 A 
ATOM      6  C   UNL     1       3.321   2.084  18.112  0.00  0.00    +0.000 A 
ATOM      7  C   UNL     1       2.027   1.638  18.393  0.00  0.00    +0.000 A 
ATOM      8  C   UNL     1       1.005   2.561  18.572  0.00  0.00    +0.000 A 
ATOM      9  C   UNL     1       1.295   3.924  18.521  0.00  0.00    +0.000 A 
ATOM     10  C   UNL     1       2.616   4.369  18.263  0.00  0.00    +0.000 A 
ENDROOT
BRANCH   3  11
ATOM     11  C   UNL     1       6.510   5.506  16.941  0.00  0.00    +0.000 C 
ATOM     12 CL   UNL     1       6.948   7.225  17.258  0.00  0.00    +0.000 Cl
ATOM     13 CL   UNL     1       7.827   4.478  17.599  0.00  0.00    +0.000 Cl
ATOM     14 CL   UNL     1       6.441   5.292  15.152  0.00  0.00    +0.000 Cl
ENDBRANCH   3  11
BRANCH   1  15
ATOM     15  O   UNL     1       2.118   6.678  18.577  0.00  0.00    +0.000 OA
BRANCH  15  17
ATOM     16  C   UNL     1       2.008   6.206  20.973  0.00  0.00    +0.000 C 
ATOM     17  C   UNL     1       2.295   7.253  19.888  0.00  0.00    +0.000 C 
BRANCH  17  18
ATOM     18  C   UNL     1       1.316   8.411  20.068  0.00  0.00    +0.000 A 
ATOM     19  C   UNL     1       0.553   8.512  21.247  0.00  0.00    +0.000 A 
ATOM     20  C   UNL     1      -0.279   9.612  21.476  0.00  0.00    +0.000 A 
ATOM     21  C   UNL     1      -0.350  10.632  20.532  0.00  0.00    +0.000 A 
ATOM     22 CL   UNL     1      -1.334  12.010  20.832  0.00  0.00    +0.000 Cl
ATOM     23  C   UNL     1       0.385  10.552  19.352  0.00  0.00    +0.000 A 
ATOM     24  C   UNL     1       1.210   9.449  19.120  0.00  0.00    +0.000 A 
ATOM     25 CL   UNL     1       2.090   9.431  17.633  0.00  0.00    +0.000 Cl
ENDBRANCH  17  18
ENDBRANCH  15  17
ENDBRANCH   1  15
TORSDOF 4
ENDMDL
MODEL 6
REMARK VINA RESULT:      -8.1      1.315      1.889
REMARK  Name = 
REMARK  5 active torsions:
REMARK  status: ('A' for Active; 'I' for Inactive)
REMARK    1  A    between atoms: C_1  and  C_2
REMARK    2  A    between atoms: C_2  and  O_3
REMARK    3  A    between atoms: C_2  and  C_18
REMARK    4  A    between atoms: O_3  and  C_4
REMARK    5  A    between atoms: C_6  and  C_7
REMARK                            x       y       z     vdW  Elec       q    Type
REMARK                         _______ _______ _______ _____ _____    ______ ____
ROOT
ATOM      1  C   UNL     1       3.053   5.707  18.202  0.00  0.00    +0.000 A 
ATOM      2  N   UNL     1       4.292   6.085  17.847  0.00  0.00    +0.000 NA
ATOM      3  C   UNL     1       5.172   5.114  17.525  0.00  0.00    +0.000 A 
ATOM      4  N   UNL     1       4.880   3.798  17.640  0.00  0.00    +0.000 NA
ATOM      5  C   UNL     1       3.637   3.443  17.987  0.00  0.00    +0.000 A 
ATOM      6  C   UNL     1       3.328   2.091  18.082  0.00  0.00    +0.000 A 
ATOM      7  C   UNL     1       2.032   1.649  18.365  0.00  0.00    +0.000 A 
ATOM      8  C   UNL     1       1.014   2.576  18.548  0.00  0.00    +0.000 A 
ATOM      9  C   UNL     1       1.309   3.938  18.498  0.00  0.00    +0.000 A 
ATOM     10  C   UNL     1       2.631   4.378  18.239  0.00  0.00    +0.000 A 
ENDROOT
BRANCH   3  11
ATOM     11  C   UNL     1       6.527   5.504  16.910  0.00  0.00    +0.000 C 
ATOM     12 CL   UNL     1       6.592   5.228  15.131  0.00  0.00    +0.000 Cl
ATOM     13 CL   UNL     1       6.884   7.238  17.208  0.00  0.00    +0.000 Cl
ATOM     14 CL   UNL     1       7.829   4.503  17.656  0.00  0.00    +0.000 Cl
ENDBRANCH   3  11
BRANCH   1  15
ATOM     15  O   UNL     1       2.142   6.688  18.557  0.00  0.00    +0.000 OA
BRANCH  15  17
ATOM     16  C   UNL     1       2.018   6.188  20.947  0.00  0.00    +0.000 C 
ATOM     17  C   UNL     1       2.312   7.247  19.876  0.00  0.00    +0.000 C 
BRANCH  17  18
ATOM     18  C   UNL     1       1.334   8.404  20.065  0.00  0.00    +0.000 A 
ATOM     19  C   UNL     1       0.581   8.505  21.251  0.00  0.00    +0.000 A 
ATOM     20  C   UNL     1      -0.250   9.604  21.488  0.00  0.00    +0.000 A 
ATOM     21  C   UNL     1      -0.330  10.623  20.543  0.00  0.00    +0.000 A 
ATOM     22 CL   UNL     1      -1.313  12.000  20.853  0.00  0.00    +0.000 Cl
ATOM     23  C   UNL     1       0.393  10.544  19.357  0.00  0.00    +0.000 A 
ATOM     24  C   UNL     1       1.218   9.441  19.118  0.00  0.00    +0.000 A 
ATOM     25 CL   UNL     1       2.083   9.424  17.622  0.00  0.00    +0.000 Cl
ENDBRANCH  17  18
ENDBRANCH  15  17
ENDBRANCH   1  15
TORSDOF 4
ENDMDL
MODEL 7
REMARK VINA RESULT:      -8.1      1.637      2.324
REMARK  Name = 
REMARK  5 active torsions:
REMARK  status: ('A' for Active; 'I' for Inactive)
REMARK    1  A    between atoms: C_1  and  C_2
REMARK    2  A    between atoms: C_2  and  O_3
REMARK    3  A    between atoms: C_2  and  C_18
REMARK    4  A    between atoms: O_3  and  C_4
REMARK    5  A    between atoms: C_6  and  C_7
REMARK                            x       y       z     vdW  Elec       q    Type
REMARK                         _______ _______ _______ _____ _____    ______ ____
ROOT
ATOM      1  C   UNL     1       3.270   5.903  18.387  0.00  0.00    +0.000 A 
ATOM      2  N   UNL     1       4.561   6.270  18.348  0.00  0.00    +0.000 NA
ATOM      3  C   UNL     1       5.487   5.290  18.338  0.00  0.00    +0.000 A 
ATOM      4  N   UNL     1       5.166   3.981  18.460  0.00  0.00    +0.000 NA
ATOM      5  C   UNL     1       3.872   3.637  18.487  0.00  0.00    +0.000 A 
ATOM      6  C   UNL     1       3.539   2.291  18.588  0.00  0.00    +0.000 A 
ATOM      7  C   UNL     1       2.212   1.855  18.546  0.00  0.00    +0.000 A 
ATOM      8  C   UNL     1       1.188   2.781  18.389  0.00  0.00    +0.000 A 
ATOM      9  C   UNL     1       1.496   4.139  18.328  0.00  0.00    +0.000 A 
ATOM     10  C   UNL     1       2.842   4.576  18.399  0.00  0.00    +0.000 A 
ENDROOT
BRANCH   3  11
ATOM     11  C   UNL     1       6.960   5.651  18.080  0.00  0.00    +0.000 C 
ATOM     12 CL   UNL     1       7.940   5.704  19.591  0.00  0.00    +0.000 Cl
ATOM     13 CL   UNL     1       7.723   4.459  16.976  0.00  0.00    +0.000 Cl
ATOM     14 CL   UNL     1       7.049   7.287  17.325  0.00  0.00    +0.000 Cl
ENDBRANCH   3  11
BRANCH   1  15
ATOM     15  O   UNL     1       2.304   6.896  18.420  0.00  0.00    +0.000 OA
BRANCH  15  17
ATOM     16  C   UNL     1       1.539   6.701  20.734  0.00  0.00    +0.000 C 
ATOM     17  C   UNL     1       2.181   7.603  19.672  0.00  0.00    +0.000 C 
BRANCH  17  18
ATOM     18  C   UNL     1       1.288   8.825  19.477  0.00  0.00    +0.000 A 
ATOM     19  C   UNL     1       0.819   9.158  18.191  0.00  0.00    +0.000 A 
ATOM     20  C   UNL     1      -0.077  10.214  18.000  0.00  0.00    +0.000 A 
ATOM     21  C   UNL     1      -0.523  10.947  19.096  0.00  0.00    +0.000 A 
ATOM     22 CL   UNL     1      -1.662  12.215  18.871  0.00  0.00    +0.000 Cl
ATOM     23  C   UNL     1      -0.067  10.648  20.377  0.00  0.00    +0.000 A 
ATOM     24  C   UNL     1       0.834   9.596  20.566  0.00  0.00    +0.000 A 
ATOM     25 CL   UNL     1       1.347   9.289  22.188  0.00  0.00    +0.000 Cl
ENDBRANCH  17  18
ENDBRANCH  15  17
ENDBRANCH   1  15
TORSDOF 4
ENDMDL
MODEL 8
REMARK VINA RESULT:      -8.1      1.635      2.527
REMARK  Name = 
REMARK  5 active torsions:
REMARK  status: ('A' for Active; 'I' for Inactive)
REMARK    1  A    between atoms: C_1  and  C_2
REMARK    2  A    between atoms: C_2  and  O_3
REMARK    3  A    between atoms: C_2  and  C_18
REMARK    4  A    between atoms: O_3  and  C_4
REMARK    5  A    between atoms: C_6  and  C_7
REMARK                            x       y       z     vdW  Elec       q    Type
REMARK                         _______ _______ _______ _____ _____    ______ ____
ROOT
ATOM      1  C   UNL     1       3.242   5.863  18.463  0.00  0.00    +0.000 A 
ATOM      2  N   UNL     1       4.531   6.237  18.419  0.00  0.00    +0.000 NA
ATOM      3  C   UNL     1       5.463   5.263  18.400  0.00  0.00    +0.000 A 
ATOM      4  N   UNL     1       5.150   3.951  18.521  0.00  0.00    +0.000 NA
ATOM      5  C   UNL     1       3.859   3.600  18.553  0.00  0.00    +0.000 A 
ATOM      6  C   UNL     1       3.533   2.252  18.651  0.00  0.00    +0.000 A 
ATOM      7  C   UNL     1       2.209   1.808  18.614  0.00  0.00    +0.000 A 
ATOM      8  C   UNL     1       1.179   2.729  18.466  0.00  0.00    +0.000 A 
ATOM      9  C   UNL     1       1.479   4.089  18.407  0.00  0.00    +0.000 A 
ATOM     10  C   UNL     1       2.823   4.533  18.473  0.00  0.00    +0.000 A 
ENDROOT
BRANCH   3  11
ATOM     11  C   UNL     1       6.932   5.633  18.137  0.00  0.00    +0.000 C 
ATOM     12 CL   UNL     1       7.773   4.445  17.075  0.00  0.00    +0.000 Cl
ATOM     13 CL   UNL     1       7.049   7.244  17.353  0.00  0.00    +0.000 Cl
ATOM     14 CL   UNL     1       7.826   5.680  19.702  0.00  0.00    +0.000 Cl
ENDBRANCH   3  11
BRANCH   1  15
ATOM     15  O   UNL     1       2.271   6.851  18.504  0.00  0.00    +0.000 OA
BRANCH  15  17
ATOM     16  C   UNL     1       1.479   6.688  20.811  0.00  0.00    +0.000 C 
ATOM     17  C   UNL     1       2.163   7.564  19.753  0.00  0.00    +0.000 C 
BRANCH  17  18
ATOM     18  C   UNL     1       1.315   8.817  19.547  0.00  0.00    +0.000 A 
ATOM     19  C   UNL     1       0.866   9.161  18.257  0.00  0.00    +0.000 A 
ATOM     20  C   UNL     1       0.010  10.248  18.056  0.00  0.00    +0.000 A 
ATOM     21  C   UNL     1      -0.416  11.001  19.146  0.00  0.00    +0.000 A 
ATOM     22 CL   UNL     1      -1.507  12.309  18.908  0.00  0.00    +0.000 Cl
ATOM     23  C   UNL     1       0.021  10.691  20.430  0.00  0.00    +0.000 A 
ATOM     24  C   UNL     1       0.882   9.609  20.630  0.00  0.00    +0.000 A 
ATOM     25 CL   UNL     1       1.374   9.291  22.256  0.00  0.00    +0.000 Cl
ENDBRANCH  17  18
ENDBRANCH  15  17
ENDBRANCH   1  15
TORSDOF 4
ENDMDL
MODEL 9
REMARK VINA RESULT:      -7.8      3.608      8.289
REMARK  Name = 
REMARK  5 active torsions:
REMARK  status: ('A' for Active; 'I' for Inactive)
REMARK    1  A    between atoms: C_1  and  C_2
REMARK    2  A    between atoms: C_2  and  O_3
REMARK    3  A    between atoms: C_2  and  C_18
REMARK    4  A    between atoms: O_3  and  C_4
REMARK    5  A    between atoms: C_6  and  C_7
REMARK                            x       y       z     vdW  Elec       q    Type
REMARK                         _______ _______ _______ _____ _____    ______ ____
ROOT
ATOM      1  C   UNL     1      -0.830  10.396  18.664  0.00  0.00    +0.000 A 
ATOM      2  N   UNL     1      -0.626  10.885  19.898  0.00  0.00    +0.000 NA
ATOM      3  C   UNL     1      -1.603  11.641  20.438  0.00  0.00    +0.000 A 
ATOM      4  N   UNL     1      -2.715  11.995  19.752  0.00  0.00    +0.000 NA
ATOM      5  C   UNL     1      -2.903  11.489  18.528  0.00  0.00    +0.000 A 
ATOM      6  C   UNL     1      -4.056  11.831  17.831  0.00  0.00    +0.000 A 
ATOM      7  C   UNL     1      -4.353  11.282  16.581  0.00  0.00    +0.000 A 
ATOM      8  C   UNL     1      -3.484  10.358  16.012  0.00  0.00    +0.000 A 
ATOM      9  C   UNL     1      -2.301  10.032  16.673  0.00  0.00    +0.000 A 
ATOM     10  C   UNL     1      -1.994  10.615  17.928  0.00  0.00    +0.000 A 
ENDROOT
BRANCH   3  11
ATOM     11  C   UNL     1      -1.509  12.043  21.920  0.00  0.00    +0.000 C 
ATOM     12 CL   UNL     1      -3.102  12.509  22.620  0.00  0.00    +0.000 Cl
ATOM     13 CL   UNL     1      -0.855  10.692  22.904  0.00  0.00    +0.000 Cl
ATOM     14 CL   UNL     1      -0.414  13.467  22.083  0.00  0.00    +0.000 Cl
ENDBRANCH   3  11
BRANCH   1  15
ATOM     15  O   UNL     1       0.172   9.635  18.084  0.00  0.00    +0.000 OA
BRANCH  15  17
ATOM     16  C   UNL     1       2.377  10.674  17.887  0.00  0.00    +0.000 C 
ATOM     17  C   UNL     1       1.471   9.741  18.702  0.00  0.00    +0.000 C 
BRANCH  17  18
ATOM     18  C   UNL     1       2.122   8.360  18.748  0.00  0.00    +0.000 A 
ATOM     19  C   UNL     1       2.954   7.938  17.694  0.00  0.00    +0.000 A 
ATOM     20  C   UNL     1       3.637   6.719  17.757  0.00  0.00    +0.000 A 
ATOM     21  C   UNL     1       3.503   5.912  18.883  0.00  0.00    +0.000 A 
ATOM     22 CL   UNL     1       4.380   4.435  18.985  0.00  0.00    +0.000 Cl
ATOM     23  C   UNL     1       2.678   6.299  19.934  0.00  0.00    +0.000 A 
ATOM     24  C   UNL     1       1.990   7.514  19.867  0.00  0.00    +0.000 A 
ATOM     25 CL   UNL     1       0.990   7.920  21.217  0.00  0.00    +0.000 Cl
ENDBRANCH  17  18
ENDBRANCH  15  17
ENDBRANCH   1  15
TORSDOF 4
ENDMDL
